data_str_m2_o1_o16_pcu_sym.208
_audit_creation_date              2020-01-03
_audit_creation_method            'Materials Studio'
_symmetry_space_group_name_H-M    'P1'
_symmetry_Int_Tables_number       1
_symmetry_cell_setting            triclinic
loop_
_symmetry_equiv_pos_as_xyz
  x,y,z
_cell_length_a                    28.9196
_cell_length_b                    32.8032
_cell_length_c                    27.0561
_cell_angle_alpha                 92.4760
_cell_angle_beta                  73.4208
_cell_angle_gamma                 89.2304
loop_
_atom_site_label
_atom_site_type_symbol
_atom_site_fract_x
_atom_site_fract_y
_atom_site_fract_z
_atom_site_U_iso_or_equiv
_atom_site_adp_type
_atom_site_occupancy
C1     C     0.16632   0.24582   0.24989   0.00000  Uiso   1.00
C2     C     0.14474   0.15988   0.48805   0.00000  Uiso   1.00
C3     C     0.15707   0.15141   0.43434   0.00000  Uiso   1.00
C4     C     0.18012   0.15470   0.01483   0.00000  Uiso   1.00
C5     C     0.22507   0.13473   0.48852   0.00000  Uiso   1.00
C6     C     0.23362   0.12044   0.43652   0.00000  Uiso   1.00
C7     C     0.19745   0.12563   0.41156   0.00000  Uiso   1.00
C8     C     0.17329   0.17197   0.06558   0.00000  Uiso   1.00
C9     C     0.25312   0.14731   0.06452   0.00000  Uiso   1.00
C10    C     0.12588   0.16573   0.40631   0.00000  Uiso   1.00
C11    C     0.20904   0.31128   0.23929   0.00000  Uiso   1.00
C12    C     0.14093   0.16603   0.34961   0.00000  Uiso   1.00
C13    C     0.20838   0.02001   0.25015   0.00000  Uiso   1.00
C14    C     0.16532   0.04286   0.25768   0.00000  Uiso   1.00
C15    C     0.12131   0.02241   0.26932   0.00000  Uiso   1.00
C16    C     0.12120   0.31310   0.26740   0.00000  Uiso   1.00
C17    C     0.16531   0.29052   0.25085   0.00000  Uiso   1.00
C18    C     0.29772   0.18738   0.28825   0.00000  Uiso   1.00
C19    C     0.01366   0.18703   0.28869   0.00000  Uiso   1.00
C20    C     0.03486   0.14635   0.21134   0.00000  Uiso   1.00
C21    C     0.31862   0.14562   0.21210   0.00000  Uiso   1.00
C22    C     0.16608   0.08758   0.25322   0.00000  Uiso   1.00
C23    C     0.19260   0.16722   0.14996   0.00000  Uiso   1.00
C24    C     0.26098   0.13084   0.01448   0.00000  Uiso   1.00
C25    C     0.20748   0.16393   0.09243   0.00000  Uiso   1.00
C26    C     0.08084   0.18343   0.43310   0.00000  Uiso   1.00
C27    C     0.06499   0.18427   0.48664   0.00000  Uiso   1.00
C28    C     0.09528   0.16820   0.01373   0.00000  Uiso   1.00
Cu29   Cu    0.11978   0.16666   0.25000   0.00000  Uiso   1.00
Cu30   Cu    0.21355   0.16667   0.25000   0.00000  Uiso   1.00
H31    H     0.05696   0.19540   0.41252   0.00000  Uiso   1.00
N32    N     0.04931   0.16666   0.24999   0.00000  Uiso   1.00
N33    N     0.28402   0.16669   0.24999   0.00000  Uiso   1.00
O34    O     0.12708   0.22678   0.25001   0.00000  Uiso   1.00
O35    O     0.20627   0.22679   0.25001   0.00000  Uiso   1.00
O36    O     0.10775   0.16665   0.32549   0.00000  Uiso   1.00
O37    O     0.18694   0.16666   0.32549   0.00000  Uiso   1.00
O38    O     0.12706   0.10654   0.25000   0.00000  Uiso   1.00
O39    O     0.20625   0.10655   0.24999   0.00000  Uiso   1.00
O40    O     0.14640   0.16667   0.17451   0.00000  Uiso   1.00
O41    O     0.22559   0.16668   0.17451   0.00000  Uiso   1.00
O42    O     0.29118   0.14601   0.08520   0.00000  Uiso   1.00
H43    H     0.29218   0.17314   0.10239   0.00000  Uiso   1.00
O44    O     0.24956   0.03895   0.25405   0.00000  Uiso   1.00
C45    C     0.26508   0.02268   0.29437   0.00000  Uiso   1.00
H46    H     0.28446   0.04650   0.31008   0.00000  Uiso   1.00
H47    H     0.29085   0.33019   0.27914   0.00000  Uiso   1.00
H48    H     0.23496   0.01257   0.32706   0.00000  Uiso   1.00
O49    O     0.07832   0.04417   0.28887   0.00000  Uiso   1.00
C50    C     0.05407   0.04494   0.25065   0.00000  Uiso   1.00
H51    H     0.07844   0.05009   0.21151   0.00000  Uiso   1.00
H52    H     0.02734   0.07055   0.26164   0.00000  Uiso   1.00
H53    H     0.03490   0.01622   0.24890   0.00000  Uiso   1.00
O54    O     0.07765   0.29435   0.28402   0.00000  Uiso   1.00
H55    H     0.07118   0.28230   0.25246   0.00000  Uiso   1.00
O56    O     0.26258   0.20748   0.32783   0.00000  Uiso   1.00
C57    C     0.26945   0.25003   0.32728   0.00000  Uiso   1.00
H58    H     0.29136   0.26055   0.28930   0.00000  Uiso   1.00
H59    H     0.28657   0.25963   0.35761   0.00000  Uiso   1.00
H60    H     0.23359   0.26577   0.33673   0.00000  Uiso   1.00
O61    O     0.02397   0.20747   0.32945   0.00000  Uiso   1.00
H62    H     0.05602   0.21914   0.31638   0.00000  Uiso   1.00
O63    O     0.06763   0.12677   0.17003   0.00000  Uiso   1.00
H64    H     0.09294   0.11443   0.18264   0.00000  Uiso   1.00
O65    O     0.30493   0.12575   0.17264   0.00000  Uiso   1.00
C66    C     0.31509   0.08340   0.17018   0.00000  Uiso   1.00
H67    H     0.01603   0.07531   0.14060   0.00000  Uiso   1.00
H68    H     0.28600   0.06715   0.15889   0.00000  Uiso   1.00
H69    H     0.31761   0.07186   0.20696   0.00000  Uiso   1.00
O70    O     0.27787   0.10283   0.40969   0.00000  Uiso   1.00
H71    H     0.28291   0.10530   0.37214   0.00000  Uiso   1.00
O72    O     0.30475   0.11120   0.49193   0.00000  Uiso   1.00
H73    H     0.29737   0.08244   0.48500   0.00000  Uiso   1.00
O74    O     0.13544   0.19961   0.08641   0.00000  Uiso   1.00
H75    H     0.14401   0.21844   0.11189   0.00000  Uiso   1.00
O76    O     0.07420   0.15179   0.06078   0.00000  Uiso   1.00
C77    C     0.07184   0.10885   0.05299   0.00000  Uiso   1.00
H78    H     0.08826   0.09343   0.07975   0.00000  Uiso   1.00
H79    H     0.09072   0.09584   0.01340   0.00000  Uiso   1.00
H80    H     0.03362   0.10039   0.06089   0.00000  Uiso   1.00
O81    O     0.01784   0.19642   0.01123   0.00000  Uiso   1.00
C82    C     0.01781   0.23263   0.04130   0.00000  Uiso   1.00
H83    H     0.03867   0.25685   0.01766   0.00000  Uiso   1.00
H84    H     0.03194   0.22687   0.07460   0.00000  Uiso   1.00
H85    H     0.31335   0.24423   0.05710   0.00000  Uiso   1.00
O86    O     0.19803   0.10173   0.36820   0.00000  Uiso   1.00
H87    H     0.21431   0.07545   0.37022   0.00000  Uiso   1.00
O88    O     0.25296   0.29046   0.22123   0.00000  Uiso   1.00
C89    C     0.26744   0.29033   0.16690   0.00000  Uiso   1.00
H90    H     0.30272   0.27372   0.15241   0.00000  Uiso   1.00
H91    H     0.27247   0.32190   0.15309   0.00000  Uiso   1.00
H92    H     0.24126   0.27408   0.15040   0.00000  Uiso   1.00
C93    C     0.49966   0.24582   0.24989   0.00000  Uiso   1.00
C94    C     0.47807   0.15988   0.48805   0.00000  Uiso   1.00
C95    C     0.49040   0.15141   0.43434   0.00000  Uiso   1.00
C96    C     0.51345   0.15470   0.01483   0.00000  Uiso   1.00
C97    C     0.55840   0.13473   0.48852   0.00000  Uiso   1.00
C98    C     0.56695   0.12044   0.43652   0.00000  Uiso   1.00
C99    C     0.53079   0.12563   0.41156   0.00000  Uiso   1.00
C100   C     0.50662   0.17197   0.06558   0.00000  Uiso   1.00
C101   C     0.58646   0.14731   0.06452   0.00000  Uiso   1.00
C102   C     0.45921   0.16573   0.40631   0.00000  Uiso   1.00
C103   C     0.54238   0.31128   0.23929   0.00000  Uiso   1.00
C104   C     0.47426   0.16603   0.34961   0.00000  Uiso   1.00
C105   C     0.54171   0.02001   0.25015   0.00000  Uiso   1.00
C106   C     0.49865   0.04286   0.25768   0.00000  Uiso   1.00
C107   C     0.45464   0.02241   0.26932   0.00000  Uiso   1.00
C108   C     0.45453   0.31310   0.26740   0.00000  Uiso   1.00
C109   C     0.49864   0.29052   0.25085   0.00000  Uiso   1.00
C110   C     0.63105   0.18738   0.28825   0.00000  Uiso   1.00
C111   C     0.34699   0.18703   0.28869   0.00000  Uiso   1.00
C112   C     0.36819   0.14635   0.21134   0.00000  Uiso   1.00
C113   C     0.65195   0.14562   0.21210   0.00000  Uiso   1.00
C114   C     0.49942   0.08758   0.25322   0.00000  Uiso   1.00
C115   C     0.52593   0.16722   0.14996   0.00000  Uiso   1.00
C116   C     0.59431   0.13084   0.01448   0.00000  Uiso   1.00
C117   C     0.54081   0.16393   0.09243   0.00000  Uiso   1.00
C118   C     0.41417   0.18343   0.43310   0.00000  Uiso   1.00
C119   C     0.39832   0.18427   0.48664   0.00000  Uiso   1.00
C120   C     0.42861   0.16820   0.01373   0.00000  Uiso   1.00
Cu121  Cu    0.45311   0.16666   0.25000   0.00000  Uiso   1.00
Cu122  Cu    0.54689   0.16667   0.25000   0.00000  Uiso   1.00
H123   H     0.39029   0.19540   0.41252   0.00000  Uiso   1.00
N124   N     0.38265   0.16666   0.24999   0.00000  Uiso   1.00
N125   N     0.61735   0.16669   0.24999   0.00000  Uiso   1.00
O126   O     0.46042   0.22678   0.25001   0.00000  Uiso   1.00
O127   O     0.53961   0.22679   0.25001   0.00000  Uiso   1.00
O128   O     0.44108   0.16665   0.32549   0.00000  Uiso   1.00
O129   O     0.52027   0.16666   0.32549   0.00000  Uiso   1.00
O130   O     0.46039   0.10654   0.25000   0.00000  Uiso   1.00
O131   O     0.53958   0.10655   0.24999   0.00000  Uiso   1.00
O132   O     0.47973   0.16667   0.17451   0.00000  Uiso   1.00
O133   O     0.55892   0.16668   0.17451   0.00000  Uiso   1.00
O134   O     0.62451   0.14601   0.08520   0.00000  Uiso   1.00
H135   H     0.62551   0.17314   0.10239   0.00000  Uiso   1.00
O136   O     0.58290   0.03895   0.25405   0.00000  Uiso   1.00
C137   C     0.59841   0.02268   0.29437   0.00000  Uiso   1.00
H138   H     0.61779   0.04650   0.31008   0.00000  Uiso   1.00
H139   H     0.62418   0.33019   0.27914   0.00000  Uiso   1.00
H140   H     0.56829   0.01257   0.32706   0.00000  Uiso   1.00
O141   O     0.41165   0.04417   0.28887   0.00000  Uiso   1.00
C142   C     0.38740   0.04494   0.25065   0.00000  Uiso   1.00
H143   H     0.41177   0.05009   0.21151   0.00000  Uiso   1.00
H144   H     0.36067   0.07055   0.26164   0.00000  Uiso   1.00
H145   H     0.36823   0.01622   0.24890   0.00000  Uiso   1.00
O146   O     0.41098   0.29435   0.28402   0.00000  Uiso   1.00
H147   H     0.40452   0.28230   0.25246   0.00000  Uiso   1.00
O148   O     0.59591   0.20748   0.32783   0.00000  Uiso   1.00
C149   C     0.60278   0.25003   0.32728   0.00000  Uiso   1.00
H150   H     0.62469   0.26055   0.28930   0.00000  Uiso   1.00
H151   H     0.61991   0.25963   0.35761   0.00000  Uiso   1.00
H152   H     0.56692   0.26577   0.33673   0.00000  Uiso   1.00
O153   O     0.35731   0.20747   0.32945   0.00000  Uiso   1.00
H154   H     0.38935   0.21914   0.31638   0.00000  Uiso   1.00
O155   O     0.40096   0.12677   0.17003   0.00000  Uiso   1.00
H156   H     0.42627   0.11443   0.18264   0.00000  Uiso   1.00
O157   O     0.63826   0.12575   0.17264   0.00000  Uiso   1.00
C158   C     0.64843   0.08340   0.17018   0.00000  Uiso   1.00
H159   H     0.34936   0.07531   0.14060   0.00000  Uiso   1.00
H160   H     0.61933   0.06715   0.15889   0.00000  Uiso   1.00
H161   H     0.65094   0.07186   0.20696   0.00000  Uiso   1.00
O162   O     0.61120   0.10283   0.40969   0.00000  Uiso   1.00
H163   H     0.61624   0.10530   0.37214   0.00000  Uiso   1.00
O164   O     0.63808   0.11120   0.49193   0.00000  Uiso   1.00
H165   H     0.63071   0.08244   0.48500   0.00000  Uiso   1.00
O166   O     0.46878   0.19961   0.08641   0.00000  Uiso   1.00
H167   H     0.47734   0.21844   0.11189   0.00000  Uiso   1.00
O168   O     0.40754   0.15179   0.06078   0.00000  Uiso   1.00
C169   C     0.40518   0.10885   0.05299   0.00000  Uiso   1.00
H170   H     0.42159   0.09343   0.07975   0.00000  Uiso   1.00
H171   H     0.42405   0.09584   0.01340   0.00000  Uiso   1.00
H172   H     0.36695   0.10039   0.06089   0.00000  Uiso   1.00
O173   O     0.35117   0.19642   0.01123   0.00000  Uiso   1.00
C174   C     0.35114   0.23263   0.04130   0.00000  Uiso   1.00
H175   H     0.37200   0.25685   0.01766   0.00000  Uiso   1.00
H176   H     0.36527   0.22687   0.07460   0.00000  Uiso   1.00
H177   H     0.64668   0.24423   0.05710   0.00000  Uiso   1.00
O178   O     0.53136   0.10173   0.36820   0.00000  Uiso   1.00
H179   H     0.54765   0.07545   0.37022   0.00000  Uiso   1.00
O180   O     0.58630   0.29046   0.22123   0.00000  Uiso   1.00
C181   C     0.60078   0.29033   0.16690   0.00000  Uiso   1.00
H182   H     0.63605   0.27372   0.15241   0.00000  Uiso   1.00
H183   H     0.60580   0.32190   0.15309   0.00000  Uiso   1.00
H184   H     0.57459   0.27408   0.15040   0.00000  Uiso   1.00
C185   C     0.83299   0.24582   0.24989   0.00000  Uiso   1.00
C186   C     0.81140   0.15988   0.48805   0.00000  Uiso   1.00
C187   C     0.82374   0.15141   0.43434   0.00000  Uiso   1.00
C188   C     0.84679   0.15470   0.01483   0.00000  Uiso   1.00
C189   C     0.89174   0.13473   0.48852   0.00000  Uiso   1.00
C190   C     0.90028   0.12044   0.43652   0.00000  Uiso   1.00
C191   C     0.86412   0.12563   0.41156   0.00000  Uiso   1.00
C192   C     0.83996   0.17197   0.06558   0.00000  Uiso   1.00
C193   C     0.91979   0.14731   0.06452   0.00000  Uiso   1.00
C194   C     0.79255   0.16573   0.40631   0.00000  Uiso   1.00
C195   C     0.87571   0.31128   0.23929   0.00000  Uiso   1.00
C196   C     0.80759   0.16603   0.34961   0.00000  Uiso   1.00
C197   C     0.87505   0.02001   0.25015   0.00000  Uiso   1.00
C198   C     0.83199   0.04286   0.25768   0.00000  Uiso   1.00
C199   C     0.78798   0.02241   0.26932   0.00000  Uiso   1.00
C200   C     0.78786   0.31310   0.26740   0.00000  Uiso   1.00
C201   C     0.83197   0.29052   0.25085   0.00000  Uiso   1.00
C202   C     0.96438   0.18738   0.28825   0.00000  Uiso   1.00
C203   C     0.68033   0.18703   0.28869   0.00000  Uiso   1.00
C204   C     0.70152   0.14635   0.21134   0.00000  Uiso   1.00
C205   C     0.98529   0.14562   0.21210   0.00000  Uiso   1.00
C206   C     0.83275   0.08758   0.25322   0.00000  Uiso   1.00
C207   C     0.85926   0.16722   0.14996   0.00000  Uiso   1.00
C208   C     0.92765   0.13084   0.01448   0.00000  Uiso   1.00
C209   C     0.87415   0.16393   0.09243   0.00000  Uiso   1.00
C210   C     0.74750   0.18343   0.43310   0.00000  Uiso   1.00
C211   C     0.73166   0.18427   0.48664   0.00000  Uiso   1.00
C212   C     0.76194   0.16820   0.01373   0.00000  Uiso   1.00
Cu213  Cu    0.78645   0.16666   0.25000   0.00000  Uiso   1.00
Cu214  Cu    0.88022   0.16667   0.25000   0.00000  Uiso   1.00
H215   H     0.72362   0.19540   0.41252   0.00000  Uiso   1.00
N216   N     0.71598   0.16666   0.24999   0.00000  Uiso   1.00
N217   N     0.95069   0.16669   0.24999   0.00000  Uiso   1.00
O218   O     0.79375   0.22678   0.25001   0.00000  Uiso   1.00
O219   O     0.87294   0.22679   0.25001   0.00000  Uiso   1.00
O220   O     0.77441   0.16665   0.32549   0.00000  Uiso   1.00
O221   O     0.85360   0.16666   0.32549   0.00000  Uiso   1.00
O222   O     0.79373   0.10654   0.25000   0.00000  Uiso   1.00
O223   O     0.87292   0.10655   0.24999   0.00000  Uiso   1.00
O224   O     0.81306   0.16667   0.17451   0.00000  Uiso   1.00
O225   O     0.89225   0.16668   0.17451   0.00000  Uiso   1.00
O226   O     0.95785   0.14601   0.08520   0.00000  Uiso   1.00
H227   H     0.95884   0.17314   0.10239   0.00000  Uiso   1.00
O228   O     0.91623   0.03895   0.25405   0.00000  Uiso   1.00
C229   C     0.93174   0.02268   0.29437   0.00000  Uiso   1.00
H230   H     0.95113   0.04650   0.31008   0.00000  Uiso   1.00
H231   H     0.95751   0.33019   0.27914   0.00000  Uiso   1.00
H232   H     0.90162   0.01257   0.32706   0.00000  Uiso   1.00
O233   O     0.74499   0.04417   0.28887   0.00000  Uiso   1.00
C234   C     0.72073   0.04494   0.25065   0.00000  Uiso   1.00
H235   H     0.74511   0.05009   0.21151   0.00000  Uiso   1.00
H236   H     0.69401   0.07055   0.26164   0.00000  Uiso   1.00
H237   H     0.70156   0.01622   0.24890   0.00000  Uiso   1.00
O238   O     0.74431   0.29435   0.28402   0.00000  Uiso   1.00
H239   H     0.73785   0.28230   0.25246   0.00000  Uiso   1.00
O240   O     0.92925   0.20748   0.32783   0.00000  Uiso   1.00
C241   C     0.93612   0.25003   0.32728   0.00000  Uiso   1.00
H242   H     0.95803   0.26055   0.28930   0.00000  Uiso   1.00
H243   H     0.95324   0.25963   0.35761   0.00000  Uiso   1.00
H244   H     0.90025   0.26577   0.33673   0.00000  Uiso   1.00
O245   O     0.69064   0.20747   0.32945   0.00000  Uiso   1.00
H246   H     0.72268   0.21914   0.31638   0.00000  Uiso   1.00
O247   O     0.73429   0.12677   0.17003   0.00000  Uiso   1.00
H248   H     0.75960   0.11443   0.18264   0.00000  Uiso   1.00
O249   O     0.97160   0.12575   0.17264   0.00000  Uiso   1.00
C250   C     0.98176   0.08340   0.17018   0.00000  Uiso   1.00
H251   H     0.68270   0.07531   0.14060   0.00000  Uiso   1.00
H252   H     0.95267   0.06715   0.15889   0.00000  Uiso   1.00
H253   H     0.98427   0.07186   0.20696   0.00000  Uiso   1.00
O254   O     0.94454   0.10283   0.40969   0.00000  Uiso   1.00
H255   H     0.94957   0.10530   0.37214   0.00000  Uiso   1.00
O256   O     0.97141   0.11120   0.49193   0.00000  Uiso   1.00
H257   H     0.96404   0.08244   0.48500   0.00000  Uiso   1.00
O258   O     0.80211   0.19961   0.08641   0.00000  Uiso   1.00
H259   H     0.81068   0.21844   0.11189   0.00000  Uiso   1.00
O260   O     0.74087   0.15179   0.06078   0.00000  Uiso   1.00
C261   C     0.73851   0.10885   0.05299   0.00000  Uiso   1.00
H262   H     0.75492   0.09343   0.07975   0.00000  Uiso   1.00
H263   H     0.75739   0.09584   0.01340   0.00000  Uiso   1.00
H264   H     0.70028   0.10039   0.06089   0.00000  Uiso   1.00
O265   O     0.68451   0.19642   0.01123   0.00000  Uiso   1.00
C266   C     0.68448   0.23263   0.04130   0.00000  Uiso   1.00
H267   H     0.70533   0.25685   0.01766   0.00000  Uiso   1.00
H268   H     0.69860   0.22687   0.07460   0.00000  Uiso   1.00
H269   H     0.98001   0.24423   0.05710   0.00000  Uiso   1.00
O270   O     0.86469   0.10173   0.36820   0.00000  Uiso   1.00
H271   H     0.88098   0.07545   0.37022   0.00000  Uiso   1.00
O272   O     0.91963   0.29046   0.22123   0.00000  Uiso   1.00
C273   C     0.93411   0.29033   0.16690   0.00000  Uiso   1.00
H274   H     0.96938   0.27372   0.15241   0.00000  Uiso   1.00
H275   H     0.93914   0.32190   0.15309   0.00000  Uiso   1.00
H276   H     0.90793   0.27408   0.15040   0.00000  Uiso   1.00
C277   C     0.16632   0.57916   0.24989   0.00000  Uiso   1.00
C278   C     0.14474   0.49321   0.48805   0.00000  Uiso   1.00
C279   C     0.15707   0.48475   0.43434   0.00000  Uiso   1.00
C280   C     0.18012   0.48803   0.01483   0.00000  Uiso   1.00
C281   C     0.22507   0.46807   0.48852   0.00000  Uiso   1.00
C282   C     0.23362   0.45377   0.43652   0.00000  Uiso   1.00
C283   C     0.19745   0.45896   0.41156   0.00000  Uiso   1.00
C284   C     0.17329   0.50531   0.06558   0.00000  Uiso   1.00
C285   C     0.25312   0.48065   0.06452   0.00000  Uiso   1.00
C286   C     0.12588   0.49906   0.40631   0.00000  Uiso   1.00
C287   C     0.20904   0.64461   0.23929   0.00000  Uiso   1.00
C288   C     0.14093   0.49937   0.34961   0.00000  Uiso   1.00
C289   C     0.20838   0.35334   0.25015   0.00000  Uiso   1.00
C290   C     0.16532   0.37619   0.25768   0.00000  Uiso   1.00
C291   C     0.12131   0.35574   0.26932   0.00000  Uiso   1.00
C292   C     0.12120   0.64643   0.26740   0.00000  Uiso   1.00
C293   C     0.16531   0.62386   0.25085   0.00000  Uiso   1.00
C294   C     0.29772   0.52072   0.28825   0.00000  Uiso   1.00
C295   C     0.01366   0.52036   0.28869   0.00000  Uiso   1.00
C296   C     0.03486   0.47968   0.21134   0.00000  Uiso   1.00
C297   C     0.31862   0.47896   0.21210   0.00000  Uiso   1.00
C298   C     0.16608   0.42092   0.25322   0.00000  Uiso   1.00
C299   C     0.19260   0.50056   0.14996   0.00000  Uiso   1.00
C300   C     0.26098   0.46417   0.01448   0.00000  Uiso   1.00
C301   C     0.20748   0.49726   0.09243   0.00000  Uiso   1.00
C302   C     0.08084   0.51677   0.43310   0.00000  Uiso   1.00
C303   C     0.06499   0.51760   0.48664   0.00000  Uiso   1.00
C304   C     0.09528   0.50153   0.01373   0.00000  Uiso   1.00
Cu305  Cu    0.11978   0.49999   0.25000   0.00000  Uiso   1.00
Cu306  Cu    0.21355   0.50001   0.25000   0.00000  Uiso   1.00
H307   H     0.05696   0.52873   0.41252   0.00000  Uiso   1.00
N308   N     0.04931   0.49999   0.24999   0.00000  Uiso   1.00
N309   N     0.28402   0.50002   0.24999   0.00000  Uiso   1.00
O310   O     0.12708   0.56011   0.25001   0.00000  Uiso   1.00
O311   O     0.20627   0.56012   0.25001   0.00000  Uiso   1.00
O312   O     0.10775   0.49998   0.32549   0.00000  Uiso   1.00
O313   O     0.18694   0.49999   0.32549   0.00000  Uiso   1.00
O314   O     0.12706   0.43988   0.25000   0.00000  Uiso   1.00
O315   O     0.20625   0.43989   0.24999   0.00000  Uiso   1.00
O316   O     0.14640   0.50001   0.17451   0.00000  Uiso   1.00
O317   O     0.22559   0.50002   0.17451   0.00000  Uiso   1.00
O318   O     0.29118   0.47934   0.08520   0.00000  Uiso   1.00
H319   H     0.29218   0.50647   0.10239   0.00000  Uiso   1.00
O320   O     0.24956   0.37229   0.25405   0.00000  Uiso   1.00
C321   C     0.26508   0.35601   0.29437   0.00000  Uiso   1.00
H322   H     0.28446   0.37984   0.31008   0.00000  Uiso   1.00
H323   H     0.29085   0.66352   0.27914   0.00000  Uiso   1.00
H324   H     0.23496   0.34590   0.32706   0.00000  Uiso   1.00
O325   O     0.07832   0.37750   0.28887   0.00000  Uiso   1.00
C326   C     0.05407   0.37827   0.25065   0.00000  Uiso   1.00
H327   H     0.07844   0.38343   0.21151   0.00000  Uiso   1.00
H328   H     0.02734   0.40388   0.26164   0.00000  Uiso   1.00
H329   H     0.03490   0.34955   0.24890   0.00000  Uiso   1.00
O330   O     0.07765   0.62768   0.28402   0.00000  Uiso   1.00
H331   H     0.07118   0.61563   0.25246   0.00000  Uiso   1.00
O332   O     0.26258   0.54082   0.32783   0.00000  Uiso   1.00
C333   C     0.26945   0.58336   0.32728   0.00000  Uiso   1.00
H334   H     0.29136   0.59389   0.28930   0.00000  Uiso   1.00
H335   H     0.28657   0.59296   0.35761   0.00000  Uiso   1.00
H336   H     0.23359   0.59911   0.33673   0.00000  Uiso   1.00
O337   O     0.02397   0.54080   0.32945   0.00000  Uiso   1.00
H338   H     0.05602   0.55247   0.31638   0.00000  Uiso   1.00
O339   O     0.06763   0.46010   0.17003   0.00000  Uiso   1.00
H340   H     0.09294   0.44776   0.18264   0.00000  Uiso   1.00
O341   O     0.30493   0.45908   0.17264   0.00000  Uiso   1.00
C342   C     0.31509   0.41673   0.17018   0.00000  Uiso   1.00
H343   H     0.01603   0.40864   0.14060   0.00000  Uiso   1.00
H344   H     0.28600   0.40048   0.15889   0.00000  Uiso   1.00
H345   H     0.31761   0.40520   0.20696   0.00000  Uiso   1.00
O346   O     0.27787   0.43617   0.40969   0.00000  Uiso   1.00
H347   H     0.28291   0.43864   0.37214   0.00000  Uiso   1.00
O348   O     0.30475   0.44453   0.49193   0.00000  Uiso   1.00
H349   H     0.29737   0.41577   0.48500   0.00000  Uiso   1.00
O350   O     0.13544   0.53294   0.08641   0.00000  Uiso   1.00
H351   H     0.14401   0.55177   0.11189   0.00000  Uiso   1.00
O352   O     0.07420   0.48512   0.06078   0.00000  Uiso   1.00
C353   C     0.07184   0.44219   0.05299   0.00000  Uiso   1.00
H354   H     0.08826   0.42676   0.07975   0.00000  Uiso   1.00
H355   H     0.09072   0.42917   0.01340   0.00000  Uiso   1.00
H356   H     0.03362   0.43373   0.06089   0.00000  Uiso   1.00
O357   O     0.01784   0.52975   0.01123   0.00000  Uiso   1.00
C358   C     0.01781   0.56596   0.04130   0.00000  Uiso   1.00
H359   H     0.03867   0.59019   0.01766   0.00000  Uiso   1.00
H360   H     0.03194   0.56020   0.07460   0.00000  Uiso   1.00
H361   H     0.31335   0.57756   0.05710   0.00000  Uiso   1.00
O362   O     0.19803   0.43506   0.36820   0.00000  Uiso   1.00
H363   H     0.21431   0.40878   0.37022   0.00000  Uiso   1.00
O364   O     0.25296   0.62380   0.22123   0.00000  Uiso   1.00
C365   C     0.26744   0.62367   0.16690   0.00000  Uiso   1.00
H366   H     0.30272   0.60705   0.15241   0.00000  Uiso   1.00
H367   H     0.27247   0.65523   0.15309   0.00000  Uiso   1.00
H368   H     0.24126   0.60741   0.15040   0.00000  Uiso   1.00
C369   C     0.49966   0.57916   0.24989   0.00000  Uiso   1.00
C370   C     0.47807   0.49321   0.48805   0.00000  Uiso   1.00
C371   C     0.49040   0.48475   0.43434   0.00000  Uiso   1.00
C372   C     0.51345   0.48803   0.01483   0.00000  Uiso   1.00
C373   C     0.55840   0.46807   0.48852   0.00000  Uiso   1.00
C374   C     0.56695   0.45377   0.43652   0.00000  Uiso   1.00
C375   C     0.53079   0.45896   0.41156   0.00000  Uiso   1.00
C376   C     0.50662   0.50531   0.06558   0.00000  Uiso   1.00
C377   C     0.58646   0.48065   0.06452   0.00000  Uiso   1.00
C378   C     0.45921   0.49906   0.40631   0.00000  Uiso   1.00
C379   C     0.54238   0.64461   0.23929   0.00000  Uiso   1.00
C380   C     0.47426   0.49937   0.34961   0.00000  Uiso   1.00
C381   C     0.54171   0.35334   0.25015   0.00000  Uiso   1.00
C382   C     0.49865   0.37619   0.25768   0.00000  Uiso   1.00
C383   C     0.45464   0.35574   0.26932   0.00000  Uiso   1.00
C384   C     0.45453   0.64643   0.26740   0.00000  Uiso   1.00
C385   C     0.49864   0.62386   0.25085   0.00000  Uiso   1.00
C386   C     0.63105   0.52072   0.28825   0.00000  Uiso   1.00
C387   C     0.34699   0.52036   0.28869   0.00000  Uiso   1.00
C388   C     0.36819   0.47968   0.21134   0.00000  Uiso   1.00
C389   C     0.65195   0.47896   0.21210   0.00000  Uiso   1.00
C390   C     0.49942   0.42092   0.25322   0.00000  Uiso   1.00
C391   C     0.52593   0.50056   0.14996   0.00000  Uiso   1.00
C392   C     0.59431   0.46417   0.01448   0.00000  Uiso   1.00
C393   C     0.54081   0.49726   0.09243   0.00000  Uiso   1.00
C394   C     0.41417   0.51677   0.43310   0.00000  Uiso   1.00
C395   C     0.39832   0.51760   0.48664   0.00000  Uiso   1.00
C396   C     0.42861   0.50153   0.01373   0.00000  Uiso   1.00
Cu397  Cu    0.45311   0.49999   0.25000   0.00000  Uiso   1.00
Cu398  Cu    0.54689   0.50001   0.25000   0.00000  Uiso   1.00
H399   H     0.39029   0.52873   0.41252   0.00000  Uiso   1.00
N400   N     0.38265   0.49999   0.24999   0.00000  Uiso   1.00
N401   N     0.61735   0.50002   0.24999   0.00000  Uiso   1.00
O402   O     0.46042   0.56011   0.25001   0.00000  Uiso   1.00
O403   O     0.53961   0.56012   0.25001   0.00000  Uiso   1.00
O404   O     0.44108   0.49998   0.32549   0.00000  Uiso   1.00
O405   O     0.52027   0.49999   0.32549   0.00000  Uiso   1.00
O406   O     0.46039   0.43988   0.25000   0.00000  Uiso   1.00
O407   O     0.53958   0.43989   0.24999   0.00000  Uiso   1.00
O408   O     0.47973   0.50001   0.17451   0.00000  Uiso   1.00
O409   O     0.55892   0.50002   0.17451   0.00000  Uiso   1.00
O410   O     0.62451   0.47934   0.08520   0.00000  Uiso   1.00
H411   H     0.62551   0.50647   0.10239   0.00000  Uiso   1.00
O412   O     0.58290   0.37229   0.25405   0.00000  Uiso   1.00
C413   C     0.59841   0.35601   0.29437   0.00000  Uiso   1.00
H414   H     0.61779   0.37984   0.31008   0.00000  Uiso   1.00
H415   H     0.62418   0.66352   0.27914   0.00000  Uiso   1.00
H416   H     0.56829   0.34590   0.32706   0.00000  Uiso   1.00
O417   O     0.41165   0.37750   0.28887   0.00000  Uiso   1.00
C418   C     0.38740   0.37827   0.25065   0.00000  Uiso   1.00
H419   H     0.41177   0.38343   0.21151   0.00000  Uiso   1.00
H420   H     0.36067   0.40388   0.26164   0.00000  Uiso   1.00
H421   H     0.36823   0.34955   0.24890   0.00000  Uiso   1.00
O422   O     0.41098   0.62768   0.28402   0.00000  Uiso   1.00
H423   H     0.40452   0.61563   0.25246   0.00000  Uiso   1.00
O424   O     0.59591   0.54082   0.32783   0.00000  Uiso   1.00
C425   C     0.60278   0.58336   0.32728   0.00000  Uiso   1.00
H426   H     0.62469   0.59389   0.28930   0.00000  Uiso   1.00
H427   H     0.61991   0.59296   0.35761   0.00000  Uiso   1.00
H428   H     0.56692   0.59911   0.33673   0.00000  Uiso   1.00
O429   O     0.35731   0.54080   0.32945   0.00000  Uiso   1.00
H430   H     0.38935   0.55247   0.31638   0.00000  Uiso   1.00
O431   O     0.40096   0.46010   0.17003   0.00000  Uiso   1.00
H432   H     0.42627   0.44776   0.18264   0.00000  Uiso   1.00
O433   O     0.63826   0.45908   0.17264   0.00000  Uiso   1.00
C434   C     0.64843   0.41673   0.17018   0.00000  Uiso   1.00
H435   H     0.34936   0.40864   0.14060   0.00000  Uiso   1.00
H436   H     0.61933   0.40048   0.15889   0.00000  Uiso   1.00
H437   H     0.65094   0.40520   0.20696   0.00000  Uiso   1.00
O438   O     0.61120   0.43617   0.40969   0.00000  Uiso   1.00
H439   H     0.61624   0.43864   0.37214   0.00000  Uiso   1.00
O440   O     0.63808   0.44453   0.49193   0.00000  Uiso   1.00
H441   H     0.63071   0.41577   0.48500   0.00000  Uiso   1.00
O442   O     0.46878   0.53294   0.08641   0.00000  Uiso   1.00
H443   H     0.47734   0.55177   0.11189   0.00000  Uiso   1.00
O444   O     0.40754   0.48512   0.06078   0.00000  Uiso   1.00
C445   C     0.40518   0.44219   0.05299   0.00000  Uiso   1.00
H446   H     0.42159   0.42676   0.07975   0.00000  Uiso   1.00
H447   H     0.42405   0.42917   0.01340   0.00000  Uiso   1.00
H448   H     0.36695   0.43373   0.06089   0.00000  Uiso   1.00
O449   O     0.35117   0.52975   0.01123   0.00000  Uiso   1.00
C450   C     0.35114   0.56596   0.04130   0.00000  Uiso   1.00
H451   H     0.37200   0.59019   0.01766   0.00000  Uiso   1.00
H452   H     0.36527   0.56020   0.07460   0.00000  Uiso   1.00
H453   H     0.64668   0.57756   0.05710   0.00000  Uiso   1.00
O454   O     0.53136   0.43506   0.36820   0.00000  Uiso   1.00
H455   H     0.54765   0.40878   0.37022   0.00000  Uiso   1.00
O456   O     0.58630   0.62380   0.22123   0.00000  Uiso   1.00
C457   C     0.60078   0.62367   0.16690   0.00000  Uiso   1.00
H458   H     0.63605   0.60705   0.15241   0.00000  Uiso   1.00
H459   H     0.60580   0.65523   0.15309   0.00000  Uiso   1.00
H460   H     0.57459   0.60741   0.15040   0.00000  Uiso   1.00
C461   C     0.83299   0.57916   0.24989   0.00000  Uiso   1.00
C462   C     0.81140   0.49321   0.48805   0.00000  Uiso   1.00
C463   C     0.82374   0.48475   0.43434   0.00000  Uiso   1.00
C464   C     0.84679   0.48803   0.01483   0.00000  Uiso   1.00
C465   C     0.89174   0.46807   0.48852   0.00000  Uiso   1.00
C466   C     0.90028   0.45377   0.43652   0.00000  Uiso   1.00
C467   C     0.86412   0.45896   0.41156   0.00000  Uiso   1.00
C468   C     0.83996   0.50531   0.06558   0.00000  Uiso   1.00
C469   C     0.91979   0.48065   0.06452   0.00000  Uiso   1.00
C470   C     0.79255   0.49906   0.40631   0.00000  Uiso   1.00
C471   C     0.87571   0.64461   0.23929   0.00000  Uiso   1.00
C472   C     0.80759   0.49937   0.34961   0.00000  Uiso   1.00
C473   C     0.87505   0.35334   0.25015   0.00000  Uiso   1.00
C474   C     0.83199   0.37619   0.25768   0.00000  Uiso   1.00
C475   C     0.78798   0.35574   0.26932   0.00000  Uiso   1.00
C476   C     0.78786   0.64643   0.26740   0.00000  Uiso   1.00
C477   C     0.83197   0.62386   0.25085   0.00000  Uiso   1.00
C478   C     0.96438   0.52072   0.28825   0.00000  Uiso   1.00
C479   C     0.68033   0.52036   0.28869   0.00000  Uiso   1.00
C480   C     0.70152   0.47968   0.21134   0.00000  Uiso   1.00
C481   C     0.98529   0.47896   0.21210   0.00000  Uiso   1.00
C482   C     0.83275   0.42092   0.25322   0.00000  Uiso   1.00
C483   C     0.85926   0.50056   0.14996   0.00000  Uiso   1.00
C484   C     0.92765   0.46417   0.01448   0.00000  Uiso   1.00
C485   C     0.87415   0.49726   0.09243   0.00000  Uiso   1.00
C486   C     0.74750   0.51677   0.43310   0.00000  Uiso   1.00
C487   C     0.73166   0.51760   0.48664   0.00000  Uiso   1.00
C488   C     0.76194   0.50153   0.01373   0.00000  Uiso   1.00
Cu489  Cu    0.78645   0.49999   0.25000   0.00000  Uiso   1.00
Cu490  Cu    0.88022   0.50001   0.25000   0.00000  Uiso   1.00
H491   H     0.72362   0.52873   0.41252   0.00000  Uiso   1.00
N492   N     0.71598   0.49999   0.24999   0.00000  Uiso   1.00
N493   N     0.95069   0.50002   0.24999   0.00000  Uiso   1.00
O494   O     0.79375   0.56011   0.25001   0.00000  Uiso   1.00
O495   O     0.87294   0.56012   0.25001   0.00000  Uiso   1.00
O496   O     0.77441   0.49998   0.32549   0.00000  Uiso   1.00
O497   O     0.85360   0.49999   0.32549   0.00000  Uiso   1.00
O498   O     0.79373   0.43988   0.25000   0.00000  Uiso   1.00
O499   O     0.87292   0.43989   0.24999   0.00000  Uiso   1.00
O500   O     0.81306   0.50001   0.17451   0.00000  Uiso   1.00
O501   O     0.89225   0.50002   0.17451   0.00000  Uiso   1.00
O502   O     0.95785   0.47934   0.08520   0.00000  Uiso   1.00
H503   H     0.95884   0.50647   0.10239   0.00000  Uiso   1.00
O504   O     0.91623   0.37229   0.25405   0.00000  Uiso   1.00
C505   C     0.93174   0.35601   0.29437   0.00000  Uiso   1.00
H506   H     0.95113   0.37984   0.31008   0.00000  Uiso   1.00
H507   H     0.95751   0.66352   0.27914   0.00000  Uiso   1.00
H508   H     0.90162   0.34590   0.32706   0.00000  Uiso   1.00
O509   O     0.74499   0.37750   0.28887   0.00000  Uiso   1.00
C510   C     0.72073   0.37827   0.25065   0.00000  Uiso   1.00
H511   H     0.74511   0.38343   0.21151   0.00000  Uiso   1.00
H512   H     0.69401   0.40388   0.26164   0.00000  Uiso   1.00
H513   H     0.70156   0.34955   0.24890   0.00000  Uiso   1.00
O514   O     0.74431   0.62768   0.28402   0.00000  Uiso   1.00
H515   H     0.73785   0.61563   0.25246   0.00000  Uiso   1.00
O516   O     0.92925   0.54082   0.32783   0.00000  Uiso   1.00
C517   C     0.93612   0.58336   0.32728   0.00000  Uiso   1.00
H518   H     0.95803   0.59389   0.28930   0.00000  Uiso   1.00
H519   H     0.95324   0.59296   0.35761   0.00000  Uiso   1.00
H520   H     0.90025   0.59911   0.33673   0.00000  Uiso   1.00
O521   O     0.69064   0.54080   0.32945   0.00000  Uiso   1.00
H522   H     0.72268   0.55247   0.31638   0.00000  Uiso   1.00
O523   O     0.73429   0.46010   0.17003   0.00000  Uiso   1.00
H524   H     0.75960   0.44776   0.18264   0.00000  Uiso   1.00
O525   O     0.97160   0.45908   0.17264   0.00000  Uiso   1.00
C526   C     0.98176   0.41673   0.17018   0.00000  Uiso   1.00
H527   H     0.68270   0.40864   0.14060   0.00000  Uiso   1.00
H528   H     0.95267   0.40048   0.15889   0.00000  Uiso   1.00
H529   H     0.98427   0.40520   0.20696   0.00000  Uiso   1.00
O530   O     0.94454   0.43617   0.40969   0.00000  Uiso   1.00
H531   H     0.94957   0.43864   0.37214   0.00000  Uiso   1.00
O532   O     0.97141   0.44453   0.49193   0.00000  Uiso   1.00
H533   H     0.96404   0.41577   0.48500   0.00000  Uiso   1.00
O534   O     0.80211   0.53294   0.08641   0.00000  Uiso   1.00
H535   H     0.81068   0.55177   0.11189   0.00000  Uiso   1.00
O536   O     0.74087   0.48512   0.06078   0.00000  Uiso   1.00
C537   C     0.73851   0.44219   0.05299   0.00000  Uiso   1.00
H538   H     0.75492   0.42676   0.07975   0.00000  Uiso   1.00
H539   H     0.75739   0.42917   0.01340   0.00000  Uiso   1.00
H540   H     0.70028   0.43373   0.06089   0.00000  Uiso   1.00
O541   O     0.68451   0.52975   0.01123   0.00000  Uiso   1.00
C542   C     0.68448   0.56596   0.04130   0.00000  Uiso   1.00
H543   H     0.70533   0.59019   0.01766   0.00000  Uiso   1.00
H544   H     0.69860   0.56020   0.07460   0.00000  Uiso   1.00
H545   H     0.98001   0.57756   0.05710   0.00000  Uiso   1.00
O546   O     0.86469   0.43506   0.36820   0.00000  Uiso   1.00
H547   H     0.88098   0.40878   0.37022   0.00000  Uiso   1.00
O548   O     0.91963   0.62380   0.22123   0.00000  Uiso   1.00
C549   C     0.93411   0.62367   0.16690   0.00000  Uiso   1.00
H550   H     0.96938   0.60705   0.15241   0.00000  Uiso   1.00
H551   H     0.93914   0.65523   0.15309   0.00000  Uiso   1.00
H552   H     0.90793   0.60741   0.15040   0.00000  Uiso   1.00
C553   C     0.16632   0.91249   0.24989   0.00000  Uiso   1.00
C554   C     0.14474   0.82654   0.48805   0.00000  Uiso   1.00
C555   C     0.15707   0.81808   0.43434   0.00000  Uiso   1.00
C556   C     0.18012   0.82136   0.01483   0.00000  Uiso   1.00
C557   C     0.22507   0.80140   0.48852   0.00000  Uiso   1.00
C558   C     0.23362   0.78711   0.43652   0.00000  Uiso   1.00
C559   C     0.19745   0.79230   0.41156   0.00000  Uiso   1.00
C560   C     0.17329   0.83864   0.06558   0.00000  Uiso   1.00
C561   C     0.25312   0.81398   0.06452   0.00000  Uiso   1.00
C562   C     0.12588   0.83240   0.40631   0.00000  Uiso   1.00
C563   C     0.20904   0.97794   0.23929   0.00000  Uiso   1.00
C564   C     0.14093   0.83270   0.34961   0.00000  Uiso   1.00
C565   C     0.20838   0.68667   0.25015   0.00000  Uiso   1.00
C566   C     0.16532   0.70953   0.25768   0.00000  Uiso   1.00
C567   C     0.12131   0.68907   0.26932   0.00000  Uiso   1.00
C568   C     0.12120   0.97976   0.26740   0.00000  Uiso   1.00
C569   C     0.16531   0.95719   0.25085   0.00000  Uiso   1.00
C570   C     0.29772   0.85405   0.28825   0.00000  Uiso   1.00
C571   C     0.01366   0.85369   0.28869   0.00000  Uiso   1.00
C572   C     0.03486   0.81301   0.21134   0.00000  Uiso   1.00
C573   C     0.31862   0.81229   0.21210   0.00000  Uiso   1.00
C574   C     0.16608   0.75425   0.25322   0.00000  Uiso   1.00
C575   C     0.19260   0.83389   0.14996   0.00000  Uiso   1.00
C576   C     0.26098   0.79751   0.01448   0.00000  Uiso   1.00
C577   C     0.20748   0.83060   0.09243   0.00000  Uiso   1.00
C578   C     0.08084   0.85010   0.43310   0.00000  Uiso   1.00
C579   C     0.06499   0.85093   0.48664   0.00000  Uiso   1.00
C580   C     0.09528   0.83486   0.01373   0.00000  Uiso   1.00
Cu581  Cu    0.11978   0.83333   0.25000   0.00000  Uiso   1.00
Cu582  Cu    0.21355   0.83334   0.25000   0.00000  Uiso   1.00
H583   H     0.05696   0.86206   0.41252   0.00000  Uiso   1.00
N584   N     0.04931   0.83332   0.24999   0.00000  Uiso   1.00
N585   N     0.28402   0.83335   0.24999   0.00000  Uiso   1.00
O586   O     0.12708   0.89345   0.25001   0.00000  Uiso   1.00
O587   O     0.20627   0.89346   0.25001   0.00000  Uiso   1.00
O588   O     0.10775   0.83332   0.32549   0.00000  Uiso   1.00
O589   O     0.18694   0.83333   0.32549   0.00000  Uiso   1.00
O590   O     0.12706   0.77321   0.25000   0.00000  Uiso   1.00
O591   O     0.20625   0.77322   0.24999   0.00000  Uiso   1.00
O592   O     0.14640   0.83334   0.17451   0.00000  Uiso   1.00
O593   O     0.22559   0.83335   0.17451   0.00000  Uiso   1.00
O594   O     0.29118   0.81267   0.08520   0.00000  Uiso   1.00
H595   H     0.29218   0.83981   0.10239   0.00000  Uiso   1.00
O596   O     0.24956   0.70562   0.25405   0.00000  Uiso   1.00
C597   C     0.26508   0.68934   0.29437   0.00000  Uiso   1.00
H598   H     0.28446   0.71317   0.31008   0.00000  Uiso   1.00
H599   H     0.29085   0.99685   0.27914   0.00000  Uiso   1.00
H600   H     0.23496   0.67923   0.32706   0.00000  Uiso   1.00
O601   O     0.07832   0.71084   0.28887   0.00000  Uiso   1.00
C602   C     0.05407   0.71160   0.25065   0.00000  Uiso   1.00
H603   H     0.07844   0.71676   0.21151   0.00000  Uiso   1.00
H604   H     0.02734   0.73721   0.26164   0.00000  Uiso   1.00
H605   H     0.03490   0.68289   0.24890   0.00000  Uiso   1.00
O606   O     0.07765   0.96101   0.28402   0.00000  Uiso   1.00
H607   H     0.07118   0.94897   0.25246   0.00000  Uiso   1.00
O608   O     0.26258   0.87415   0.32783   0.00000  Uiso   1.00
C609   C     0.26945   0.91669   0.32728   0.00000  Uiso   1.00
H610   H     0.29136   0.92722   0.28930   0.00000  Uiso   1.00
H611   H     0.28657   0.92629   0.35761   0.00000  Uiso   1.00
H612   H     0.23359   0.93244   0.33673   0.00000  Uiso   1.00
O613   O     0.02397   0.87414   0.32945   0.00000  Uiso   1.00
H614   H     0.05602   0.88581   0.31638   0.00000  Uiso   1.00
O615   O     0.06763   0.79343   0.17003   0.00000  Uiso   1.00
H616   H     0.09294   0.78110   0.18264   0.00000  Uiso   1.00
O617   O     0.30493   0.79241   0.17264   0.00000  Uiso   1.00
C618   C     0.31509   0.75007   0.17018   0.00000  Uiso   1.00
H619   H     0.01603   0.74198   0.14060   0.00000  Uiso   1.00
H620   H     0.28600   0.73382   0.15889   0.00000  Uiso   1.00
H621   H     0.31761   0.73853   0.20696   0.00000  Uiso   1.00
O622   O     0.27787   0.76950   0.40969   0.00000  Uiso   1.00
H623   H     0.28291   0.77197   0.37214   0.00000  Uiso   1.00
O624   O     0.30475   0.77787   0.49193   0.00000  Uiso   1.00
H625   H     0.29737   0.74910   0.48500   0.00000  Uiso   1.00
O626   O     0.13544   0.86628   0.08641   0.00000  Uiso   1.00
H627   H     0.14401   0.88510   0.11189   0.00000  Uiso   1.00
O628   O     0.07420   0.81845   0.06078   0.00000  Uiso   1.00
C629   C     0.07184   0.77552   0.05299   0.00000  Uiso   1.00
H630   H     0.08826   0.76010   0.07975   0.00000  Uiso   1.00
H631   H     0.09072   0.76251   0.01340   0.00000  Uiso   1.00
H632   H     0.03362   0.76706   0.06089   0.00000  Uiso   1.00
O633   O     0.01784   0.86309   0.01123   0.00000  Uiso   1.00
C634   C     0.01781   0.89929   0.04130   0.00000  Uiso   1.00
H635   H     0.03867   0.92352   0.01766   0.00000  Uiso   1.00
H636   H     0.03194   0.89353   0.07460   0.00000  Uiso   1.00
H637   H     0.31335   0.91090   0.05710   0.00000  Uiso   1.00
O638   O     0.19803   0.76839   0.36820   0.00000  Uiso   1.00
H639   H     0.21431   0.74212   0.37022   0.00000  Uiso   1.00
O640   O     0.25296   0.95713   0.22123   0.00000  Uiso   1.00
C641   C     0.26744   0.95700   0.16690   0.00000  Uiso   1.00
H642   H     0.30272   0.94038   0.15241   0.00000  Uiso   1.00
H643   H     0.27247   0.98856   0.15309   0.00000  Uiso   1.00
H644   H     0.24126   0.94074   0.15040   0.00000  Uiso   1.00
C645   C     0.49966   0.91249   0.24989   0.00000  Uiso   1.00
C646   C     0.47807   0.82654   0.48805   0.00000  Uiso   1.00
C647   C     0.49040   0.81808   0.43434   0.00000  Uiso   1.00
C648   C     0.51345   0.82136   0.01483   0.00000  Uiso   1.00
C649   C     0.55840   0.80140   0.48852   0.00000  Uiso   1.00
C650   C     0.56695   0.78711   0.43652   0.00000  Uiso   1.00
C651   C     0.53079   0.79230   0.41156   0.00000  Uiso   1.00
C652   C     0.50662   0.83864   0.06558   0.00000  Uiso   1.00
C653   C     0.58646   0.81398   0.06452   0.00000  Uiso   1.00
C654   C     0.45921   0.83240   0.40631   0.00000  Uiso   1.00
C655   C     0.54238   0.97794   0.23929   0.00000  Uiso   1.00
C656   C     0.47426   0.83270   0.34961   0.00000  Uiso   1.00
C657   C     0.54171   0.68667   0.25015   0.00000  Uiso   1.00
C658   C     0.49865   0.70953   0.25768   0.00000  Uiso   1.00
C659   C     0.45464   0.68907   0.26932   0.00000  Uiso   1.00
C660   C     0.45453   0.97976   0.26740   0.00000  Uiso   1.00
C661   C     0.49864   0.95719   0.25085   0.00000  Uiso   1.00
C662   C     0.63105   0.85405   0.28825   0.00000  Uiso   1.00
C663   C     0.34699   0.85369   0.28869   0.00000  Uiso   1.00
C664   C     0.36819   0.81301   0.21134   0.00000  Uiso   1.00
C665   C     0.65195   0.81229   0.21210   0.00000  Uiso   1.00
C666   C     0.49942   0.75425   0.25322   0.00000  Uiso   1.00
C667   C     0.52593   0.83389   0.14996   0.00000  Uiso   1.00
C668   C     0.59431   0.79751   0.01448   0.00000  Uiso   1.00
C669   C     0.54081   0.83060   0.09243   0.00000  Uiso   1.00
C670   C     0.41417   0.85010   0.43310   0.00000  Uiso   1.00
C671   C     0.39832   0.85093   0.48664   0.00000  Uiso   1.00
C672   C     0.42861   0.83486   0.01373   0.00000  Uiso   1.00
Cu673  Cu    0.45311   0.83333   0.25000   0.00000  Uiso   1.00
Cu674  Cu    0.54689   0.83334   0.25000   0.00000  Uiso   1.00
H675   H     0.39029   0.86206   0.41252   0.00000  Uiso   1.00
N676   N     0.38265   0.83332   0.24999   0.00000  Uiso   1.00
N677   N     0.61735   0.83335   0.24999   0.00000  Uiso   1.00
O678   O     0.46042   0.89345   0.25001   0.00000  Uiso   1.00
O679   O     0.53961   0.89346   0.25001   0.00000  Uiso   1.00
O680   O     0.44108   0.83332   0.32549   0.00000  Uiso   1.00
O681   O     0.52027   0.83333   0.32549   0.00000  Uiso   1.00
O682   O     0.46039   0.77321   0.25000   0.00000  Uiso   1.00
O683   O     0.53958   0.77322   0.24999   0.00000  Uiso   1.00
O684   O     0.47973   0.83334   0.17451   0.00000  Uiso   1.00
O685   O     0.55892   0.83335   0.17451   0.00000  Uiso   1.00
O686   O     0.62451   0.81267   0.08520   0.00000  Uiso   1.00
H687   H     0.62551   0.83981   0.10239   0.00000  Uiso   1.00
O688   O     0.58290   0.70562   0.25405   0.00000  Uiso   1.00
C689   C     0.59841   0.68934   0.29437   0.00000  Uiso   1.00
H690   H     0.61779   0.71317   0.31008   0.00000  Uiso   1.00
H691   H     0.62418   0.99685   0.27914   0.00000  Uiso   1.00
H692   H     0.56829   0.67923   0.32706   0.00000  Uiso   1.00
O693   O     0.41165   0.71084   0.28887   0.00000  Uiso   1.00
C694   C     0.38740   0.71160   0.25065   0.00000  Uiso   1.00
H695   H     0.41177   0.71676   0.21151   0.00000  Uiso   1.00
H696   H     0.36067   0.73721   0.26164   0.00000  Uiso   1.00
H697   H     0.36823   0.68289   0.24890   0.00000  Uiso   1.00
O698   O     0.41098   0.96101   0.28402   0.00000  Uiso   1.00
H699   H     0.40452   0.94897   0.25246   0.00000  Uiso   1.00
O700   O     0.59591   0.87415   0.32783   0.00000  Uiso   1.00
C701   C     0.60278   0.91669   0.32728   0.00000  Uiso   1.00
H702   H     0.62469   0.92722   0.28930   0.00000  Uiso   1.00
H703   H     0.61991   0.92629   0.35761   0.00000  Uiso   1.00
H704   H     0.56692   0.93244   0.33673   0.00000  Uiso   1.00
O705   O     0.35731   0.87414   0.32945   0.00000  Uiso   1.00
H706   H     0.38935   0.88581   0.31638   0.00000  Uiso   1.00
O707   O     0.40096   0.79343   0.17003   0.00000  Uiso   1.00
H708   H     0.42627   0.78110   0.18264   0.00000  Uiso   1.00
O709   O     0.63826   0.79241   0.17264   0.00000  Uiso   1.00
C710   C     0.64843   0.75007   0.17018   0.00000  Uiso   1.00
H711   H     0.34936   0.74198   0.14060   0.00000  Uiso   1.00
H712   H     0.61933   0.73382   0.15889   0.00000  Uiso   1.00
H713   H     0.65094   0.73853   0.20696   0.00000  Uiso   1.00
O714   O     0.61120   0.76950   0.40969   0.00000  Uiso   1.00
H715   H     0.61624   0.77197   0.37214   0.00000  Uiso   1.00
O716   O     0.63808   0.77787   0.49193   0.00000  Uiso   1.00
H717   H     0.63071   0.74910   0.48500   0.00000  Uiso   1.00
O718   O     0.46878   0.86628   0.08641   0.00000  Uiso   1.00
H719   H     0.47734   0.88510   0.11189   0.00000  Uiso   1.00
O720   O     0.40754   0.81845   0.06078   0.00000  Uiso   1.00
C721   C     0.40518   0.77552   0.05299   0.00000  Uiso   1.00
H722   H     0.42159   0.76010   0.07975   0.00000  Uiso   1.00
H723   H     0.42405   0.76251   0.01340   0.00000  Uiso   1.00
H724   H     0.36695   0.76706   0.06089   0.00000  Uiso   1.00
O725   O     0.35117   0.86309   0.01123   0.00000  Uiso   1.00
C726   C     0.35114   0.89929   0.04130   0.00000  Uiso   1.00
H727   H     0.37200   0.92352   0.01766   0.00000  Uiso   1.00
H728   H     0.36527   0.89353   0.07460   0.00000  Uiso   1.00
H729   H     0.64668   0.91090   0.05710   0.00000  Uiso   1.00
O730   O     0.53136   0.76839   0.36820   0.00000  Uiso   1.00
H731   H     0.54765   0.74212   0.37022   0.00000  Uiso   1.00
O732   O     0.58630   0.95713   0.22123   0.00000  Uiso   1.00
C733   C     0.60078   0.95700   0.16690   0.00000  Uiso   1.00
H734   H     0.63605   0.94038   0.15241   0.00000  Uiso   1.00
H735   H     0.60580   0.98856   0.15309   0.00000  Uiso   1.00
H736   H     0.57459   0.94074   0.15040   0.00000  Uiso   1.00
C737   C     0.83299   0.91249   0.24989   0.00000  Uiso   1.00
C738   C     0.81140   0.82654   0.48805   0.00000  Uiso   1.00
C739   C     0.82374   0.81808   0.43434   0.00000  Uiso   1.00
C740   C     0.84679   0.82136   0.01483   0.00000  Uiso   1.00
C741   C     0.89174   0.80140   0.48852   0.00000  Uiso   1.00
C742   C     0.90028   0.78711   0.43652   0.00000  Uiso   1.00
C743   C     0.86412   0.79230   0.41156   0.00000  Uiso   1.00
C744   C     0.83996   0.83864   0.06558   0.00000  Uiso   1.00
C745   C     0.91979   0.81398   0.06452   0.00000  Uiso   1.00
C746   C     0.79255   0.83240   0.40631   0.00000  Uiso   1.00
C747   C     0.87571   0.97794   0.23929   0.00000  Uiso   1.00
C748   C     0.80759   0.83270   0.34961   0.00000  Uiso   1.00
C749   C     0.87505   0.68667   0.25015   0.00000  Uiso   1.00
C750   C     0.83199   0.70953   0.25768   0.00000  Uiso   1.00
C751   C     0.78798   0.68907   0.26932   0.00000  Uiso   1.00
C752   C     0.78786   0.97976   0.26740   0.00000  Uiso   1.00
C753   C     0.83197   0.95719   0.25085   0.00000  Uiso   1.00
C754   C     0.96438   0.85405   0.28825   0.00000  Uiso   1.00
C755   C     0.68033   0.85369   0.28869   0.00000  Uiso   1.00
C756   C     0.70152   0.81301   0.21134   0.00000  Uiso   1.00
C757   C     0.98529   0.81229   0.21210   0.00000  Uiso   1.00
C758   C     0.83275   0.75425   0.25322   0.00000  Uiso   1.00
C759   C     0.85926   0.83389   0.14996   0.00000  Uiso   1.00
C760   C     0.92765   0.79751   0.01448   0.00000  Uiso   1.00
C761   C     0.87415   0.83060   0.09243   0.00000  Uiso   1.00
C762   C     0.74750   0.85010   0.43310   0.00000  Uiso   1.00
C763   C     0.73166   0.85093   0.48664   0.00000  Uiso   1.00
C764   C     0.76194   0.83486   0.01373   0.00000  Uiso   1.00
Cu765  Cu    0.78645   0.83333   0.25000   0.00000  Uiso   1.00
Cu766  Cu    0.88022   0.83334   0.25000   0.00000  Uiso   1.00
H767   H     0.72362   0.86206   0.41252   0.00000  Uiso   1.00
N768   N     0.71598   0.83332   0.24999   0.00000  Uiso   1.00
N769   N     0.95069   0.83335   0.24999   0.00000  Uiso   1.00
O770   O     0.79375   0.89345   0.25001   0.00000  Uiso   1.00
O771   O     0.87294   0.89346   0.25001   0.00000  Uiso   1.00
O772   O     0.77441   0.83332   0.32549   0.00000  Uiso   1.00
O773   O     0.85360   0.83333   0.32549   0.00000  Uiso   1.00
O774   O     0.79373   0.77321   0.25000   0.00000  Uiso   1.00
O775   O     0.87292   0.77322   0.24999   0.00000  Uiso   1.00
O776   O     0.81306   0.83334   0.17451   0.00000  Uiso   1.00
O777   O     0.89225   0.83335   0.17451   0.00000  Uiso   1.00
O778   O     0.95785   0.81267   0.08520   0.00000  Uiso   1.00
H779   H     0.95884   0.83981   0.10239   0.00000  Uiso   1.00
O780   O     0.91623   0.70562   0.25405   0.00000  Uiso   1.00
C781   C     0.93174   0.68934   0.29437   0.00000  Uiso   1.00
H782   H     0.95113   0.71317   0.31008   0.00000  Uiso   1.00
H783   H     0.95751   0.99685   0.27914   0.00000  Uiso   1.00
H784   H     0.90162   0.67923   0.32706   0.00000  Uiso   1.00
O785   O     0.74499   0.71084   0.28887   0.00000  Uiso   1.00
C786   C     0.72073   0.71160   0.25065   0.00000  Uiso   1.00
H787   H     0.74511   0.71676   0.21151   0.00000  Uiso   1.00
H788   H     0.69401   0.73721   0.26164   0.00000  Uiso   1.00
H789   H     0.70156   0.68289   0.24890   0.00000  Uiso   1.00
O790   O     0.74431   0.96101   0.28402   0.00000  Uiso   1.00
H791   H     0.73785   0.94897   0.25246   0.00000  Uiso   1.00
O792   O     0.92925   0.87415   0.32783   0.00000  Uiso   1.00
C793   C     0.93612   0.91669   0.32728   0.00000  Uiso   1.00
H794   H     0.95803   0.92722   0.28930   0.00000  Uiso   1.00
H795   H     0.95324   0.92629   0.35761   0.00000  Uiso   1.00
H796   H     0.90025   0.93244   0.33673   0.00000  Uiso   1.00
O797   O     0.69064   0.87414   0.32945   0.00000  Uiso   1.00
H798   H     0.72268   0.88581   0.31638   0.00000  Uiso   1.00
O799   O     0.73429   0.79343   0.17003   0.00000  Uiso   1.00
H800   H     0.75960   0.78110   0.18264   0.00000  Uiso   1.00
O801   O     0.97160   0.79241   0.17264   0.00000  Uiso   1.00
C802   C     0.98176   0.75007   0.17018   0.00000  Uiso   1.00
H803   H     0.68270   0.74198   0.14060   0.00000  Uiso   1.00
H804   H     0.95267   0.73382   0.15889   0.00000  Uiso   1.00
H805   H     0.98427   0.73853   0.20696   0.00000  Uiso   1.00
O806   O     0.94454   0.76950   0.40969   0.00000  Uiso   1.00
H807   H     0.94957   0.77197   0.37214   0.00000  Uiso   1.00
O808   O     0.97141   0.77787   0.49193   0.00000  Uiso   1.00
H809   H     0.96404   0.74910   0.48500   0.00000  Uiso   1.00
O810   O     0.80211   0.86628   0.08641   0.00000  Uiso   1.00
H811   H     0.81068   0.88510   0.11189   0.00000  Uiso   1.00
O812   O     0.74087   0.81845   0.06078   0.00000  Uiso   1.00
C813   C     0.73851   0.77552   0.05299   0.00000  Uiso   1.00
H814   H     0.75492   0.76010   0.07975   0.00000  Uiso   1.00
H815   H     0.75739   0.76251   0.01340   0.00000  Uiso   1.00
H816   H     0.70028   0.76706   0.06089   0.00000  Uiso   1.00
O817   O     0.68451   0.86309   0.01123   0.00000  Uiso   1.00
C818   C     0.68448   0.89929   0.04130   0.00000  Uiso   1.00
H819   H     0.70533   0.92352   0.01766   0.00000  Uiso   1.00
H820   H     0.69860   0.89353   0.07460   0.00000  Uiso   1.00
H821   H     0.98001   0.91090   0.05710   0.00000  Uiso   1.00
O822   O     0.86469   0.76839   0.36820   0.00000  Uiso   1.00
H823   H     0.88098   0.74212   0.37022   0.00000  Uiso   1.00
O824   O     0.91963   0.95713   0.22123   0.00000  Uiso   1.00
C825   C     0.93411   0.95700   0.16690   0.00000  Uiso   1.00
H826   H     0.96938   0.94038   0.15241   0.00000  Uiso   1.00
H827   H     0.93914   0.98856   0.15309   0.00000  Uiso   1.00
H828   H     0.90793   0.94074   0.15040   0.00000  Uiso   1.00
C829   C     0.16632   0.24582   0.74989   0.00000  Uiso   1.00
C830   C     0.14474   0.15988   0.98805   0.00000  Uiso   1.00
C831   C     0.15707   0.15141   0.93434   0.00000  Uiso   1.00
C832   C     0.18012   0.15470   0.51483   0.00000  Uiso   1.00
C833   C     0.22507   0.13473   0.98852   0.00000  Uiso   1.00
C834   C     0.23362   0.12044   0.93652   0.00000  Uiso   1.00
C835   C     0.19745   0.12563   0.91156   0.00000  Uiso   1.00
C836   C     0.17329   0.17197   0.56558   0.00000  Uiso   1.00
C837   C     0.25312   0.14731   0.56452   0.00000  Uiso   1.00
C838   C     0.12588   0.16573   0.90631   0.00000  Uiso   1.00
C839   C     0.20904   0.31128   0.73929   0.00000  Uiso   1.00
C840   C     0.14093   0.16603   0.84961   0.00000  Uiso   1.00
C841   C     0.20838   0.02001   0.75015   0.00000  Uiso   1.00
C842   C     0.16532   0.04286   0.75768   0.00000  Uiso   1.00
C843   C     0.12131   0.02241   0.76932   0.00000  Uiso   1.00
C844   C     0.12120   0.31310   0.76740   0.00000  Uiso   1.00
C845   C     0.16531   0.29052   0.75085   0.00000  Uiso   1.00
C846   C     0.29772   0.18738   0.78825   0.00000  Uiso   1.00
C847   C     0.01366   0.18703   0.78869   0.00000  Uiso   1.00
C848   C     0.03486   0.14635   0.71134   0.00000  Uiso   1.00
C849   C     0.31862   0.14562   0.71210   0.00000  Uiso   1.00
C850   C     0.16608   0.08758   0.75322   0.00000  Uiso   1.00
C851   C     0.19260   0.16722   0.64996   0.00000  Uiso   1.00
C852   C     0.26098   0.13084   0.51448   0.00000  Uiso   1.00
C853   C     0.20748   0.16393   0.59243   0.00000  Uiso   1.00
C854   C     0.08084   0.18343   0.93310   0.00000  Uiso   1.00
C855   C     0.06499   0.18427   0.98664   0.00000  Uiso   1.00
C856   C     0.09528   0.16820   0.51373   0.00000  Uiso   1.00
Cu857  Cu    0.11978   0.16666   0.75000   0.00000  Uiso   1.00
Cu858  Cu    0.21355   0.16667   0.75000   0.00000  Uiso   1.00
H859   H     0.05696   0.19540   0.91252   0.00000  Uiso   1.00
N860   N     0.04931   0.16666   0.74999   0.00000  Uiso   1.00
N861   N     0.28402   0.16669   0.74999   0.00000  Uiso   1.00
O862   O     0.12708   0.22678   0.75001   0.00000  Uiso   1.00
O863   O     0.20627   0.22679   0.75001   0.00000  Uiso   1.00
O864   O     0.10775   0.16665   0.82549   0.00000  Uiso   1.00
O865   O     0.18694   0.16666   0.82549   0.00000  Uiso   1.00
O866   O     0.12706   0.10654   0.75000   0.00000  Uiso   1.00
O867   O     0.20625   0.10655   0.74999   0.00000  Uiso   1.00
O868   O     0.14640   0.16667   0.67451   0.00000  Uiso   1.00
O869   O     0.22559   0.16668   0.67451   0.00000  Uiso   1.00
O870   O     0.29118   0.14601   0.58520   0.00000  Uiso   1.00
H871   H     0.29218   0.17314   0.60239   0.00000  Uiso   1.00
O872   O     0.24956   0.03895   0.75405   0.00000  Uiso   1.00
C873   C     0.26508   0.02268   0.79437   0.00000  Uiso   1.00
H874   H     0.28446   0.04650   0.81008   0.00000  Uiso   1.00
H875   H     0.29085   0.33019   0.77914   0.00000  Uiso   1.00
H876   H     0.23496   0.01257   0.82706   0.00000  Uiso   1.00
O877   O     0.07832   0.04417   0.78887   0.00000  Uiso   1.00
C878   C     0.05407   0.04494   0.75065   0.00000  Uiso   1.00
H879   H     0.07844   0.05009   0.71151   0.00000  Uiso   1.00
H880   H     0.02734   0.07055   0.76164   0.00000  Uiso   1.00
H881   H     0.03490   0.01622   0.74890   0.00000  Uiso   1.00
O882   O     0.07765   0.29435   0.78402   0.00000  Uiso   1.00
H883   H     0.07118   0.28230   0.75246   0.00000  Uiso   1.00
O884   O     0.26258   0.20748   0.82783   0.00000  Uiso   1.00
C885   C     0.26945   0.25003   0.82728   0.00000  Uiso   1.00
H886   H     0.29136   0.26055   0.78930   0.00000  Uiso   1.00
H887   H     0.28657   0.25963   0.85761   0.00000  Uiso   1.00
H888   H     0.23359   0.26577   0.83673   0.00000  Uiso   1.00
O889   O     0.02397   0.20747   0.82945   0.00000  Uiso   1.00
H890   H     0.05602   0.21914   0.81638   0.00000  Uiso   1.00
O891   O     0.06763   0.12677   0.67003   0.00000  Uiso   1.00
H892   H     0.09294   0.11443   0.68264   0.00000  Uiso   1.00
O893   O     0.30493   0.12575   0.67264   0.00000  Uiso   1.00
C894   C     0.31509   0.08340   0.67018   0.00000  Uiso   1.00
H895   H     0.01603   0.07531   0.64060   0.00000  Uiso   1.00
H896   H     0.28600   0.06715   0.65889   0.00000  Uiso   1.00
H897   H     0.31761   0.07186   0.70696   0.00000  Uiso   1.00
O898   O     0.27787   0.10283   0.90969   0.00000  Uiso   1.00
H899   H     0.28291   0.10530   0.87214   0.00000  Uiso   1.00
O900   O     0.30475   0.11120   0.99193   0.00000  Uiso   1.00
H901   H     0.29737   0.08244   0.98500   0.00000  Uiso   1.00
O902   O     0.13544   0.19961   0.58641   0.00000  Uiso   1.00
H903   H     0.14401   0.21844   0.61189   0.00000  Uiso   1.00
O904   O     0.07420   0.15179   0.56078   0.00000  Uiso   1.00
C905   C     0.07184   0.10885   0.55299   0.00000  Uiso   1.00
H906   H     0.08826   0.09343   0.57975   0.00000  Uiso   1.00
H907   H     0.09072   0.09584   0.51340   0.00000  Uiso   1.00
H908   H     0.03362   0.10039   0.56089   0.00000  Uiso   1.00
O909   O     0.01784   0.19642   0.51123   0.00000  Uiso   1.00
C910   C     0.01781   0.23263   0.54130   0.00000  Uiso   1.00
H911   H     0.03867   0.25685   0.51766   0.00000  Uiso   1.00
H912   H     0.03194   0.22687   0.57460   0.00000  Uiso   1.00
H913   H     0.31335   0.24423   0.55710   0.00000  Uiso   1.00
O914   O     0.19803   0.10173   0.86820   0.00000  Uiso   1.00
H915   H     0.21431   0.07545   0.87022   0.00000  Uiso   1.00
O916   O     0.25296   0.29046   0.72123   0.00000  Uiso   1.00
C917   C     0.26744   0.29033   0.66690   0.00000  Uiso   1.00
H918   H     0.30272   0.27372   0.65241   0.00000  Uiso   1.00
H919   H     0.27247   0.32190   0.65309   0.00000  Uiso   1.00
H920   H     0.24126   0.27408   0.65040   0.00000  Uiso   1.00
C921   C     0.49966   0.24582   0.74989   0.00000  Uiso   1.00
C922   C     0.47807   0.15988   0.98805   0.00000  Uiso   1.00
C923   C     0.49040   0.15141   0.93434   0.00000  Uiso   1.00
C924   C     0.51345   0.15470   0.51483   0.00000  Uiso   1.00
C925   C     0.55840   0.13473   0.98852   0.00000  Uiso   1.00
C926   C     0.56695   0.12044   0.93652   0.00000  Uiso   1.00
C927   C     0.53079   0.12563   0.91156   0.00000  Uiso   1.00
C928   C     0.50662   0.17197   0.56558   0.00000  Uiso   1.00
C929   C     0.58646   0.14731   0.56452   0.00000  Uiso   1.00
C930   C     0.45921   0.16573   0.90631   0.00000  Uiso   1.00
C931   C     0.54238   0.31128   0.73929   0.00000  Uiso   1.00
C932   C     0.47426   0.16603   0.84961   0.00000  Uiso   1.00
C933   C     0.54171   0.02001   0.75015   0.00000  Uiso   1.00
C934   C     0.49865   0.04286   0.75768   0.00000  Uiso   1.00
C935   C     0.45464   0.02241   0.76932   0.00000  Uiso   1.00
C936   C     0.45453   0.31310   0.76740   0.00000  Uiso   1.00
C937   C     0.49864   0.29052   0.75085   0.00000  Uiso   1.00
C938   C     0.63105   0.18738   0.78825   0.00000  Uiso   1.00
C939   C     0.34699   0.18703   0.78869   0.00000  Uiso   1.00
C940   C     0.36819   0.14635   0.71134   0.00000  Uiso   1.00
C941   C     0.65195   0.14562   0.71210   0.00000  Uiso   1.00
C942   C     0.49942   0.08758   0.75322   0.00000  Uiso   1.00
C943   C     0.52593   0.16722   0.64996   0.00000  Uiso   1.00
C944   C     0.59431   0.13084   0.51448   0.00000  Uiso   1.00
C945   C     0.54081   0.16393   0.59243   0.00000  Uiso   1.00
C946   C     0.41417   0.18343   0.93310   0.00000  Uiso   1.00
C947   C     0.39832   0.18427   0.98664   0.00000  Uiso   1.00
C948   C     0.42861   0.16820   0.51373   0.00000  Uiso   1.00
Cu949  Cu    0.45311   0.16666   0.75000   0.00000  Uiso   1.00
Cu950  Cu    0.54689   0.16667   0.75000   0.00000  Uiso   1.00
H951   H     0.39029   0.19540   0.91252   0.00000  Uiso   1.00
N952   N     0.38265   0.16666   0.74999   0.00000  Uiso   1.00
N953   N     0.61735   0.16669   0.74999   0.00000  Uiso   1.00
O954   O     0.46042   0.22678   0.75001   0.00000  Uiso   1.00
O955   O     0.53961   0.22679   0.75001   0.00000  Uiso   1.00
O956   O     0.44108   0.16665   0.82549   0.00000  Uiso   1.00
O957   O     0.52027   0.16666   0.82549   0.00000  Uiso   1.00
O958   O     0.46039   0.10654   0.75000   0.00000  Uiso   1.00
O959   O     0.53958   0.10655   0.74999   0.00000  Uiso   1.00
O960   O     0.47973   0.16667   0.67451   0.00000  Uiso   1.00
O961   O     0.55892   0.16668   0.67451   0.00000  Uiso   1.00
O962   O     0.62451   0.14601   0.58520   0.00000  Uiso   1.00
H963   H     0.62551   0.17314   0.60239   0.00000  Uiso   1.00
O964   O     0.58290   0.03895   0.75405   0.00000  Uiso   1.00
C965   C     0.59841   0.02268   0.79437   0.00000  Uiso   1.00
H966   H     0.61779   0.04650   0.81008   0.00000  Uiso   1.00
H967   H     0.62418   0.33019   0.77914   0.00000  Uiso   1.00
H968   H     0.56829   0.01257   0.82706   0.00000  Uiso   1.00
O969   O     0.41165   0.04417   0.78887   0.00000  Uiso   1.00
C970   C     0.38740   0.04494   0.75065   0.00000  Uiso   1.00
H971   H     0.41177   0.05009   0.71151   0.00000  Uiso   1.00
H972   H     0.36067   0.07055   0.76164   0.00000  Uiso   1.00
H973   H     0.36823   0.01622   0.74890   0.00000  Uiso   1.00
O974   O     0.41098   0.29435   0.78402   0.00000  Uiso   1.00
H975   H     0.40452   0.28230   0.75246   0.00000  Uiso   1.00
O976   O     0.59591   0.20748   0.82783   0.00000  Uiso   1.00
C977   C     0.60278   0.25003   0.82728   0.00000  Uiso   1.00
H978   H     0.62469   0.26055   0.78930   0.00000  Uiso   1.00
H979   H     0.61991   0.25963   0.85761   0.00000  Uiso   1.00
H980   H     0.56692   0.26577   0.83673   0.00000  Uiso   1.00
O981   O     0.35731   0.20747   0.82945   0.00000  Uiso   1.00
H982   H     0.38935   0.21914   0.81638   0.00000  Uiso   1.00
O983   O     0.40096   0.12677   0.67003   0.00000  Uiso   1.00
H984   H     0.42627   0.11443   0.68264   0.00000  Uiso   1.00
O985   O     0.63826   0.12575   0.67264   0.00000  Uiso   1.00
C986   C     0.64843   0.08340   0.67018   0.00000  Uiso   1.00
H987   H     0.34936   0.07531   0.64060   0.00000  Uiso   1.00
H988   H     0.61933   0.06715   0.65889   0.00000  Uiso   1.00
H989   H     0.65094   0.07186   0.70696   0.00000  Uiso   1.00
O990   O     0.61120   0.10283   0.90969   0.00000  Uiso   1.00
H991   H     0.61624   0.10530   0.87214   0.00000  Uiso   1.00
O992   O     0.63808   0.11120   0.99193   0.00000  Uiso   1.00
H993   H     0.63071   0.08244   0.98500   0.00000  Uiso   1.00
O994   O     0.46878   0.19961   0.58641   0.00000  Uiso   1.00
H995   H     0.47734   0.21844   0.61189   0.00000  Uiso   1.00
O996   O     0.40754   0.15179   0.56078   0.00000  Uiso   1.00
C997   C     0.40518   0.10885   0.55299   0.00000  Uiso   1.00
H998   H     0.42159   0.09343   0.57975   0.00000  Uiso   1.00
H999   H     0.42405   0.09584   0.51340   0.00000  Uiso   1.00
H1000  H     0.36695   0.10039   0.56089   0.00000  Uiso   1.00
O1001  O     0.35117   0.19642   0.51123   0.00000  Uiso   1.00
C1002  C     0.35114   0.23263   0.54130   0.00000  Uiso   1.00
H1003  H     0.37200   0.25685   0.51766   0.00000  Uiso   1.00
H1004  H     0.36527   0.22687   0.57460   0.00000  Uiso   1.00
H1005  H     0.64668   0.24423   0.55710   0.00000  Uiso   1.00
O1006  O     0.53136   0.10173   0.86820   0.00000  Uiso   1.00
H1007  H     0.54765   0.07545   0.87022   0.00000  Uiso   1.00
O1008  O     0.58630   0.29046   0.72123   0.00000  Uiso   1.00
C1009  C     0.60078   0.29033   0.66690   0.00000  Uiso   1.00
H1010  H     0.63605   0.27372   0.65241   0.00000  Uiso   1.00
H1011  H     0.60580   0.32190   0.65309   0.00000  Uiso   1.00
H1012  H     0.57459   0.27408   0.65040   0.00000  Uiso   1.00
C1013  C     0.83299   0.24582   0.74989   0.00000  Uiso   1.00
C1014  C     0.81140   0.15988   0.98805   0.00000  Uiso   1.00
C1015  C     0.82374   0.15141   0.93434   0.00000  Uiso   1.00
C1016  C     0.84679   0.15470   0.51483   0.00000  Uiso   1.00
C1017  C     0.89174   0.13473   0.98852   0.00000  Uiso   1.00
C1018  C     0.90028   0.12044   0.93652   0.00000  Uiso   1.00
C1019  C     0.86412   0.12563   0.91156   0.00000  Uiso   1.00
C1020  C     0.83996   0.17197   0.56558   0.00000  Uiso   1.00
C1021  C     0.91979   0.14731   0.56452   0.00000  Uiso   1.00
C1022  C     0.79255   0.16573   0.90631   0.00000  Uiso   1.00
C1023  C     0.87571   0.31128   0.73929   0.00000  Uiso   1.00
C1024  C     0.80759   0.16603   0.84961   0.00000  Uiso   1.00
C1025  C     0.87505   0.02001   0.75015   0.00000  Uiso   1.00
C1026  C     0.83199   0.04286   0.75768   0.00000  Uiso   1.00
C1027  C     0.78798   0.02241   0.76932   0.00000  Uiso   1.00
C1028  C     0.78786   0.31310   0.76740   0.00000  Uiso   1.00
C1029  C     0.83197   0.29052   0.75085   0.00000  Uiso   1.00
C1030  C     0.96438   0.18738   0.78825   0.00000  Uiso   1.00
C1031  C     0.68033   0.18703   0.78869   0.00000  Uiso   1.00
C1032  C     0.70152   0.14635   0.71134   0.00000  Uiso   1.00
C1033  C     0.98529   0.14562   0.71210   0.00000  Uiso   1.00
C1034  C     0.83275   0.08758   0.75322   0.00000  Uiso   1.00
C1035  C     0.85926   0.16722   0.64996   0.00000  Uiso   1.00
C1036  C     0.92765   0.13084   0.51448   0.00000  Uiso   1.00
C1037  C     0.87415   0.16393   0.59243   0.00000  Uiso   1.00
C1038  C     0.74750   0.18343   0.93310   0.00000  Uiso   1.00
C1039  C     0.73166   0.18427   0.98664   0.00000  Uiso   1.00
C1040  C     0.76194   0.16820   0.51373   0.00000  Uiso   1.00
Cu1041 Cu    0.78645   0.16666   0.75000   0.00000  Uiso   1.00
Cu1042 Cu    0.88022   0.16667   0.75000   0.00000  Uiso   1.00
H1043  H     0.72362   0.19540   0.91252   0.00000  Uiso   1.00
N1044  N     0.71598   0.16666   0.74999   0.00000  Uiso   1.00
N1045  N     0.95069   0.16669   0.74999   0.00000  Uiso   1.00
O1046  O     0.79375   0.22678   0.75001   0.00000  Uiso   1.00
O1047  O     0.87294   0.22679   0.75001   0.00000  Uiso   1.00
O1048  O     0.77441   0.16665   0.82549   0.00000  Uiso   1.00
O1049  O     0.85360   0.16666   0.82549   0.00000  Uiso   1.00
O1050  O     0.79373   0.10654   0.75000   0.00000  Uiso   1.00
O1051  O     0.87292   0.10655   0.74999   0.00000  Uiso   1.00
O1052  O     0.81306   0.16667   0.67451   0.00000  Uiso   1.00
O1053  O     0.89225   0.16668   0.67451   0.00000  Uiso   1.00
O1054  O     0.95785   0.14601   0.58520   0.00000  Uiso   1.00
H1055  H     0.95884   0.17314   0.60239   0.00000  Uiso   1.00
O1056  O     0.91623   0.03895   0.75405   0.00000  Uiso   1.00
C1057  C     0.93174   0.02268   0.79437   0.00000  Uiso   1.00
H1058  H     0.95113   0.04650   0.81008   0.00000  Uiso   1.00
H1059  H     0.95751   0.33019   0.77914   0.00000  Uiso   1.00
H1060  H     0.90162   0.01257   0.82706   0.00000  Uiso   1.00
O1061  O     0.74499   0.04417   0.78887   0.00000  Uiso   1.00
C1062  C     0.72073   0.04494   0.75065   0.00000  Uiso   1.00
H1063  H     0.74511   0.05009   0.71151   0.00000  Uiso   1.00
H1064  H     0.69401   0.07055   0.76164   0.00000  Uiso   1.00
H1065  H     0.70156   0.01622   0.74890   0.00000  Uiso   1.00
O1066  O     0.74431   0.29435   0.78402   0.00000  Uiso   1.00
H1067  H     0.73785   0.28230   0.75246   0.00000  Uiso   1.00
O1068  O     0.92925   0.20748   0.82783   0.00000  Uiso   1.00
C1069  C     0.93612   0.25003   0.82728   0.00000  Uiso   1.00
H1070  H     0.95803   0.26055   0.78930   0.00000  Uiso   1.00
H1071  H     0.95324   0.25963   0.85761   0.00000  Uiso   1.00
H1072  H     0.90025   0.26577   0.83673   0.00000  Uiso   1.00
O1073  O     0.69064   0.20747   0.82945   0.00000  Uiso   1.00
H1074  H     0.72268   0.21914   0.81638   0.00000  Uiso   1.00
O1075  O     0.73429   0.12677   0.67003   0.00000  Uiso   1.00
H1076  H     0.75960   0.11443   0.68264   0.00000  Uiso   1.00
O1077  O     0.97160   0.12575   0.67264   0.00000  Uiso   1.00
C1078  C     0.98176   0.08340   0.67018   0.00000  Uiso   1.00
H1079  H     0.68270   0.07531   0.64060   0.00000  Uiso   1.00
H1080  H     0.95267   0.06715   0.65889   0.00000  Uiso   1.00
H1081  H     0.98427   0.07186   0.70696   0.00000  Uiso   1.00
O1082  O     0.94454   0.10283   0.90969   0.00000  Uiso   1.00
H1083  H     0.94957   0.10530   0.87214   0.00000  Uiso   1.00
O1084  O     0.97141   0.11120   0.99193   0.00000  Uiso   1.00
H1085  H     0.96404   0.08244   0.98500   0.00000  Uiso   1.00
O1086  O     0.80211   0.19961   0.58641   0.00000  Uiso   1.00
H1087  H     0.81068   0.21844   0.61189   0.00000  Uiso   1.00
O1088  O     0.74087   0.15179   0.56078   0.00000  Uiso   1.00
C1089  C     0.73851   0.10885   0.55299   0.00000  Uiso   1.00
H1090  H     0.75492   0.09343   0.57975   0.00000  Uiso   1.00
H1091  H     0.75739   0.09584   0.51340   0.00000  Uiso   1.00
H1092  H     0.70028   0.10039   0.56089   0.00000  Uiso   1.00
O1093  O     0.68451   0.19642   0.51123   0.00000  Uiso   1.00
C1094  C     0.68448   0.23263   0.54130   0.00000  Uiso   1.00
H1095  H     0.70533   0.25685   0.51766   0.00000  Uiso   1.00
H1096  H     0.69860   0.22687   0.57460   0.00000  Uiso   1.00
H1097  H     0.98001   0.24423   0.55710   0.00000  Uiso   1.00
O1098  O     0.86469   0.10173   0.86820   0.00000  Uiso   1.00
H1099  H     0.88098   0.07545   0.87022   0.00000  Uiso   1.00
O1100  O     0.91963   0.29046   0.72123   0.00000  Uiso   1.00
C1101  C     0.93411   0.29033   0.66690   0.00000  Uiso   1.00
H1102  H     0.96938   0.27372   0.65241   0.00000  Uiso   1.00
H1103  H     0.93914   0.32190   0.65309   0.00000  Uiso   1.00
H1104  H     0.90793   0.27408   0.65040   0.00000  Uiso   1.00
C1105  C     0.16632   0.57916   0.74989   0.00000  Uiso   1.00
C1106  C     0.14474   0.49321   0.98805   0.00000  Uiso   1.00
C1107  C     0.15707   0.48475   0.93434   0.00000  Uiso   1.00
C1108  C     0.18012   0.48803   0.51483   0.00000  Uiso   1.00
C1109  C     0.22507   0.46807   0.98852   0.00000  Uiso   1.00
C1110  C     0.23362   0.45377   0.93652   0.00000  Uiso   1.00
C1111  C     0.19745   0.45896   0.91156   0.00000  Uiso   1.00
C1112  C     0.17329   0.50531   0.56558   0.00000  Uiso   1.00
C1113  C     0.25312   0.48065   0.56452   0.00000  Uiso   1.00
C1114  C     0.12588   0.49906   0.90631   0.00000  Uiso   1.00
C1115  C     0.20904   0.64461   0.73929   0.00000  Uiso   1.00
C1116  C     0.14093   0.49937   0.84961   0.00000  Uiso   1.00
C1117  C     0.20838   0.35334   0.75015   0.00000  Uiso   1.00
C1118  C     0.16532   0.37619   0.75768   0.00000  Uiso   1.00
C1119  C     0.12131   0.35574   0.76932   0.00000  Uiso   1.00
C1120  C     0.12120   0.64643   0.76740   0.00000  Uiso   1.00
C1121  C     0.16531   0.62386   0.75085   0.00000  Uiso   1.00
C1122  C     0.29772   0.52072   0.78825   0.00000  Uiso   1.00
C1123  C     0.01366   0.52036   0.78869   0.00000  Uiso   1.00
C1124  C     0.03486   0.47968   0.71134   0.00000  Uiso   1.00
C1125  C     0.31862   0.47896   0.71210   0.00000  Uiso   1.00
C1126  C     0.16608   0.42092   0.75322   0.00000  Uiso   1.00
C1127  C     0.19260   0.50056   0.64996   0.00000  Uiso   1.00
C1128  C     0.26098   0.46417   0.51448   0.00000  Uiso   1.00
C1129  C     0.20748   0.49726   0.59243   0.00000  Uiso   1.00
C1130  C     0.08084   0.51677   0.93310   0.00000  Uiso   1.00
C1131  C     0.06499   0.51760   0.98664   0.00000  Uiso   1.00
C1132  C     0.09528   0.50153   0.51373   0.00000  Uiso   1.00
Cu1133 Cu    0.11978   0.49999   0.75000   0.00000  Uiso   1.00
Cu1134 Cu    0.21355   0.50001   0.75000   0.00000  Uiso   1.00
H1135  H     0.05696   0.52873   0.91252   0.00000  Uiso   1.00
N1136  N     0.04931   0.49999   0.74999   0.00000  Uiso   1.00
N1137  N     0.28402   0.50002   0.74999   0.00000  Uiso   1.00
O1138  O     0.12708   0.56011   0.75001   0.00000  Uiso   1.00
O1139  O     0.20627   0.56012   0.75001   0.00000  Uiso   1.00
O1140  O     0.10775   0.49998   0.82549   0.00000  Uiso   1.00
O1141  O     0.18694   0.49999   0.82549   0.00000  Uiso   1.00
O1142  O     0.12706   0.43988   0.75000   0.00000  Uiso   1.00
O1143  O     0.20625   0.43989   0.74999   0.00000  Uiso   1.00
O1144  O     0.14640   0.50001   0.67451   0.00000  Uiso   1.00
O1145  O     0.22559   0.50002   0.67451   0.00000  Uiso   1.00
O1146  O     0.29118   0.47934   0.58520   0.00000  Uiso   1.00
H1147  H     0.29218   0.50647   0.60239   0.00000  Uiso   1.00
O1148  O     0.24956   0.37229   0.75405   0.00000  Uiso   1.00
C1149  C     0.26508   0.35601   0.79437   0.00000  Uiso   1.00
H1150  H     0.28446   0.37984   0.81008   0.00000  Uiso   1.00
H1151  H     0.29085   0.66352   0.77914   0.00000  Uiso   1.00
H1152  H     0.23496   0.34590   0.82706   0.00000  Uiso   1.00
O1153  O     0.07832   0.37750   0.78887   0.00000  Uiso   1.00
C1154  C     0.05407   0.37827   0.75065   0.00000  Uiso   1.00
H1155  H     0.07844   0.38343   0.71151   0.00000  Uiso   1.00
H1156  H     0.02734   0.40388   0.76164   0.00000  Uiso   1.00
H1157  H     0.03490   0.34955   0.74890   0.00000  Uiso   1.00
O1158  O     0.07765   0.62768   0.78402   0.00000  Uiso   1.00
H1159  H     0.07118   0.61563   0.75246   0.00000  Uiso   1.00
O1160  O     0.26258   0.54082   0.82783   0.00000  Uiso   1.00
C1161  C     0.26945   0.58336   0.82728   0.00000  Uiso   1.00
H1162  H     0.29136   0.59389   0.78930   0.00000  Uiso   1.00
H1163  H     0.28657   0.59296   0.85761   0.00000  Uiso   1.00
H1164  H     0.23359   0.59911   0.83673   0.00000  Uiso   1.00
O1165  O     0.02397   0.54080   0.82945   0.00000  Uiso   1.00
H1166  H     0.05602   0.55247   0.81638   0.00000  Uiso   1.00
O1167  O     0.06763   0.46010   0.67003   0.00000  Uiso   1.00
H1168  H     0.09294   0.44776   0.68264   0.00000  Uiso   1.00
O1169  O     0.30493   0.45908   0.67264   0.00000  Uiso   1.00
C1170  C     0.31509   0.41673   0.67018   0.00000  Uiso   1.00
H1171  H     0.01603   0.40864   0.64060   0.00000  Uiso   1.00
H1172  H     0.28600   0.40048   0.65889   0.00000  Uiso   1.00
H1173  H     0.31761   0.40520   0.70696   0.00000  Uiso   1.00
O1174  O     0.27787   0.43617   0.90969   0.00000  Uiso   1.00
H1175  H     0.28291   0.43864   0.87214   0.00000  Uiso   1.00
O1176  O     0.30475   0.44453   0.99193   0.00000  Uiso   1.00
H1177  H     0.29737   0.41577   0.98500   0.00000  Uiso   1.00
O1178  O     0.13544   0.53294   0.58641   0.00000  Uiso   1.00
H1179  H     0.14401   0.55177   0.61189   0.00000  Uiso   1.00
O1180  O     0.07420   0.48512   0.56078   0.00000  Uiso   1.00
C1181  C     0.07184   0.44219   0.55299   0.00000  Uiso   1.00
H1182  H     0.08826   0.42676   0.57975   0.00000  Uiso   1.00
H1183  H     0.09072   0.42917   0.51340   0.00000  Uiso   1.00
H1184  H     0.03362   0.43373   0.56089   0.00000  Uiso   1.00
O1185  O     0.01784   0.52975   0.51123   0.00000  Uiso   1.00
C1186  C     0.01781   0.56596   0.54130   0.00000  Uiso   1.00
H1187  H     0.03867   0.59019   0.51766   0.00000  Uiso   1.00
H1188  H     0.03194   0.56020   0.57460   0.00000  Uiso   1.00
H1189  H     0.31335   0.57756   0.55710   0.00000  Uiso   1.00
O1190  O     0.19803   0.43506   0.86820   0.00000  Uiso   1.00
H1191  H     0.21431   0.40878   0.87022   0.00000  Uiso   1.00
O1192  O     0.25296   0.62380   0.72123   0.00000  Uiso   1.00
C1193  C     0.26744   0.62367   0.66690   0.00000  Uiso   1.00
H1194  H     0.30272   0.60705   0.65241   0.00000  Uiso   1.00
H1195  H     0.27247   0.65523   0.65309   0.00000  Uiso   1.00
H1196  H     0.24126   0.60741   0.65040   0.00000  Uiso   1.00
C1197  C     0.49966   0.57916   0.74989   0.00000  Uiso   1.00
C1198  C     0.47807   0.49321   0.98805   0.00000  Uiso   1.00
C1199  C     0.49040   0.48475   0.93434   0.00000  Uiso   1.00
C1200  C     0.51345   0.48803   0.51483   0.00000  Uiso   1.00
C1201  C     0.55840   0.46807   0.98852   0.00000  Uiso   1.00
C1202  C     0.56695   0.45377   0.93652   0.00000  Uiso   1.00
C1203  C     0.53079   0.45896   0.91156   0.00000  Uiso   1.00
C1204  C     0.50662   0.50531   0.56558   0.00000  Uiso   1.00
C1205  C     0.58646   0.48065   0.56452   0.00000  Uiso   1.00
C1206  C     0.45921   0.49906   0.90631   0.00000  Uiso   1.00
C1207  C     0.54238   0.64461   0.73929   0.00000  Uiso   1.00
C1208  C     0.47426   0.49937   0.84961   0.00000  Uiso   1.00
C1209  C     0.54171   0.35334   0.75015   0.00000  Uiso   1.00
C1210  C     0.49865   0.37619   0.75768   0.00000  Uiso   1.00
C1211  C     0.45464   0.35574   0.76932   0.00000  Uiso   1.00
C1212  C     0.45453   0.64643   0.76740   0.00000  Uiso   1.00
C1213  C     0.49864   0.62386   0.75085   0.00000  Uiso   1.00
C1214  C     0.63105   0.52072   0.78825   0.00000  Uiso   1.00
C1215  C     0.34699   0.52036   0.78869   0.00000  Uiso   1.00
C1216  C     0.36819   0.47968   0.71134   0.00000  Uiso   1.00
C1217  C     0.65195   0.47896   0.71210   0.00000  Uiso   1.00
C1218  C     0.49942   0.42092   0.75322   0.00000  Uiso   1.00
C1219  C     0.52593   0.50056   0.64996   0.00000  Uiso   1.00
C1220  C     0.59431   0.46417   0.51448   0.00000  Uiso   1.00
C1221  C     0.54081   0.49726   0.59243   0.00000  Uiso   1.00
C1222  C     0.41417   0.51677   0.93310   0.00000  Uiso   1.00
C1223  C     0.39832   0.51760   0.98664   0.00000  Uiso   1.00
C1224  C     0.42861   0.50153   0.51373   0.00000  Uiso   1.00
Cu1225 Cu    0.45311   0.49999   0.75000   0.00000  Uiso   1.00
Cu1226 Cu    0.54689   0.50001   0.75000   0.00000  Uiso   1.00
H1227  H     0.39029   0.52873   0.91252   0.00000  Uiso   1.00
N1228  N     0.38265   0.49999   0.74999   0.00000  Uiso   1.00
N1229  N     0.61735   0.50002   0.74999   0.00000  Uiso   1.00
O1230  O     0.46042   0.56011   0.75001   0.00000  Uiso   1.00
O1231  O     0.53961   0.56012   0.75001   0.00000  Uiso   1.00
O1232  O     0.44108   0.49998   0.82549   0.00000  Uiso   1.00
O1233  O     0.52027   0.49999   0.82549   0.00000  Uiso   1.00
O1234  O     0.46039   0.43988   0.75000   0.00000  Uiso   1.00
O1235  O     0.53958   0.43989   0.74999   0.00000  Uiso   1.00
O1236  O     0.47973   0.50001   0.67451   0.00000  Uiso   1.00
O1237  O     0.55892   0.50002   0.67451   0.00000  Uiso   1.00
O1238  O     0.62451   0.47934   0.58520   0.00000  Uiso   1.00
H1239  H     0.62551   0.50647   0.60239   0.00000  Uiso   1.00
O1240  O     0.58290   0.37229   0.75405   0.00000  Uiso   1.00
C1241  C     0.59841   0.35601   0.79437   0.00000  Uiso   1.00
H1242  H     0.61779   0.37984   0.81008   0.00000  Uiso   1.00
H1243  H     0.62418   0.66352   0.77914   0.00000  Uiso   1.00
H1244  H     0.56829   0.34590   0.82706   0.00000  Uiso   1.00
O1245  O     0.41165   0.37750   0.78887   0.00000  Uiso   1.00
C1246  C     0.38740   0.37827   0.75065   0.00000  Uiso   1.00
H1247  H     0.41177   0.38343   0.71151   0.00000  Uiso   1.00
H1248  H     0.36067   0.40388   0.76164   0.00000  Uiso   1.00
H1249  H     0.36823   0.34955   0.74890   0.00000  Uiso   1.00
O1250  O     0.41098   0.62768   0.78402   0.00000  Uiso   1.00
H1251  H     0.40452   0.61563   0.75246   0.00000  Uiso   1.00
O1252  O     0.59591   0.54082   0.82783   0.00000  Uiso   1.00
C1253  C     0.60278   0.58336   0.82728   0.00000  Uiso   1.00
H1254  H     0.62469   0.59389   0.78930   0.00000  Uiso   1.00
H1255  H     0.61991   0.59296   0.85761   0.00000  Uiso   1.00
H1256  H     0.56692   0.59911   0.83673   0.00000  Uiso   1.00
O1257  O     0.35731   0.54080   0.82945   0.00000  Uiso   1.00
H1258  H     0.38935   0.55247   0.81638   0.00000  Uiso   1.00
O1259  O     0.40096   0.46010   0.67003   0.00000  Uiso   1.00
H1260  H     0.42627   0.44776   0.68264   0.00000  Uiso   1.00
O1261  O     0.63826   0.45908   0.67264   0.00000  Uiso   1.00
C1262  C     0.64843   0.41673   0.67018   0.00000  Uiso   1.00
H1263  H     0.34936   0.40864   0.64060   0.00000  Uiso   1.00
H1264  H     0.61933   0.40048   0.65889   0.00000  Uiso   1.00
H1265  H     0.65094   0.40520   0.70696   0.00000  Uiso   1.00
O1266  O     0.61120   0.43617   0.90969   0.00000  Uiso   1.00
H1267  H     0.61624   0.43864   0.87214   0.00000  Uiso   1.00
O1268  O     0.63808   0.44453   0.99193   0.00000  Uiso   1.00
H1269  H     0.63071   0.41577   0.98500   0.00000  Uiso   1.00
O1270  O     0.46878   0.53294   0.58641   0.00000  Uiso   1.00
H1271  H     0.47734   0.55177   0.61189   0.00000  Uiso   1.00
O1272  O     0.40754   0.48512   0.56078   0.00000  Uiso   1.00
C1273  C     0.40518   0.44219   0.55299   0.00000  Uiso   1.00
H1274  H     0.42159   0.42676   0.57975   0.00000  Uiso   1.00
H1275  H     0.42405   0.42917   0.51340   0.00000  Uiso   1.00
H1276  H     0.36695   0.43373   0.56089   0.00000  Uiso   1.00
O1277  O     0.35117   0.52975   0.51123   0.00000  Uiso   1.00
C1278  C     0.35114   0.56596   0.54130   0.00000  Uiso   1.00
H1279  H     0.37200   0.59019   0.51766   0.00000  Uiso   1.00
H1280  H     0.36527   0.56020   0.57460   0.00000  Uiso   1.00
H1281  H     0.64668   0.57756   0.55710   0.00000  Uiso   1.00
O1282  O     0.53136   0.43506   0.86820   0.00000  Uiso   1.00
H1283  H     0.54765   0.40878   0.87022   0.00000  Uiso   1.00
O1284  O     0.58630   0.62380   0.72123   0.00000  Uiso   1.00
C1285  C     0.60078   0.62367   0.66690   0.00000  Uiso   1.00
H1286  H     0.63605   0.60705   0.65241   0.00000  Uiso   1.00
H1287  H     0.60580   0.65523   0.65309   0.00000  Uiso   1.00
H1288  H     0.57459   0.60741   0.65040   0.00000  Uiso   1.00
C1289  C     0.83299   0.57916   0.74989   0.00000  Uiso   1.00
C1290  C     0.81140   0.49321   0.98805   0.00000  Uiso   1.00
C1291  C     0.82374   0.48475   0.93434   0.00000  Uiso   1.00
C1292  C     0.84679   0.48803   0.51483   0.00000  Uiso   1.00
C1293  C     0.89174   0.46807   0.98852   0.00000  Uiso   1.00
C1294  C     0.90028   0.45377   0.93652   0.00000  Uiso   1.00
C1295  C     0.86412   0.45896   0.91156   0.00000  Uiso   1.00
C1296  C     0.83996   0.50531   0.56558   0.00000  Uiso   1.00
C1297  C     0.91979   0.48065   0.56452   0.00000  Uiso   1.00
C1298  C     0.79255   0.49906   0.90631   0.00000  Uiso   1.00
C1299  C     0.87571   0.64461   0.73929   0.00000  Uiso   1.00
C1300  C     0.80759   0.49937   0.84961   0.00000  Uiso   1.00
C1301  C     0.87505   0.35334   0.75015   0.00000  Uiso   1.00
C1302  C     0.83199   0.37619   0.75768   0.00000  Uiso   1.00
C1303  C     0.78798   0.35574   0.76932   0.00000  Uiso   1.00
C1304  C     0.78786   0.64643   0.76740   0.00000  Uiso   1.00
C1305  C     0.83197   0.62386   0.75085   0.00000  Uiso   1.00
C1306  C     0.96438   0.52072   0.78825   0.00000  Uiso   1.00
C1307  C     0.68033   0.52036   0.78869   0.00000  Uiso   1.00
C1308  C     0.70152   0.47968   0.71134   0.00000  Uiso   1.00
C1309  C     0.98529   0.47896   0.71210   0.00000  Uiso   1.00
C1310  C     0.83275   0.42092   0.75322   0.00000  Uiso   1.00
C1311  C     0.85926   0.50056   0.64996   0.00000  Uiso   1.00
C1312  C     0.92765   0.46417   0.51448   0.00000  Uiso   1.00
C1313  C     0.87415   0.49726   0.59243   0.00000  Uiso   1.00
C1314  C     0.74750   0.51677   0.93310   0.00000  Uiso   1.00
C1315  C     0.73166   0.51760   0.98664   0.00000  Uiso   1.00
C1316  C     0.76194   0.50153   0.51373   0.00000  Uiso   1.00
Cu1317 Cu    0.78645   0.49999   0.75000   0.00000  Uiso   1.00
Cu1318 Cu    0.88022   0.50001   0.75000   0.00000  Uiso   1.00
H1319  H     0.72362   0.52873   0.91252   0.00000  Uiso   1.00
N1320  N     0.71598   0.49999   0.74999   0.00000  Uiso   1.00
N1321  N     0.95069   0.50002   0.74999   0.00000  Uiso   1.00
O1322  O     0.79375   0.56011   0.75001   0.00000  Uiso   1.00
O1323  O     0.87294   0.56012   0.75001   0.00000  Uiso   1.00
O1324  O     0.77441   0.49998   0.82549   0.00000  Uiso   1.00
O1325  O     0.85360   0.49999   0.82549   0.00000  Uiso   1.00
O1326  O     0.79373   0.43988   0.75000   0.00000  Uiso   1.00
O1327  O     0.87292   0.43989   0.74999   0.00000  Uiso   1.00
O1328  O     0.81306   0.50001   0.67451   0.00000  Uiso   1.00
O1329  O     0.89225   0.50002   0.67451   0.00000  Uiso   1.00
O1330  O     0.95785   0.47934   0.58520   0.00000  Uiso   1.00
H1331  H     0.95884   0.50647   0.60239   0.00000  Uiso   1.00
O1332  O     0.91623   0.37229   0.75405   0.00000  Uiso   1.00
C1333  C     0.93174   0.35601   0.79437   0.00000  Uiso   1.00
H1334  H     0.95113   0.37984   0.81008   0.00000  Uiso   1.00
H1335  H     0.95751   0.66352   0.77914   0.00000  Uiso   1.00
H1336  H     0.90162   0.34590   0.82706   0.00000  Uiso   1.00
O1337  O     0.74499   0.37750   0.78887   0.00000  Uiso   1.00
C1338  C     0.72073   0.37827   0.75065   0.00000  Uiso   1.00
H1339  H     0.74511   0.38343   0.71151   0.00000  Uiso   1.00
H1340  H     0.69401   0.40388   0.76164   0.00000  Uiso   1.00
H1341  H     0.70156   0.34955   0.74890   0.00000  Uiso   1.00
O1342  O     0.74431   0.62768   0.78402   0.00000  Uiso   1.00
H1343  H     0.73785   0.61563   0.75246   0.00000  Uiso   1.00
O1344  O     0.92925   0.54082   0.82783   0.00000  Uiso   1.00
C1345  C     0.93612   0.58336   0.82728   0.00000  Uiso   1.00
H1346  H     0.95803   0.59389   0.78930   0.00000  Uiso   1.00
H1347  H     0.95324   0.59296   0.85761   0.00000  Uiso   1.00
H1348  H     0.90025   0.59911   0.83673   0.00000  Uiso   1.00
O1349  O     0.69064   0.54080   0.82945   0.00000  Uiso   1.00
H1350  H     0.72268   0.55247   0.81638   0.00000  Uiso   1.00
O1351  O     0.73429   0.46010   0.67003   0.00000  Uiso   1.00
H1352  H     0.75960   0.44776   0.68264   0.00000  Uiso   1.00
O1353  O     0.97160   0.45908   0.67264   0.00000  Uiso   1.00
C1354  C     0.98176   0.41673   0.67018   0.00000  Uiso   1.00
H1355  H     0.68270   0.40864   0.64060   0.00000  Uiso   1.00
H1356  H     0.95267   0.40048   0.65889   0.00000  Uiso   1.00
H1357  H     0.98427   0.40520   0.70696   0.00000  Uiso   1.00
O1358  O     0.94454   0.43617   0.90969   0.00000  Uiso   1.00
H1359  H     0.94957   0.43864   0.87214   0.00000  Uiso   1.00
O1360  O     0.97141   0.44453   0.99193   0.00000  Uiso   1.00
H1361  H     0.96404   0.41577   0.98500   0.00000  Uiso   1.00
O1362  O     0.80211   0.53294   0.58641   0.00000  Uiso   1.00
H1363  H     0.81068   0.55177   0.61189   0.00000  Uiso   1.00
O1364  O     0.74087   0.48512   0.56078   0.00000  Uiso   1.00
C1365  C     0.73851   0.44219   0.55299   0.00000  Uiso   1.00
H1366  H     0.75492   0.42676   0.57975   0.00000  Uiso   1.00
H1367  H     0.75739   0.42917   0.51340   0.00000  Uiso   1.00
H1368  H     0.70028   0.43373   0.56089   0.00000  Uiso   1.00
O1369  O     0.68451   0.52975   0.51123   0.00000  Uiso   1.00
C1370  C     0.68448   0.56596   0.54130   0.00000  Uiso   1.00
H1371  H     0.70533   0.59019   0.51766   0.00000  Uiso   1.00
H1372  H     0.69860   0.56020   0.57460   0.00000  Uiso   1.00
H1373  H     0.98001   0.57756   0.55710   0.00000  Uiso   1.00
O1374  O     0.86469   0.43506   0.86820   0.00000  Uiso   1.00
H1375  H     0.88098   0.40878   0.87022   0.00000  Uiso   1.00
O1376  O     0.91963   0.62380   0.72123   0.00000  Uiso   1.00
C1377  C     0.93411   0.62367   0.66690   0.00000  Uiso   1.00
H1378  H     0.96938   0.60705   0.65241   0.00000  Uiso   1.00
H1379  H     0.93914   0.65523   0.65309   0.00000  Uiso   1.00
H1380  H     0.90793   0.60741   0.65040   0.00000  Uiso   1.00
C1381  C     0.16632   0.91249   0.74989   0.00000  Uiso   1.00
C1382  C     0.14474   0.82654   0.98805   0.00000  Uiso   1.00
C1383  C     0.15707   0.81808   0.93434   0.00000  Uiso   1.00
C1384  C     0.18012   0.82136   0.51483   0.00000  Uiso   1.00
C1385  C     0.22507   0.80140   0.98852   0.00000  Uiso   1.00
C1386  C     0.23362   0.78711   0.93652   0.00000  Uiso   1.00
C1387  C     0.19745   0.79230   0.91156   0.00000  Uiso   1.00
C1388  C     0.17329   0.83864   0.56558   0.00000  Uiso   1.00
C1389  C     0.25312   0.81398   0.56452   0.00000  Uiso   1.00
C1390  C     0.12588   0.83240   0.90631   0.00000  Uiso   1.00
C1391  C     0.20904   0.97794   0.73929   0.00000  Uiso   1.00
C1392  C     0.14093   0.83270   0.84961   0.00000  Uiso   1.00
C1393  C     0.20838   0.68667   0.75015   0.00000  Uiso   1.00
C1394  C     0.16532   0.70953   0.75768   0.00000  Uiso   1.00
C1395  C     0.12131   0.68907   0.76932   0.00000  Uiso   1.00
C1396  C     0.12120   0.97976   0.76740   0.00000  Uiso   1.00
C1397  C     0.16531   0.95719   0.75085   0.00000  Uiso   1.00
C1398  C     0.29772   0.85405   0.78825   0.00000  Uiso   1.00
C1399  C     0.01366   0.85369   0.78869   0.00000  Uiso   1.00
C1400  C     0.03486   0.81301   0.71134   0.00000  Uiso   1.00
C1401  C     0.31862   0.81229   0.71210   0.00000  Uiso   1.00
C1402  C     0.16608   0.75425   0.75322   0.00000  Uiso   1.00
C1403  C     0.19260   0.83389   0.64996   0.00000  Uiso   1.00
C1404  C     0.26098   0.79751   0.51448   0.00000  Uiso   1.00
C1405  C     0.20748   0.83060   0.59243   0.00000  Uiso   1.00
C1406  C     0.08084   0.85010   0.93310   0.00000  Uiso   1.00
C1407  C     0.06499   0.85093   0.98664   0.00000  Uiso   1.00
C1408  C     0.09528   0.83486   0.51373   0.00000  Uiso   1.00
Cu1409 Cu    0.11978   0.83333   0.75000   0.00000  Uiso   1.00
Cu1410 Cu    0.21355   0.83334   0.75000   0.00000  Uiso   1.00
H1411  H     0.05696   0.86206   0.91252   0.00000  Uiso   1.00
N1412  N     0.04931   0.83332   0.74999   0.00000  Uiso   1.00
N1413  N     0.28402   0.83335   0.74999   0.00000  Uiso   1.00
O1414  O     0.12708   0.89345   0.75001   0.00000  Uiso   1.00
O1415  O     0.20627   0.89346   0.75001   0.00000  Uiso   1.00
O1416  O     0.10775   0.83332   0.82549   0.00000  Uiso   1.00
O1417  O     0.18694   0.83333   0.82549   0.00000  Uiso   1.00
O1418  O     0.12706   0.77321   0.75000   0.00000  Uiso   1.00
O1419  O     0.20625   0.77322   0.74999   0.00000  Uiso   1.00
O1420  O     0.14640   0.83334   0.67451   0.00000  Uiso   1.00
O1421  O     0.22559   0.83335   0.67451   0.00000  Uiso   1.00
O1422  O     0.29118   0.81267   0.58520   0.00000  Uiso   1.00
H1423  H     0.29218   0.83981   0.60239   0.00000  Uiso   1.00
O1424  O     0.24956   0.70562   0.75405   0.00000  Uiso   1.00
C1425  C     0.26508   0.68934   0.79437   0.00000  Uiso   1.00
H1426  H     0.28446   0.71317   0.81008   0.00000  Uiso   1.00
H1427  H     0.29085   0.99685   0.77914   0.00000  Uiso   1.00
H1428  H     0.23496   0.67923   0.82706   0.00000  Uiso   1.00
O1429  O     0.07832   0.71084   0.78887   0.00000  Uiso   1.00
C1430  C     0.05407   0.71160   0.75065   0.00000  Uiso   1.00
H1431  H     0.07844   0.71676   0.71151   0.00000  Uiso   1.00
H1432  H     0.02734   0.73721   0.76164   0.00000  Uiso   1.00
H1433  H     0.03490   0.68289   0.74890   0.00000  Uiso   1.00
O1434  O     0.07765   0.96101   0.78402   0.00000  Uiso   1.00
H1435  H     0.07118   0.94897   0.75246   0.00000  Uiso   1.00
O1436  O     0.26258   0.87415   0.82783   0.00000  Uiso   1.00
C1437  C     0.26945   0.91669   0.82728   0.00000  Uiso   1.00
H1438  H     0.29136   0.92722   0.78930   0.00000  Uiso   1.00
H1439  H     0.28657   0.92629   0.85761   0.00000  Uiso   1.00
H1440  H     0.23359   0.93244   0.83673   0.00000  Uiso   1.00
O1441  O     0.02397   0.87414   0.82945   0.00000  Uiso   1.00
H1442  H     0.05602   0.88581   0.81638   0.00000  Uiso   1.00
O1443  O     0.06763   0.79343   0.67003   0.00000  Uiso   1.00
H1444  H     0.09294   0.78110   0.68264   0.00000  Uiso   1.00
O1445  O     0.30493   0.79241   0.67264   0.00000  Uiso   1.00
C1446  C     0.31509   0.75007   0.67018   0.00000  Uiso   1.00
H1447  H     0.01603   0.74198   0.64060   0.00000  Uiso   1.00
H1448  H     0.28600   0.73382   0.65889   0.00000  Uiso   1.00
H1449  H     0.31761   0.73853   0.70696   0.00000  Uiso   1.00
O1450  O     0.27787   0.76950   0.90969   0.00000  Uiso   1.00
H1451  H     0.28291   0.77197   0.87214   0.00000  Uiso   1.00
O1452  O     0.30475   0.77787   0.99193   0.00000  Uiso   1.00
H1453  H     0.29737   0.74910   0.98500   0.00000  Uiso   1.00
O1454  O     0.13544   0.86628   0.58641   0.00000  Uiso   1.00
H1455  H     0.14401   0.88510   0.61189   0.00000  Uiso   1.00
O1456  O     0.07420   0.81845   0.56078   0.00000  Uiso   1.00
C1457  C     0.07184   0.77552   0.55299   0.00000  Uiso   1.00
H1458  H     0.08826   0.76010   0.57975   0.00000  Uiso   1.00
H1459  H     0.09072   0.76251   0.51340   0.00000  Uiso   1.00
H1460  H     0.03362   0.76706   0.56089   0.00000  Uiso   1.00
O1461  O     0.01784   0.86309   0.51123   0.00000  Uiso   1.00
C1462  C     0.01781   0.89929   0.54130   0.00000  Uiso   1.00
H1463  H     0.03867   0.92352   0.51766   0.00000  Uiso   1.00
H1464  H     0.03194   0.89353   0.57460   0.00000  Uiso   1.00
H1465  H     0.31335   0.91090   0.55710   0.00000  Uiso   1.00
O1466  O     0.19803   0.76839   0.86820   0.00000  Uiso   1.00
H1467  H     0.21431   0.74212   0.87022   0.00000  Uiso   1.00
O1468  O     0.25296   0.95713   0.72123   0.00000  Uiso   1.00
C1469  C     0.26744   0.95700   0.66690   0.00000  Uiso   1.00
H1470  H     0.30272   0.94038   0.65241   0.00000  Uiso   1.00
H1471  H     0.27247   0.98856   0.65309   0.00000  Uiso   1.00
H1472  H     0.24126   0.94074   0.65040   0.00000  Uiso   1.00
C1473  C     0.49966   0.91249   0.74989   0.00000  Uiso   1.00
C1474  C     0.47807   0.82654   0.98805   0.00000  Uiso   1.00
C1475  C     0.49040   0.81808   0.93434   0.00000  Uiso   1.00
C1476  C     0.51345   0.82136   0.51483   0.00000  Uiso   1.00
C1477  C     0.55840   0.80140   0.98852   0.00000  Uiso   1.00
C1478  C     0.56695   0.78711   0.93652   0.00000  Uiso   1.00
C1479  C     0.53079   0.79230   0.91156   0.00000  Uiso   1.00
C1480  C     0.50662   0.83864   0.56558   0.00000  Uiso   1.00
C1481  C     0.58646   0.81398   0.56452   0.00000  Uiso   1.00
C1482  C     0.45921   0.83240   0.90631   0.00000  Uiso   1.00
C1483  C     0.54238   0.97794   0.73929   0.00000  Uiso   1.00
C1484  C     0.47426   0.83270   0.84961   0.00000  Uiso   1.00
C1485  C     0.54171   0.68667   0.75015   0.00000  Uiso   1.00
C1486  C     0.49865   0.70953   0.75768   0.00000  Uiso   1.00
C1487  C     0.45464   0.68907   0.76932   0.00000  Uiso   1.00
C1488  C     0.45453   0.97976   0.76740   0.00000  Uiso   1.00
C1489  C     0.49864   0.95719   0.75085   0.00000  Uiso   1.00
C1490  C     0.63105   0.85405   0.78825   0.00000  Uiso   1.00
C1491  C     0.34699   0.85369   0.78869   0.00000  Uiso   1.00
C1492  C     0.36819   0.81301   0.71134   0.00000  Uiso   1.00
C1493  C     0.65195   0.81229   0.71210   0.00000  Uiso   1.00
C1494  C     0.49942   0.75425   0.75322   0.00000  Uiso   1.00
C1495  C     0.52593   0.83389   0.64996   0.00000  Uiso   1.00
C1496  C     0.59431   0.79751   0.51448   0.00000  Uiso   1.00
C1497  C     0.54081   0.83060   0.59243   0.00000  Uiso   1.00
C1498  C     0.41417   0.85010   0.93310   0.00000  Uiso   1.00
C1499  C     0.39832   0.85093   0.98664   0.00000  Uiso   1.00
C1500  C     0.42861   0.83486   0.51373   0.00000  Uiso   1.00
Cu1501 Cu    0.45311   0.83333   0.75000   0.00000  Uiso   1.00
Cu1502 Cu    0.54689   0.83334   0.75000   0.00000  Uiso   1.00
H1503  H     0.39029   0.86206   0.91252   0.00000  Uiso   1.00
N1504  N     0.38265   0.83332   0.74999   0.00000  Uiso   1.00
N1505  N     0.61735   0.83335   0.74999   0.00000  Uiso   1.00
O1506  O     0.46042   0.89345   0.75001   0.00000  Uiso   1.00
O1507  O     0.53961   0.89346   0.75001   0.00000  Uiso   1.00
O1508  O     0.44108   0.83332   0.82549   0.00000  Uiso   1.00
O1509  O     0.52027   0.83333   0.82549   0.00000  Uiso   1.00
O1510  O     0.46039   0.77321   0.75000   0.00000  Uiso   1.00
O1511  O     0.53958   0.77322   0.74999   0.00000  Uiso   1.00
O1512  O     0.47973   0.83334   0.67451   0.00000  Uiso   1.00
O1513  O     0.55892   0.83335   0.67451   0.00000  Uiso   1.00
O1514  O     0.62451   0.81267   0.58520   0.00000  Uiso   1.00
H1515  H     0.62551   0.83981   0.60239   0.00000  Uiso   1.00
O1516  O     0.58290   0.70562   0.75405   0.00000  Uiso   1.00
C1517  C     0.59841   0.68934   0.79437   0.00000  Uiso   1.00
H1518  H     0.61779   0.71317   0.81008   0.00000  Uiso   1.00
H1519  H     0.62418   0.99685   0.77914   0.00000  Uiso   1.00
H1520  H     0.56829   0.67923   0.82706   0.00000  Uiso   1.00
O1521  O     0.41165   0.71084   0.78887   0.00000  Uiso   1.00
C1522  C     0.38740   0.71160   0.75065   0.00000  Uiso   1.00
H1523  H     0.41177   0.71676   0.71151   0.00000  Uiso   1.00
H1524  H     0.36067   0.73721   0.76164   0.00000  Uiso   1.00
H1525  H     0.36823   0.68289   0.74890   0.00000  Uiso   1.00
O1526  O     0.41098   0.96101   0.78402   0.00000  Uiso   1.00
H1527  H     0.40452   0.94897   0.75246   0.00000  Uiso   1.00
O1528  O     0.59591   0.87415   0.82783   0.00000  Uiso   1.00
C1529  C     0.60278   0.91669   0.82728   0.00000  Uiso   1.00
H1530  H     0.62469   0.92722   0.78930   0.00000  Uiso   1.00
H1531  H     0.61991   0.92629   0.85761   0.00000  Uiso   1.00
H1532  H     0.56692   0.93244   0.83673   0.00000  Uiso   1.00
O1533  O     0.35731   0.87414   0.82945   0.00000  Uiso   1.00
H1534  H     0.38935   0.88581   0.81638   0.00000  Uiso   1.00
O1535  O     0.40096   0.79343   0.67003   0.00000  Uiso   1.00
H1536  H     0.42627   0.78110   0.68264   0.00000  Uiso   1.00
O1537  O     0.63826   0.79241   0.67264   0.00000  Uiso   1.00
C1538  C     0.64843   0.75007   0.67018   0.00000  Uiso   1.00
H1539  H     0.34936   0.74198   0.64060   0.00000  Uiso   1.00
H1540  H     0.61933   0.73382   0.65889   0.00000  Uiso   1.00
H1541  H     0.65094   0.73853   0.70696   0.00000  Uiso   1.00
O1542  O     0.61120   0.76950   0.90969   0.00000  Uiso   1.00
H1543  H     0.61624   0.77197   0.87214   0.00000  Uiso   1.00
O1544  O     0.63808   0.77787   0.99193   0.00000  Uiso   1.00
H1545  H     0.63071   0.74910   0.98500   0.00000  Uiso   1.00
O1546  O     0.46878   0.86628   0.58641   0.00000  Uiso   1.00
H1547  H     0.47734   0.88510   0.61189   0.00000  Uiso   1.00
O1548  O     0.40754   0.81845   0.56078   0.00000  Uiso   1.00
C1549  C     0.40518   0.77552   0.55299   0.00000  Uiso   1.00
H1550  H     0.42159   0.76010   0.57975   0.00000  Uiso   1.00
H1551  H     0.42405   0.76251   0.51340   0.00000  Uiso   1.00
H1552  H     0.36695   0.76706   0.56089   0.00000  Uiso   1.00
O1553  O     0.35117   0.86309   0.51123   0.00000  Uiso   1.00
C1554  C     0.35114   0.89929   0.54130   0.00000  Uiso   1.00
H1555  H     0.37200   0.92352   0.51766   0.00000  Uiso   1.00
H1556  H     0.36527   0.89353   0.57460   0.00000  Uiso   1.00
H1557  H     0.64668   0.91090   0.55710   0.00000  Uiso   1.00
O1558  O     0.53136   0.76839   0.86820   0.00000  Uiso   1.00
H1559  H     0.54765   0.74212   0.87022   0.00000  Uiso   1.00
O1560  O     0.58630   0.95713   0.72123   0.00000  Uiso   1.00
C1561  C     0.60078   0.95700   0.66690   0.00000  Uiso   1.00
H1562  H     0.63605   0.94038   0.65241   0.00000  Uiso   1.00
H1563  H     0.60580   0.98856   0.65309   0.00000  Uiso   1.00
H1564  H     0.57459   0.94074   0.65040   0.00000  Uiso   1.00
C1565  C     0.83299   0.91249   0.74989   0.00000  Uiso   1.00
C1566  C     0.81140   0.82654   0.98805   0.00000  Uiso   1.00
C1567  C     0.82374   0.81808   0.93434   0.00000  Uiso   1.00
C1568  C     0.84679   0.82136   0.51483   0.00000  Uiso   1.00
C1569  C     0.89174   0.80140   0.98852   0.00000  Uiso   1.00
C1570  C     0.90028   0.78711   0.93652   0.00000  Uiso   1.00
C1571  C     0.86412   0.79230   0.91156   0.00000  Uiso   1.00
C1572  C     0.83996   0.83864   0.56558   0.00000  Uiso   1.00
C1573  C     0.91979   0.81398   0.56452   0.00000  Uiso   1.00
C1574  C     0.79255   0.83240   0.90631   0.00000  Uiso   1.00
C1575  C     0.87571   0.97794   0.73929   0.00000  Uiso   1.00
C1576  C     0.80759   0.83270   0.84961   0.00000  Uiso   1.00
C1577  C     0.87505   0.68667   0.75015   0.00000  Uiso   1.00
C1578  C     0.83199   0.70953   0.75768   0.00000  Uiso   1.00
C1579  C     0.78798   0.68907   0.76932   0.00000  Uiso   1.00
C1580  C     0.78786   0.97976   0.76740   0.00000  Uiso   1.00
C1581  C     0.83197   0.95719   0.75085   0.00000  Uiso   1.00
C1582  C     0.96438   0.85405   0.78825   0.00000  Uiso   1.00
C1583  C     0.68033   0.85369   0.78869   0.00000  Uiso   1.00
C1584  C     0.70152   0.81301   0.71134   0.00000  Uiso   1.00
C1585  C     0.98529   0.81229   0.71210   0.00000  Uiso   1.00
C1586  C     0.83275   0.75425   0.75322   0.00000  Uiso   1.00
C1587  C     0.85926   0.83389   0.64996   0.00000  Uiso   1.00
C1588  C     0.92765   0.79751   0.51448   0.00000  Uiso   1.00
C1589  C     0.87415   0.83060   0.59243   0.00000  Uiso   1.00
C1590  C     0.74750   0.85010   0.93310   0.00000  Uiso   1.00
C1591  C     0.73166   0.85093   0.98664   0.00000  Uiso   1.00
C1592  C     0.76194   0.83486   0.51373   0.00000  Uiso   1.00
Cu1593 Cu    0.78645   0.83333   0.75000   0.00000  Uiso   1.00
Cu1594 Cu    0.88022   0.83334   0.75000   0.00000  Uiso   1.00
H1595  H     0.72362   0.86206   0.91252   0.00000  Uiso   1.00
N1596  N     0.71598   0.83332   0.74999   0.00000  Uiso   1.00
N1597  N     0.95069   0.83335   0.74999   0.00000  Uiso   1.00
O1598  O     0.79375   0.89345   0.75001   0.00000  Uiso   1.00
O1599  O     0.87294   0.89346   0.75001   0.00000  Uiso   1.00
O1600  O     0.77441   0.83332   0.82549   0.00000  Uiso   1.00
O1601  O     0.85360   0.83333   0.82549   0.00000  Uiso   1.00
O1602  O     0.79373   0.77321   0.75000   0.00000  Uiso   1.00
O1603  O     0.87292   0.77322   0.74999   0.00000  Uiso   1.00
O1604  O     0.81306   0.83334   0.67451   0.00000  Uiso   1.00
O1605  O     0.89225   0.83335   0.67451   0.00000  Uiso   1.00
O1606  O     0.95785   0.81267   0.58520   0.00000  Uiso   1.00
H1607  H     0.95884   0.83981   0.60239   0.00000  Uiso   1.00
O1608  O     0.91623   0.70562   0.75405   0.00000  Uiso   1.00
C1609  C     0.93174   0.68934   0.79437   0.00000  Uiso   1.00
H1610  H     0.95113   0.71317   0.81008   0.00000  Uiso   1.00
H1611  H     0.95751   0.99685   0.77914   0.00000  Uiso   1.00
H1612  H     0.90162   0.67923   0.82706   0.00000  Uiso   1.00
O1613  O     0.74499   0.71084   0.78887   0.00000  Uiso   1.00
C1614  C     0.72073   0.71160   0.75065   0.00000  Uiso   1.00
H1615  H     0.74511   0.71676   0.71151   0.00000  Uiso   1.00
H1616  H     0.69401   0.73721   0.76164   0.00000  Uiso   1.00
H1617  H     0.70156   0.68289   0.74890   0.00000  Uiso   1.00
O1618  O     0.74431   0.96101   0.78402   0.00000  Uiso   1.00
H1619  H     0.73785   0.94897   0.75246   0.00000  Uiso   1.00
O1620  O     0.92925   0.87415   0.82783   0.00000  Uiso   1.00
C1621  C     0.93612   0.91669   0.82728   0.00000  Uiso   1.00
H1622  H     0.95803   0.92722   0.78930   0.00000  Uiso   1.00
H1623  H     0.95324   0.92629   0.85761   0.00000  Uiso   1.00
H1624  H     0.90025   0.93244   0.83673   0.00000  Uiso   1.00
O1625  O     0.69064   0.87414   0.82945   0.00000  Uiso   1.00
H1626  H     0.72268   0.88581   0.81638   0.00000  Uiso   1.00
O1627  O     0.73429   0.79343   0.67003   0.00000  Uiso   1.00
H1628  H     0.75960   0.78110   0.68264   0.00000  Uiso   1.00
O1629  O     0.97160   0.79241   0.67264   0.00000  Uiso   1.00
C1630  C     0.98176   0.75007   0.67018   0.00000  Uiso   1.00
H1631  H     0.68270   0.74198   0.64060   0.00000  Uiso   1.00
H1632  H     0.95267   0.73382   0.65889   0.00000  Uiso   1.00
H1633  H     0.98427   0.73853   0.70696   0.00000  Uiso   1.00
O1634  O     0.94454   0.76950   0.90969   0.00000  Uiso   1.00
H1635  H     0.94957   0.77197   0.87214   0.00000  Uiso   1.00
O1636  O     0.97141   0.77787   0.99193   0.00000  Uiso   1.00
H1637  H     0.96404   0.74910   0.98500   0.00000  Uiso   1.00
O1638  O     0.80211   0.86628   0.58641   0.00000  Uiso   1.00
H1639  H     0.81068   0.88510   0.61189   0.00000  Uiso   1.00
O1640  O     0.74087   0.81845   0.56078   0.00000  Uiso   1.00
C1641  C     0.73851   0.77552   0.55299   0.00000  Uiso   1.00
H1642  H     0.75492   0.76010   0.57975   0.00000  Uiso   1.00
H1643  H     0.75739   0.76251   0.51340   0.00000  Uiso   1.00
H1644  H     0.70028   0.76706   0.56089   0.00000  Uiso   1.00
O1645  O     0.68451   0.86309   0.51123   0.00000  Uiso   1.00
C1646  C     0.68448   0.89929   0.54130   0.00000  Uiso   1.00
H1647  H     0.70533   0.92352   0.51766   0.00000  Uiso   1.00
H1648  H     0.69860   0.89353   0.57460   0.00000  Uiso   1.00
H1649  H     0.98001   0.91090   0.55710   0.00000  Uiso   1.00
O1650  O     0.86469   0.76839   0.86820   0.00000  Uiso   1.00
H1651  H     0.88098   0.74212   0.87022   0.00000  Uiso   1.00
O1652  O     0.91963   0.95713   0.72123   0.00000  Uiso   1.00
C1653  C     0.93411   0.95700   0.66690   0.00000  Uiso   1.00
H1654  H     0.96938   0.94038   0.65241   0.00000  Uiso   1.00
H1655  H     0.93914   0.98856   0.65309   0.00000  Uiso   1.00
H1656  H     0.90793   0.94074   0.65040   0.00000  Uiso   1.00
loop_
_geom_bond_atom_site_label_1
_geom_bond_atom_site_label_2
_geom_bond_distance
_geom_bond_site_symmetry_2
_ccdc_geom_bond_type
C1     O35     1.307   .     A
C1     O34     1.302   .     A
C1     C17     1.465   .     S
C2     C3      1.408   .     A
C2     C832    1.425   .     S
C2     C856    1.418   .     S
C3     C7      1.406   .     A
C3     C10     1.421   .     A
C4     C8      1.422   .     A
C4     C830    1.425   1_554 S
C4     C833    1.426   1_554 S
C5     C6      1.415   .     A
C5     C832    1.426   .     S
C5     C852    1.417   .     S
C6     O70     1.383   .     S
C6     C7      1.410   .     A
C7     O86     1.379   .     S
C8     C25     1.412   .     A
C8     O74     1.384   .     S
C9     C25     1.409   .     A
C9     O42     1.371   .     S
C9     C24     1.391   .     A
C10    C26     1.401   .     A
C10    C12     1.471   .     S
C11    O88     1.383   .     S
C11    C17     1.406   .     A
C11    C289    1.397   .     S
C12    O37     1.305   .     A
C12    O36     1.306   .     A
C13    C14     1.404   .     A
C13    O44     1.379   .     S
C13    C563    1.397   1_545 S
C14    C22     1.477   .     S
C14    C15     1.408   .     A
C15    O49     1.380   .     S
C15    C568    1.398   1_545 S
C16    C17     1.413   .     A
C16    O54     1.374   .     S
C16    C291    1.398   .     S
C18    O56     1.384   .     S
C18    N33     1.367   .     A
C18    C111    1.428   .     S
C19    N32     1.382   .     A
C19    O61     1.373   .     S
C19    C202    1.428   1_455 S
C20    N32     1.382   .     A
C20    O63     1.370   .     S
C20    C205    1.428   1_455 S
C21    N33     1.366   .     A
C21    O65     1.382   .     S
C21    C112    1.428   .     S
C22    O38     1.308   .     A
C22    O39     1.308   .     A
C23    O41     1.309   .     A
C23    C25     1.491   .     S
C23    O40     1.312   .     A
C24    C833    1.417   1_554 S
C24    O900    1.376   1_554 S
C26    C27     1.388   .     A
C26    H31     1.083   .     S
C27    C856    1.403   .     S
C27    O909    1.380   .     S
C28    O76     1.381   .     S
C28    C830    1.418   1_554 S
C28    C855    1.403   1_554 S
Cu29   O36     1.972   .     S
Cu29   N32     2.038   .     S
Cu29   O38     1.980   .     S
Cu29   O34     1.986   .     S
Cu29   Cu30    2.712   .     S
Cu29   O40     1.966   .     S
Cu30   O35     1.980   .     S
Cu30   O41     1.972   .     S
Cu30   O37     1.966   .     S
Cu30   N33     2.038   .     S
Cu30   O39     1.986   .     S
O42    H43     0.991   .     S
O44    C45     1.414   .     S
C45    H48     1.115   .     S
C45    H46     1.107   .     S
C45    H599    1.105   1_545 S
H47    C321    1.105   .     S
O49    C50     1.406   .     S
C50    H52     1.105   .     S
C50    H53     1.106   .     S
C50    H51     1.113   .     S
O54    H55     0.992   .     S
O56    C57     1.412   .     S
C57    H59     1.110   .     S
C57    H60     1.109   .     S
C57    H58     1.114   .     S
O61    H62     0.982   .     S
O63    H64     0.981   .     S
O65    C66     1.411   .     S
C66    H68     1.109   .     S
C66    H69     1.101   .     S
C66    H159    1.102   .     S
H67    C250    1.102   1_455 S
O70    H71     0.992   .     S
O72    H73     0.992   .     S
O72    C852    1.376   .     S
O74    H75     0.991   .     S
O76    C77     1.420   .     S
C77    H78     1.108   .     S
C77    H79     1.117   .     S
C77    H80     1.106   .     S
O81    C82     1.410   .     S
O81    C855    1.380   1_554 S
C82    H83     1.114   .     S
C82    H84     1.112   .     S
C82    H269    1.109   1_455 S
H85    C174    1.109   .     S
O86    H87     0.988   .     S
O88    C89     1.409   .     S
C89    H91     1.113   .     S
C89    H92     1.114   .     S
C89    H90     1.109   .     S
C93    O127    1.307   .     A
C93    O126    1.302   .     A
C93    C109    1.465   .     S
C94    C95     1.408   .     A
C94    C924    1.425   .     S
C94    C948    1.418   .     S
C95    C99     1.406   .     A
C95    C102    1.421   .     A
C96    C100    1.422   .     A
C96    C922    1.425   1_554 S
C96    C925    1.426   1_554 S
C97    C98     1.415   .     A
C97    C924    1.426   .     S
C97    C944    1.417   .     S
C98    O162    1.383   .     S
C98    C99     1.410   .     A
C99    O178    1.379   .     S
C100   C117    1.412   .     A
C100   O166    1.384   .     S
C101   C117    1.409   .     A
C101   O134    1.371   .     S
C101   C116    1.391   .     A
C102   C118    1.401   .     A
C102   C104    1.471   .     S
C103   O180    1.383   .     S
C103   C109    1.406   .     A
C103   C381    1.397   .     S
C104   O129    1.305   .     A
C104   O128    1.306   .     A
C105   C106    1.404   .     A
C105   O136    1.379   .     S
C105   C655    1.397   1_545 S
C106   C114    1.477   .     S
C106   C107    1.408   .     A
C107   O141    1.380   .     S
C107   C660    1.398   1_545 S
C108   C109    1.413   .     A
C108   O146    1.374   .     S
C108   C383    1.398   .     S
C110   O148    1.384   .     S
C110   N125    1.367   .     A
C110   C203    1.428   .     S
C111   N124    1.382   .     A
C111   O153    1.373   .     S
C112   N124    1.382   .     A
C112   O155    1.370   .     S
C113   N125    1.366   .     A
C113   O157    1.382   .     S
C113   C204    1.428   .     S
C114   O130    1.308   .     A
C114   O131    1.308   .     A
C115   O133    1.309   .     A
C115   C117    1.491   .     S
C115   O132    1.312   .     A
C116   C925    1.417   1_554 S
C116   O992    1.376   1_554 S
C118   C119    1.388   .     A
C118   H123    1.083   .     S
C119   C948    1.403   .     S
C119   O1001   1.380   .     S
C120   O168    1.381   .     S
C120   C922    1.418   1_554 S
C120   C947    1.403   1_554 S
Cu121  O128    1.972   .     S
Cu121  N124    2.038   .     S
Cu121  O130    1.980   .     S
Cu121  O126    1.986   .     S
Cu121  Cu122   2.712   .     S
Cu121  O132    1.966   .     S
Cu122  O127    1.980   .     S
Cu122  O133    1.972   .     S
Cu122  O129    1.966   .     S
Cu122  N125    2.038   .     S
Cu122  O131    1.986   .     S
O134   H135    0.991   .     S
O136   C137    1.414   .     S
C137   H140    1.115   .     S
C137   H138    1.107   .     S
C137   H691    1.105   1_545 S
H139   C413    1.105   .     S
O141   C142    1.406   .     S
C142   H144    1.105   .     S
C142   H145    1.106   .     S
C142   H143    1.113   .     S
O146   H147    0.992   .     S
O148   C149    1.412   .     S
C149   H151    1.110   .     S
C149   H152    1.109   .     S
C149   H150    1.114   .     S
O153   H154    0.982   .     S
O155   H156    0.981   .     S
O157   C158    1.411   .     S
C158   H160    1.109   .     S
C158   H161    1.101   .     S
C158   H251    1.102   .     S
O162   H163    0.992   .     S
O164   H165    0.992   .     S
O164   C944    1.376   .     S
O166   H167    0.991   .     S
O168   C169    1.420   .     S
C169   H170    1.108   .     S
C169   H171    1.117   .     S
C169   H172    1.106   .     S
O173   C174    1.410   .     S
O173   C947    1.380   1_554 S
C174   H175    1.114   .     S
C174   H176    1.112   .     S
H177   C266    1.109   .     S
O178   H179    0.988   .     S
O180   C181    1.409   .     S
C181   H183    1.113   .     S
C181   H184    1.114   .     S
C181   H182    1.109   .     S
C185   O219    1.307   .     A
C185   O218    1.302   .     A
C185   C201    1.465   .     S
C186   C187    1.408   .     A
C186   C1016   1.425   .     S
C186   C1040   1.418   .     S
C187   C191    1.406   .     A
C187   C194    1.421   .     A
C188   C192    1.422   .     A
C188   C1014   1.425   1_554 S
C188   C1017   1.426   1_554 S
C189   C190    1.415   .     A
C189   C1016   1.426   .     S
C189   C1036   1.417   .     S
C190   O254    1.383   .     S
C190   C191    1.410   .     A
C191   O270    1.379   .     S
C192   C209    1.412   .     A
C192   O258    1.384   .     S
C193   C209    1.409   .     A
C193   O226    1.371   .     S
C193   C208    1.391   .     A
C194   C210    1.401   .     A
C194   C196    1.471   .     S
C195   O272    1.383   .     S
C195   C201    1.406   .     A
C195   C473    1.397   .     S
C196   O221    1.305   .     A
C196   O220    1.306   .     A
C197   C198    1.404   .     A
C197   O228    1.379   .     S
C197   C747    1.397   1_545 S
C198   C206    1.477   .     S
C198   C199    1.408   .     A
C199   O233    1.380   .     S
C199   C752    1.398   1_545 S
C200   C201    1.413   .     A
C200   O238    1.374   .     S
C200   C475    1.398   .     S
C202   O240    1.384   .     S
C202   N217    1.367   .     A
C202   C19     1.428   1_655 S
C203   N216    1.382   .     A
C203   O245    1.373   .     S
C204   N216    1.382   .     A
C204   O247    1.370   .     S
C205   N217    1.366   .     A
C205   O249    1.382   .     S
C205   C20     1.428   1_655 S
C206   O222    1.308   .     A
C206   O223    1.308   .     A
C207   O225    1.309   .     A
C207   C209    1.491   .     S
C207   O224    1.312   .     A
C208   C1017   1.417   1_554 S
C208   O1084   1.376   1_554 S
C210   C211    1.388   .     A
C210   H215    1.083   .     S
C211   C1040   1.403   .     S
C211   O1093   1.380   .     S
C212   O260    1.381   .     S
C212   C1014   1.418   1_554 S
C212   C1039   1.403   1_554 S
Cu213  O220    1.972   .     S
Cu213  N216    2.038   .     S
Cu213  O222    1.980   .     S
Cu213  O218    1.986   .     S
Cu213  Cu214   2.712   .     S
Cu213  O224    1.966   .     S
Cu214  O219    1.980   .     S
Cu214  O225    1.972   .     S
Cu214  O221    1.966   .     S
Cu214  N217    2.038   .     S
Cu214  O223    1.986   .     S
O226   H227    0.991   .     S
O228   C229    1.414   .     S
C229   H232    1.115   .     S
C229   H230    1.107   .     S
C229   H783    1.105   1_545 S
H231   C505    1.105   .     S
O233   C234    1.406   .     S
C234   H236    1.105   .     S
C234   H237    1.106   .     S
C234   H235    1.113   .     S
O238   H239    0.992   .     S
O240   C241    1.412   .     S
C241   H243    1.110   .     S
C241   H244    1.109   .     S
C241   H242    1.114   .     S
O245   H246    0.982   .     S
O247   H248    0.981   .     S
O249   C250    1.411   .     S
C250   H252    1.109   .     S
C250   H253    1.101   .     S
C250   H67     1.102   1_655 S
O254   H255    0.992   .     S
O256   H257    0.992   .     S
O256   C1036   1.376   .     S
O258   H259    0.991   .     S
O260   C261    1.420   .     S
C261   H262    1.108   .     S
C261   H263    1.117   .     S
C261   H264    1.106   .     S
O265   C266    1.410   .     S
O265   C1039   1.380   1_554 S
C266   H267    1.114   .     S
C266   H268    1.112   .     S
H269   C82     1.109   1_655 S
O270   H271    0.988   .     S
O272   C273    1.409   .     S
C273   H275    1.113   .     S
C273   H276    1.114   .     S
C273   H274    1.109   .     S
C277   O311    1.307   .     A
C277   O310    1.302   .     A
C277   C293    1.465   .     S
C278   C279    1.408   .     A
C278   C1108   1.425   .     S
C278   C1132   1.418   .     S
C279   C283    1.406   .     A
C279   C286    1.421   .     A
C280   C284    1.422   .     A
C280   C1106   1.425   1_554 S
C280   C1109   1.426   1_554 S
C281   C282    1.415   .     A
C281   C1108   1.426   .     S
C281   C1128   1.417   .     S
C282   O346    1.383   .     S
C282   C283    1.410   .     A
C283   O362    1.379   .     S
C284   C301    1.412   .     A
C284   O350    1.384   .     S
C285   C301    1.409   .     A
C285   O318    1.371   .     S
C285   C300    1.391   .     A
C286   C302    1.401   .     A
C286   C288    1.471   .     S
C287   O364    1.383   .     S
C287   C293    1.406   .     A
C287   C565    1.397   .     S
C288   O313    1.305   .     A
C288   O312    1.306   .     A
C289   C290    1.404   .     A
C289   O320    1.379   .     S
C290   C298    1.477   .     S
C290   C291    1.408   .     A
C291   O325    1.380   .     S
C292   C293    1.413   .     A
C292   O330    1.374   .     S
C292   C567    1.398   .     S
C294   O332    1.384   .     S
C294   N309    1.367   .     A
C294   C387    1.428   .     S
C295   N308    1.382   .     A
C295   O337    1.373   .     S
C295   C478    1.428   1_455 S
C296   N308    1.382   .     A
C296   O339    1.370   .     S
C296   C481    1.428   1_455 S
C297   N309    1.366   .     A
C297   O341    1.382   .     S
C297   C388    1.428   .     S
C298   O314    1.308   .     A
C298   O315    1.308   .     A
C299   O317    1.309   .     A
C299   C301    1.491   .     S
C299   O316    1.312   .     A
C300   C1109   1.417   1_554 S
C300   O1176   1.376   1_554 S
C302   C303    1.388   .     A
C302   H307    1.083   .     S
C303   C1132   1.403   .     S
C303   O1185   1.380   .     S
C304   O352    1.381   .     S
C304   C1106   1.418   1_554 S
C304   C1131   1.403   1_554 S
Cu305  O312    1.972   .     S
Cu305  N308    2.038   .     S
Cu305  O314    1.980   .     S
Cu305  O310    1.986   .     S
Cu305  Cu306   2.712   .     S
Cu305  O316    1.966   .     S
Cu306  O311    1.980   .     S
Cu306  O317    1.972   .     S
Cu306  O313    1.966   .     S
Cu306  N309    2.038   .     S
Cu306  O315    1.986   .     S
O318   H319    0.991   .     S
O320   C321    1.414   .     S
C321   H324    1.115   .     S
C321   H322    1.107   .     S
H323   C597    1.105   .     S
O325   C326    1.406   .     S
C326   H328    1.105   .     S
C326   H329    1.106   .     S
C326   H327    1.113   .     S
O330   H331    0.992   .     S
O332   C333    1.412   .     S
C333   H335    1.110   .     S
C333   H336    1.109   .     S
C333   H334    1.114   .     S
O337   H338    0.982   .     S
O339   H340    0.981   .     S
O341   C342    1.411   .     S
C342   H344    1.109   .     S
C342   H345    1.101   .     S
C342   H435    1.102   .     S
H343   C526    1.102   1_455 S
O346   H347    0.992   .     S
O348   H349    0.992   .     S
O348   C1128   1.376   .     S
O350   H351    0.991   .     S
O352   C353    1.420   .     S
C353   H354    1.108   .     S
C353   H355    1.117   .     S
C353   H356    1.106   .     S
O357   C358    1.410   .     S
O357   C1131   1.380   1_554 S
C358   H359    1.114   .     S
C358   H360    1.112   .     S
C358   H545    1.109   1_455 S
H361   C450    1.109   .     S
O362   H363    0.988   .     S
O364   C365    1.409   .     S
C365   H367    1.113   .     S
C365   H368    1.114   .     S
C365   H366    1.109   .     S
C369   O403    1.307   .     A
C369   O402    1.302   .     A
C369   C385    1.465   .     S
C370   C371    1.408   .     A
C370   C1200   1.425   .     S
C370   C1224   1.418   .     S
C371   C375    1.406   .     A
C371   C378    1.421   .     A
C372   C376    1.422   .     A
C372   C1198   1.425   1_554 S
C372   C1201   1.426   1_554 S
C373   C374    1.415   .     A
C373   C1200   1.426   .     S
C373   C1220   1.417   .     S
C374   O438    1.383   .     S
C374   C375    1.410   .     A
C375   O454    1.379   .     S
C376   C393    1.412   .     A
C376   O442    1.384   .     S
C377   C393    1.409   .     A
C377   O410    1.371   .     S
C377   C392    1.391   .     A
C378   C394    1.401   .     A
C378   C380    1.471   .     S
C379   O456    1.383   .     S
C379   C385    1.406   .     A
C379   C657    1.397   .     S
C380   O405    1.305   .     A
C380   O404    1.306   .     A
C381   C382    1.404   .     A
C381   O412    1.379   .     S
C382   C390    1.477   .     S
C382   C383    1.408   .     A
C383   O417    1.380   .     S
C384   C385    1.413   .     A
C384   O422    1.374   .     S
C384   C659    1.398   .     S
C386   O424    1.384   .     S
C386   N401    1.367   .     A
C386   C479    1.428   .     S
C387   N400    1.382   .     A
C387   O429    1.373   .     S
C388   N400    1.382   .     A
C388   O431    1.370   .     S
C389   N401    1.366   .     A
C389   O433    1.382   .     S
C389   C480    1.428   .     S
C390   O406    1.308   .     A
C390   O407    1.308   .     A
C391   O409    1.309   .     A
C391   C393    1.491   .     S
C391   O408    1.312   .     A
C392   C1201   1.417   1_554 S
C392   O1268   1.376   1_554 S
C394   C395    1.388   .     A
C394   H399    1.083   .     S
C395   C1224   1.403   .     S
C395   O1277   1.380   .     S
C396   O444    1.381   .     S
C396   C1198   1.418   1_554 S
C396   C1223   1.403   1_554 S
Cu397  O404    1.972   .     S
Cu397  N400    2.038   .     S
Cu397  O406    1.980   .     S
Cu397  O402    1.986   .     S
Cu397  Cu398   2.712   .     S
Cu397  O408    1.966   .     S
Cu398  O403    1.980   .     S
Cu398  O409    1.972   .     S
Cu398  O405    1.966   .     S
Cu398  N401    2.038   .     S
Cu398  O407    1.986   .     S
O410   H411    0.991   .     S
O412   C413    1.414   .     S
C413   H416    1.115   .     S
C413   H414    1.107   .     S
H415   C689    1.105   .     S
O417   C418    1.406   .     S
C418   H420    1.105   .     S
C418   H421    1.106   .     S
C418   H419    1.113   .     S
O422   H423    0.992   .     S
O424   C425    1.412   .     S
C425   H427    1.110   .     S
C425   H428    1.109   .     S
C425   H426    1.114   .     S
O429   H430    0.982   .     S
O431   H432    0.981   .     S
O433   C434    1.411   .     S
C434   H436    1.109   .     S
C434   H437    1.101   .     S
C434   H527    1.102   .     S
O438   H439    0.992   .     S
O440   H441    0.992   .     S
O440   C1220   1.376   .     S
O442   H443    0.991   .     S
O444   C445    1.420   .     S
C445   H446    1.108   .     S
C445   H447    1.117   .     S
C445   H448    1.106   .     S
O449   C450    1.410   .     S
O449   C1223   1.380   1_554 S
C450   H451    1.114   .     S
C450   H452    1.112   .     S
H453   C542    1.109   .     S
O454   H455    0.988   .     S
O456   C457    1.409   .     S
C457   H459    1.113   .     S
C457   H460    1.114   .     S
C457   H458    1.109   .     S
C461   O495    1.307   .     A
C461   O494    1.302   .     A
C461   C477    1.465   .     S
C462   C463    1.408   .     A
C462   C1292   1.425   .     S
C462   C1316   1.418   .     S
C463   C467    1.406   .     A
C463   C470    1.421   .     A
C464   C468    1.422   .     A
C464   C1290   1.425   1_554 S
C464   C1293   1.426   1_554 S
C465   C466    1.415   .     A
C465   C1292   1.426   .     S
C465   C1312   1.417   .     S
C466   O530    1.383   .     S
C466   C467    1.410   .     A
C467   O546    1.379   .     S
C468   C485    1.412   .     A
C468   O534    1.384   .     S
C469   C485    1.409   .     A
C469   O502    1.371   .     S
C469   C484    1.391   .     A
C470   C486    1.401   .     A
C470   C472    1.471   .     S
C471   O548    1.383   .     S
C471   C477    1.406   .     A
C471   C749    1.397   .     S
C472   O497    1.305   .     A
C472   O496    1.306   .     A
C473   C474    1.404   .     A
C473   O504    1.379   .     S
C474   C482    1.477   .     S
C474   C475    1.408   .     A
C475   O509    1.380   .     S
C476   C477    1.413   .     A
C476   O514    1.374   .     S
C476   C751    1.398   .     S
C478   O516    1.384   .     S
C478   N493    1.367   .     A
C478   C295    1.428   1_655 S
C479   N492    1.382   .     A
C479   O521    1.373   .     S
C480   N492    1.382   .     A
C480   O523    1.370   .     S
C481   N493    1.366   .     A
C481   O525    1.382   .     S
C481   C296    1.428   1_655 S
C482   O498    1.308   .     A
C482   O499    1.308   .     A
C483   O501    1.309   .     A
C483   C485    1.491   .     S
C483   O500    1.312   .     A
C484   C1293   1.417   1_554 S
C484   O1360   1.376   1_554 S
C486   C487    1.388   .     A
C486   H491    1.083   .     S
C487   C1316   1.403   .     S
C487   O1369   1.380   .     S
C488   O536    1.381   .     S
C488   C1290   1.418   1_554 S
C488   C1315   1.403   1_554 S
Cu489  O496    1.972   .     S
Cu489  N492    2.038   .     S
Cu489  O498    1.980   .     S
Cu489  O494    1.986   .     S
Cu489  Cu490   2.712   .     S
Cu489  O500    1.966   .     S
Cu490  O495    1.980   .     S
Cu490  O501    1.972   .     S
Cu490  O497    1.966   .     S
Cu490  N493    2.038   .     S
Cu490  O499    1.986   .     S
O502   H503    0.991   .     S
O504   C505    1.414   .     S
C505   H508    1.115   .     S
C505   H506    1.107   .     S
H507   C781    1.105   .     S
O509   C510    1.406   .     S
C510   H512    1.105   .     S
C510   H513    1.106   .     S
C510   H511    1.113   .     S
O514   H515    0.992   .     S
O516   C517    1.412   .     S
C517   H519    1.110   .     S
C517   H520    1.109   .     S
C517   H518    1.114   .     S
O521   H522    0.982   .     S
O523   H524    0.981   .     S
O525   C526    1.411   .     S
C526   H528    1.109   .     S
C526   H529    1.101   .     S
C526   H343    1.102   1_655 S
O530   H531    0.992   .     S
O532   H533    0.992   .     S
O532   C1312   1.376   .     S
O534   H535    0.991   .     S
O536   C537    1.420   .     S
C537   H538    1.108   .     S
C537   H539    1.117   .     S
C537   H540    1.106   .     S
O541   C542    1.410   .     S
O541   C1315   1.380   1_554 S
C542   H543    1.114   .     S
C542   H544    1.112   .     S
H545   C358    1.109   1_655 S
O546   H547    0.988   .     S
O548   C549    1.409   .     S
C549   H551    1.113   .     S
C549   H552    1.114   .     S
C549   H550    1.109   .     S
C553   O587    1.307   .     A
C553   O586    1.302   .     A
C553   C569    1.465   .     S
C554   C555    1.408   .     A
C554   C1384   1.425   .     S
C554   C1408   1.418   .     S
C555   C559    1.406   .     A
C555   C562    1.421   .     A
C556   C560    1.422   .     A
C556   C1382   1.425   1_554 S
C556   C1385   1.426   1_554 S
C557   C558    1.415   .     A
C557   C1384   1.426   .     S
C557   C1404   1.417   .     S
C558   O622    1.383   .     S
C558   C559    1.410   .     A
C559   O638    1.379   .     S
C560   C577    1.412   .     A
C560   O626    1.384   .     S
C561   C577    1.409   .     A
C561   O594    1.371   .     S
C561   C576    1.391   .     A
C562   C578    1.401   .     A
C562   C564    1.471   .     S
C563   O640    1.383   .     S
C563   C569    1.406   .     A
C563   C13     1.397   1_565 S
C564   O589    1.305   .     A
C564   O588    1.306   .     A
C565   C566    1.404   .     A
C565   O596    1.379   .     S
C566   C574    1.477   .     S
C566   C567    1.408   .     A
C567   O601    1.380   .     S
C568   C569    1.413   .     A
C568   O606    1.374   .     S
C568   C15     1.398   1_565 S
C570   O608    1.384   .     S
C570   N585    1.367   .     A
C570   C663    1.428   .     S
C571   N584    1.382   .     A
C571   O613    1.373   .     S
C571   C754    1.428   1_455 S
C572   N584    1.382   .     A
C572   O615    1.370   .     S
C572   C757    1.428   1_455 S
C573   N585    1.366   .     A
C573   O617    1.382   .     S
C573   C664    1.428   .     S
C574   O590    1.308   .     A
C574   O591    1.308   .     A
C575   O593    1.309   .     A
C575   C577    1.491   .     S
C575   O592    1.312   .     A
C576   C1385   1.417   1_554 S
C576   O1452   1.376   1_554 S
C578   C579    1.388   .     A
C578   H583    1.083   .     S
C579   C1408   1.403   .     S
C579   O1461   1.380   .     S
C580   O628    1.381   .     S
C580   C1382   1.418   1_554 S
C580   C1407   1.403   1_554 S
Cu581  O588    1.972   .     S
Cu581  N584    2.038   .     S
Cu581  O590    1.980   .     S
Cu581  O586    1.986   .     S
Cu581  Cu582   2.712   .     S
Cu581  O592    1.966   .     S
Cu582  O587    1.980   .     S
Cu582  O593    1.972   .     S
Cu582  O589    1.966   .     S
Cu582  N585    2.038   .     S
Cu582  O591    1.986   .     S
O594   H595    0.991   .     S
O596   C597    1.414   .     S
C597   H600    1.115   .     S
C597   H598    1.107   .     S
H599   C45     1.105   1_565 S
O601   C602    1.406   .     S
C602   H604    1.105   .     S
C602   H605    1.106   .     S
C602   H603    1.113   .     S
O606   H607    0.992   .     S
O608   C609    1.412   .     S
C609   H611    1.110   .     S
C609   H612    1.109   .     S
C609   H610    1.114   .     S
O613   H614    0.982   .     S
O615   H616    0.981   .     S
O617   C618    1.411   .     S
C618   H620    1.109   .     S
C618   H621    1.101   .     S
C618   H711    1.102   .     S
H619   C802    1.102   1_455 S
O622   H623    0.992   .     S
O624   H625    0.992   .     S
O624   C1404   1.376   .     S
O626   H627    0.991   .     S
O628   C629    1.420   .     S
C629   H630    1.108   .     S
C629   H631    1.117   .     S
C629   H632    1.106   .     S
O633   C634    1.410   .     S
O633   C1407   1.380   1_554 S
C634   H635    1.114   .     S
C634   H636    1.112   .     S
C634   H821    1.109   1_455 S
H637   C726    1.109   .     S
O638   H639    0.988   .     S
O640   C641    1.409   .     S
C641   H643    1.113   .     S
C641   H644    1.114   .     S
C641   H642    1.109   .     S
C645   O679    1.307   .     A
C645   O678    1.302   .     A
C645   C661    1.465   .     S
C646   C647    1.408   .     A
C646   C1476   1.425   .     S
C646   C1500   1.418   .     S
C647   C651    1.406   .     A
C647   C654    1.421   .     A
C648   C652    1.422   .     A
C648   C1474   1.425   1_554 S
C648   C1477   1.426   1_554 S
C649   C650    1.415   .     A
C649   C1476   1.426   .     S
C649   C1496   1.417   .     S
C650   O714    1.383   .     S
C650   C651    1.410   .     A
C651   O730    1.379   .     S
C652   C669    1.412   .     A
C652   O718    1.384   .     S
C653   C669    1.409   .     A
C653   O686    1.371   .     S
C653   C668    1.391   .     A
C654   C670    1.401   .     A
C654   C656    1.471   .     S
C655   O732    1.383   .     S
C655   C661    1.406   .     A
C655   C105    1.397   1_565 S
C656   O681    1.305   .     A
C656   O680    1.306   .     A
C657   C658    1.404   .     A
C657   O688    1.379   .     S
C658   C666    1.477   .     S
C658   C659    1.408   .     A
C659   O693    1.380   .     S
C660   C661    1.413   .     A
C660   O698    1.374   .     S
C660   C107    1.398   1_565 S
C662   O700    1.384   .     S
C662   N677    1.367   .     A
C662   C755    1.428   .     S
C663   N676    1.382   .     A
C663   O705    1.373   .     S
C664   N676    1.382   .     A
C664   O707    1.370   .     S
C665   N677    1.366   .     A
C665   O709    1.382   .     S
C665   C756    1.428   .     S
C666   O682    1.308   .     A
C666   O683    1.308   .     A
C667   O685    1.309   .     A
C667   C669    1.491   .     S
C667   O684    1.312   .     A
C668   C1477   1.417   1_554 S
C668   O1544   1.376   1_554 S
C670   C671    1.388   .     A
C670   H675    1.083   .     S
C671   C1500   1.403   .     S
C671   O1553   1.380   .     S
C672   O720    1.381   .     S
C672   C1474   1.418   1_554 S
C672   C1499   1.403   1_554 S
Cu673  O680    1.972   .     S
Cu673  N676    2.038   .     S
Cu673  O682    1.980   .     S
Cu673  O678    1.986   .     S
Cu673  Cu674   2.712   .     S
Cu673  O684    1.966   .     S
Cu674  O679    1.980   .     S
Cu674  O685    1.972   .     S
Cu674  O681    1.966   .     S
Cu674  N677    2.038   .     S
Cu674  O683    1.986   .     S
O686   H687    0.991   .     S
O688   C689    1.414   .     S
C689   H692    1.115   .     S
C689   H690    1.107   .     S
H691   C137    1.105   1_565 S
O693   C694    1.406   .     S
C694   H696    1.105   .     S
C694   H697    1.106   .     S
C694   H695    1.113   .     S
O698   H699    0.992   .     S
O700   C701    1.412   .     S
C701   H703    1.110   .     S
C701   H704    1.109   .     S
C701   H702    1.114   .     S
O705   H706    0.982   .     S
O707   H708    0.981   .     S
O709   C710    1.411   .     S
C710   H712    1.109   .     S
C710   H713    1.101   .     S
C710   H803    1.102   .     S
O714   H715    0.992   .     S
O716   H717    0.992   .     S
O716   C1496   1.376   .     S
O718   H719    0.991   .     S
O720   C721    1.420   .     S
C721   H722    1.108   .     S
C721   H723    1.117   .     S
C721   H724    1.106   .     S
O725   C726    1.410   .     S
O725   C1499   1.380   1_554 S
C726   H727    1.114   .     S
C726   H728    1.112   .     S
H729   C818    1.109   .     S
O730   H731    0.988   .     S
O732   C733    1.409   .     S
C733   H735    1.113   .     S
C733   H736    1.114   .     S
C733   H734    1.109   .     S
C737   O771    1.307   .     A
C737   O770    1.302   .     A
C737   C753    1.465   .     S
C738   C739    1.408   .     A
C738   C1568   1.425   .     S
C738   C1592   1.418   .     S
C739   C743    1.406   .     A
C739   C746    1.421   .     A
C740   C744    1.422   .     A
C740   C1566   1.425   1_554 S
C740   C1569   1.426   1_554 S
C741   C742    1.415   .     A
C741   C1568   1.426   .     S
C741   C1588   1.417   .     S
C742   O806    1.383   .     S
C742   C743    1.410   .     A
C743   O822    1.379   .     S
C744   C761    1.412   .     A
C744   O810    1.384   .     S
C745   C761    1.409   .     A
C745   O778    1.371   .     S
C745   C760    1.391   .     A
C746   C762    1.401   .     A
C746   C748    1.471   .     S
C747   O824    1.383   .     S
C747   C753    1.406   .     A
C747   C197    1.397   1_565 S
C748   O773    1.305   .     A
C748   O772    1.306   .     A
C749   C750    1.404   .     A
C749   O780    1.379   .     S
C750   C758    1.477   .     S
C750   C751    1.408   .     A
C751   O785    1.380   .     S
C752   C753    1.413   .     A
C752   O790    1.374   .     S
C752   C199    1.398   1_565 S
C754   O792    1.384   .     S
C754   N769    1.367   .     A
C754   C571    1.428   1_655 S
C755   N768    1.382   .     A
C755   O797    1.373   .     S
C756   N768    1.382   .     A
C756   O799    1.370   .     S
C757   N769    1.366   .     A
C757   O801    1.382   .     S
C757   C572    1.428   1_655 S
C758   O774    1.308   .     A
C758   O775    1.308   .     A
C759   O777    1.309   .     A
C759   C761    1.491   .     S
C759   O776    1.312   .     A
C760   C1569   1.417   1_554 S
C760   O1636   1.376   1_554 S
C762   C763    1.388   .     A
C762   H767    1.083   .     S
C763   C1592   1.403   .     S
C763   O1645   1.380   .     S
C764   O812    1.381   .     S
C764   C1566   1.418   1_554 S
C764   C1591   1.403   1_554 S
Cu765  O772    1.972   .     S
Cu765  N768    2.038   .     S
Cu765  O774    1.980   .     S
Cu765  O770    1.986   .     S
Cu765  Cu766   2.712   .     S
Cu765  O776    1.966   .     S
Cu766  O771    1.980   .     S
Cu766  O777    1.972   .     S
Cu766  O773    1.966   .     S
Cu766  N769    2.038   .     S
Cu766  O775    1.986   .     S
O778   H779    0.991   .     S
O780   C781    1.414   .     S
C781   H784    1.115   .     S
C781   H782    1.107   .     S
H783   C229    1.105   1_565 S
O785   C786    1.406   .     S
C786   H788    1.105   .     S
C786   H789    1.106   .     S
C786   H787    1.113   .     S
O790   H791    0.992   .     S
O792   C793    1.412   .     S
C793   H795    1.110   .     S
C793   H796    1.109   .     S
C793   H794    1.114   .     S
O797   H798    0.982   .     S
O799   H800    0.981   .     S
O801   C802    1.411   .     S
C802   H804    1.109   .     S
C802   H805    1.101   .     S
C802   H619    1.102   1_655 S
O806   H807    0.992   .     S
O808   H809    0.992   .     S
O808   C1588   1.376   .     S
O810   H811    0.991   .     S
O812   C813    1.420   .     S
C813   H814    1.108   .     S
C813   H815    1.117   .     S
C813   H816    1.106   .     S
O817   C818    1.410   .     S
O817   C1591   1.380   1_554 S
C818   H819    1.114   .     S
C818   H820    1.112   .     S
H821   C634    1.109   1_655 S
O822   H823    0.988   .     S
O824   C825    1.409   .     S
C825   H827    1.113   .     S
C825   H828    1.114   .     S
C825   H826    1.109   .     S
C829   O863    1.307   .     A
C829   O862    1.302   .     A
C829   C845    1.465   .     S
C830   C831    1.408   .     A
C830   C4      1.425   1_556 S
C830   C28     1.418   1_556 S
C831   C835    1.406   .     A
C831   C838    1.421   .     A
C832   C836    1.422   .     A
C833   C834    1.415   .     A
C833   C4      1.426   1_556 S
C833   C24     1.417   1_556 S
C834   O898    1.383   .     S
C834   C835    1.410   .     A
C835   O914    1.379   .     S
C836   C853    1.412   .     A
C836   O902    1.384   .     S
C837   C853    1.409   .     A
C837   O870    1.371   .     S
C837   C852    1.391   .     A
C838   C854    1.401   .     A
C838   C840    1.471   .     S
C839   O916    1.383   .     S
C839   C845    1.406   .     A
C839   C1117   1.397   .     S
C840   O865    1.305   .     A
C840   O864    1.306   .     A
C841   C842    1.404   .     A
C841   O872    1.379   .     S
C841   C1391   1.397   1_545 S
C842   C850    1.477   .     S
C842   C843    1.408   .     A
C843   O877    1.380   .     S
C843   C1396   1.398   1_545 S
C844   C845    1.413   .     A
C844   O882    1.374   .     S
C844   C1119   1.398   .     S
C846   O884    1.384   .     S
C846   N861    1.367   .     A
C846   C939    1.428   .     S
C847   N860    1.382   .     A
C847   O889    1.373   .     S
C847   C1030   1.428   1_455 S
C848   N860    1.382   .     A
C848   O891    1.370   .     S
C848   C1033   1.428   1_455 S
C849   N861    1.366   .     A
C849   O893    1.382   .     S
C849   C940    1.428   .     S
C850   O866    1.308   .     A
C850   O867    1.308   .     A
C851   O869    1.309   .     A
C851   C853    1.491   .     S
C851   O868    1.312   .     A
C854   C855    1.388   .     A
C854   H859    1.083   .     S
C855   C28     1.403   1_556 S
C855   O81     1.380   1_556 S
C856   O904    1.381   .     S
Cu857  O864    1.972   .     S
Cu857  N860    2.038   .     S
Cu857  O866    1.980   .     S
Cu857  O862    1.986   .     S
Cu857  Cu858   2.712   .     S
Cu857  O868    1.966   .     S
Cu858  O863    1.980   .     S
Cu858  O869    1.972   .     S
Cu858  O865    1.966   .     S
Cu858  N861    2.038   .     S
Cu858  O867    1.986   .     S
O870   H871    0.991   .     S
O872   C873    1.414   .     S
C873   H876    1.115   .     S
C873   H874    1.107   .     S
C873   H1427   1.105   1_545 S
H875   C1149   1.105   .     S
O877   C878    1.406   .     S
C878   H880    1.105   .     S
C878   H881    1.106   .     S
C878   H879    1.113   .     S
O882   H883    0.992   .     S
O884   C885    1.412   .     S
C885   H887    1.110   .     S
C885   H888    1.109   .     S
C885   H886    1.114   .     S
O889   H890    0.982   .     S
O891   H892    0.981   .     S
O893   C894    1.411   .     S
C894   H896    1.109   .     S
C894   H897    1.101   .     S
C894   H987    1.102   .     S
H895   C1078   1.102   1_455 S
O898   H899    0.992   .     S
O900   H901    0.992   .     S
O900   C24     1.376   1_556 S
O902   H903    0.991   .     S
O904   C905    1.420   .     S
C905   H906    1.108   .     S
C905   H907    1.117   .     S
C905   H908    1.106   .     S
O909   C910    1.410   .     S
C910   H911    1.114   .     S
C910   H912    1.112   .     S
C910   H1097   1.109   1_455 S
H913   C1002   1.109   .     S
O914   H915    0.988   .     S
O916   C917    1.409   .     S
C917   H919    1.113   .     S
C917   H920    1.114   .     S
C917   H918    1.109   .     S
C921   O955    1.307   .     A
C921   O954    1.302   .     A
C921   C937    1.465   .     S
C922   C923    1.408   .     A
C922   C96     1.425   1_556 S
C922   C120    1.418   1_556 S
C923   C927    1.406   .     A
C923   C930    1.421   .     A
C924   C928    1.422   .     A
C925   C926    1.415   .     A
C925   C96     1.426   1_556 S
C925   C116    1.417   1_556 S
C926   O990    1.383   .     S
C926   C927    1.410   .     A
C927   O1006   1.379   .     S
C928   C945    1.412   .     A
C928   O994    1.384   .     S
C929   C945    1.409   .     A
C929   O962    1.371   .     S
C929   C944    1.391   .     A
C930   C946    1.401   .     A
C930   C932    1.471   .     S
C931   O1008   1.383   .     S
C931   C937    1.406   .     A
C931   C1209   1.397   .     S
C932   O957    1.305   .     A
C932   O956    1.306   .     A
C933   C934    1.404   .     A
C933   O964    1.379   .     S
C933   C1483   1.397   1_545 S
C934   C942    1.477   .     S
C934   C935    1.408   .     A
C935   O969    1.380   .     S
C935   C1488   1.398   1_545 S
C936   C937    1.413   .     A
C936   O974    1.374   .     S
C936   C1211   1.398   .     S
C938   O976    1.384   .     S
C938   N953    1.367   .     A
C938   C1031   1.428   .     S
C939   N952    1.382   .     A
C939   O981    1.373   .     S
C940   N952    1.382   .     A
C940   O983    1.370   .     S
C941   N953    1.366   .     A
C941   O985    1.382   .     S
C941   C1032   1.428   .     S
C942   O958    1.308   .     A
C942   O959    1.308   .     A
C943   O961    1.309   .     A
C943   C945    1.491   .     S
C943   O960    1.312   .     A
C946   C947    1.388   .     A
C946   H951    1.083   .     S
C947   C120    1.403   1_556 S
C947   O173    1.380   1_556 S
C948   O996    1.381   .     S
Cu949  O956    1.972   .     S
Cu949  N952    2.038   .     S
Cu949  O958    1.980   .     S
Cu949  O954    1.986   .     S
Cu949  Cu950   2.712   .     S
Cu949  O960    1.966   .     S
Cu950  O955    1.980   .     S
Cu950  O961    1.972   .     S
Cu950  O957    1.966   .     S
Cu950  N953    2.038   .     S
Cu950  O959    1.986   .     S
O962   H963    0.991   .     S
O964   C965    1.414   .     S
C965   H968    1.115   .     S
C965   H966    1.107   .     S
C965   H1519   1.105   1_545 S
H967   C1241   1.105   .     S
O969   C970    1.406   .     S
C970   H972    1.105   .     S
C970   H973    1.106   .     S
C970   H971    1.113   .     S
O974   H975    0.992   .     S
O976   C977    1.412   .     S
C977   H979    1.110   .     S
C977   H980    1.109   .     S
C977   H978    1.114   .     S
O981   H982    0.982   .     S
O983   H984    0.981   .     S
O985   C986    1.411   .     S
C986   H988    1.109   .     S
C986   H989    1.101   .     S
C986   H1079   1.102   .     S
O990   H991    0.992   .     S
O992   H993    0.992   .     S
O992   C116    1.376   1_556 S
O994   H995    0.991   .     S
O996   C997    1.420   .     S
C997   H998    1.108   .     S
C997   H999    1.117   .     S
C997   H1000   1.106   .     S
O1001  C1002   1.410   .     S
C1002  H1003   1.114   .     S
C1002  H1004   1.112   .     S
H1005  C1094   1.109   .     S
O1006  H1007   0.988   .     S
O1008  C1009   1.409   .     S
C1009  H1011   1.113   .     S
C1009  H1012   1.114   .     S
C1009  H1010   1.109   .     S
C1013  O1047   1.307   .     A
C1013  O1046   1.302   .     A
C1013  C1029   1.465   .     S
C1014  C1015   1.408   .     A
C1014  C188    1.425   1_556 S
C1014  C212    1.418   1_556 S
C1015  C1019   1.406   .     A
C1015  C1022   1.421   .     A
C1016  C1020   1.422   .     A
C1017  C1018   1.415   .     A
C1017  C188    1.426   1_556 S
C1017  C208    1.417   1_556 S
C1018  O1082   1.383   .     S
C1018  C1019   1.410   .     A
C1019  O1098   1.379   .     S
C1020  C1037   1.412   .     A
C1020  O1086   1.384   .     S
C1021  C1037   1.409   .     A
C1021  O1054   1.371   .     S
C1021  C1036   1.391   .     A
C1022  C1038   1.401   .     A
C1022  C1024   1.471   .     S
C1023  O1100   1.383   .     S
C1023  C1029   1.406   .     A
C1023  C1301   1.397   .     S
C1024  O1049   1.305   .     A
C1024  O1048   1.306   .     A
C1025  C1026   1.404   .     A
C1025  O1056   1.379   .     S
C1025  C1575   1.397   1_545 S
C1026  C1034   1.477   .     S
C1026  C1027   1.408   .     A
C1027  O1061   1.380   .     S
C1027  C1580   1.398   1_545 S
C1028  C1029   1.413   .     A
C1028  O1066   1.374   .     S
C1028  C1303   1.398   .     S
C1030  O1068   1.384   .     S
C1030  N1045   1.367   .     A
C1030  C847    1.428   1_655 S
C1031  N1044   1.382   .     A
C1031  O1073   1.373   .     S
C1032  N1044   1.382   .     A
C1032  O1075   1.370   .     S
C1033  N1045   1.366   .     A
C1033  O1077   1.382   .     S
C1033  C848    1.428   1_655 S
C1034  O1050   1.308   .     A
C1034  O1051   1.308   .     A
C1035  O1053   1.309   .     A
C1035  C1037   1.491   .     S
C1035  O1052   1.312   .     A
C1038  C1039   1.388   .     A
C1038  H1043   1.083   .     S
C1039  C212    1.403   1_556 S
C1039  O265    1.380   1_556 S
C1040  O1088   1.381   .     S
Cu1041 O1048   1.972   .     S
Cu1041 N1044   2.038   .     S
Cu1041 O1050   1.980   .     S
Cu1041 O1046   1.986   .     S
Cu1041 Cu1042  2.712   .     S
Cu1041 O1052   1.966   .     S
Cu1042 O1047   1.980   .     S
Cu1042 O1053   1.972   .     S
Cu1042 O1049   1.966   .     S
Cu1042 N1045   2.038   .     S
Cu1042 O1051   1.986   .     S
O1054  H1055   0.991   .     S
O1056  C1057   1.414   .     S
C1057  H1060   1.115   .     S
C1057  H1058   1.107   .     S
C1057  H1611   1.105   1_545 S
H1059  C1333   1.105   .     S
O1061  C1062   1.406   .     S
C1062  H1064   1.105   .     S
C1062  H1065   1.106   .     S
C1062  H1063   1.113   .     S
O1066  H1067   0.992   .     S
O1068  C1069   1.412   .     S
C1069  H1071   1.110   .     S
C1069  H1072   1.109   .     S
C1069  H1070   1.114   .     S
O1073  H1074   0.982   .     S
O1075  H1076   0.981   .     S
O1077  C1078   1.411   .     S
C1078  H1080   1.109   .     S
C1078  H1081   1.101   .     S
C1078  H895    1.102   1_655 S
O1082  H1083   0.992   .     S
O1084  H1085   0.992   .     S
O1084  C208    1.376   1_556 S
O1086  H1087   0.991   .     S
O1088  C1089   1.420   .     S
C1089  H1090   1.108   .     S
C1089  H1091   1.117   .     S
C1089  H1092   1.106   .     S
O1093  C1094   1.410   .     S
C1094  H1095   1.114   .     S
C1094  H1096   1.112   .     S
H1097  C910    1.109   1_655 S
O1098  H1099   0.988   .     S
O1100  C1101   1.409   .     S
C1101  H1103   1.113   .     S
C1101  H1104   1.114   .     S
C1101  H1102   1.109   .     S
C1105  O1139   1.307   .     A
C1105  O1138   1.302   .     A
C1105  C1121   1.465   .     S
C1106  C1107   1.408   .     A
C1106  C280    1.425   1_556 S
C1106  C304    1.418   1_556 S
C1107  C1111   1.406   .     A
C1107  C1114   1.421   .     A
C1108  C1112   1.422   .     A
C1109  C1110   1.415   .     A
C1109  C280    1.426   1_556 S
C1109  C300    1.417   1_556 S
C1110  O1174   1.383   .     S
C1110  C1111   1.410   .     A
C1111  O1190   1.379   .     S
C1112  C1129   1.412   .     A
C1112  O1178   1.384   .     S
C1113  C1129   1.409   .     A
C1113  O1146   1.371   .     S
C1113  C1128   1.391   .     A
C1114  C1130   1.401   .     A
C1114  C1116   1.471   .     S
C1115  O1192   1.383   .     S
C1115  C1121   1.406   .     A
C1115  C1393   1.397   .     S
C1116  O1141   1.305   .     A
C1116  O1140   1.306   .     A
C1117  C1118   1.404   .     A
C1117  O1148   1.379   .     S
C1118  C1126   1.477   .     S
C1118  C1119   1.408   .     A
C1119  O1153   1.380   .     S
C1120  C1121   1.413   .     A
C1120  O1158   1.374   .     S
C1120  C1395   1.398   .     S
C1122  O1160   1.384   .     S
C1122  N1137   1.367   .     A
C1122  C1215   1.428   .     S
C1123  N1136   1.382   .     A
C1123  O1165   1.373   .     S
C1123  C1306   1.428   1_455 S
C1124  N1136   1.382   .     A
C1124  O1167   1.370   .     S
C1124  C1309   1.428   1_455 S
C1125  N1137   1.366   .     A
C1125  O1169   1.382   .     S
C1125  C1216   1.428   .     S
C1126  O1142   1.308   .     A
C1126  O1143   1.308   .     A
C1127  O1145   1.309   .     A
C1127  C1129   1.491   .     S
C1127  O1144   1.312   .     A
C1130  C1131   1.388   .     A
C1130  H1135   1.083   .     S
C1131  C304    1.403   1_556 S
C1131  O357    1.380   1_556 S
C1132  O1180   1.381   .     S
Cu1133 O1140   1.972   .     S
Cu1133 N1136   2.038   .     S
Cu1133 O1142   1.980   .     S
Cu1133 O1138   1.986   .     S
Cu1133 Cu1134  2.712   .     S
Cu1133 O1144   1.966   .     S
Cu1134 O1139   1.980   .     S
Cu1134 O1145   1.972   .     S
Cu1134 O1141   1.966   .     S
Cu1134 N1137   2.038   .     S
Cu1134 O1143   1.986   .     S
O1146  H1147   0.991   .     S
O1148  C1149   1.414   .     S
C1149  H1152   1.115   .     S
C1149  H1150   1.107   .     S
H1151  C1425   1.105   .     S
O1153  C1154   1.406   .     S
C1154  H1156   1.105   .     S
C1154  H1157   1.106   .     S
C1154  H1155   1.113   .     S
O1158  H1159   0.992   .     S
O1160  C1161   1.412   .     S
C1161  H1163   1.110   .     S
C1161  H1164   1.109   .     S
C1161  H1162   1.114   .     S
O1165  H1166   0.982   .     S
O1167  H1168   0.981   .     S
O1169  C1170   1.411   .     S
C1170  H1172   1.109   .     S
C1170  H1173   1.101   .     S
C1170  H1263   1.102   .     S
H1171  C1354   1.102   1_455 S
O1174  H1175   0.992   .     S
O1176  H1177   0.992   .     S
O1176  C300    1.376   1_556 S
O1178  H1179   0.991   .     S
O1180  C1181   1.420   .     S
C1181  H1182   1.108   .     S
C1181  H1183   1.117   .     S
C1181  H1184   1.106   .     S
O1185  C1186   1.410   .     S
C1186  H1187   1.114   .     S
C1186  H1188   1.112   .     S
C1186  H1373   1.109   1_455 S
H1189  C1278   1.109   .     S
O1190  H1191   0.988   .     S
O1192  C1193   1.409   .     S
C1193  H1195   1.113   .     S
C1193  H1196   1.114   .     S
C1193  H1194   1.109   .     S
C1197  O1231   1.307   .     A
C1197  O1230   1.302   .     A
C1197  C1213   1.465   .     S
C1198  C1199   1.408   .     A
C1198  C372    1.425   1_556 S
C1198  C396    1.418   1_556 S
C1199  C1203   1.406   .     A
C1199  C1206   1.421   .     A
C1200  C1204   1.422   .     A
C1201  C1202   1.415   .     A
C1201  C372    1.426   1_556 S
C1201  C392    1.417   1_556 S
C1202  O1266   1.383   .     S
C1202  C1203   1.410   .     A
C1203  O1282   1.379   .     S
C1204  C1221   1.412   .     A
C1204  O1270   1.384   .     S
C1205  C1221   1.409   .     A
C1205  O1238   1.371   .     S
C1205  C1220   1.391   .     A
C1206  C1222   1.401   .     A
C1206  C1208   1.471   .     S
C1207  O1284   1.383   .     S
C1207  C1213   1.406   .     A
C1207  C1485   1.397   .     S
C1208  O1233   1.305   .     A
C1208  O1232   1.306   .     A
C1209  C1210   1.404   .     A
C1209  O1240   1.379   .     S
C1210  C1218   1.477   .     S
C1210  C1211   1.408   .     A
C1211  O1245   1.380   .     S
C1212  C1213   1.413   .     A
C1212  O1250   1.374   .     S
C1212  C1487   1.398   .     S
C1214  O1252   1.384   .     S
C1214  N1229   1.367   .     A
C1214  C1307   1.428   .     S
C1215  N1228   1.382   .     A
C1215  O1257   1.373   .     S
C1216  N1228   1.382   .     A
C1216  O1259   1.370   .     S
C1217  N1229   1.366   .     A
C1217  O1261   1.382   .     S
C1217  C1308   1.428   .     S
C1218  O1234   1.308   .     A
C1218  O1235   1.308   .     A
C1219  O1237   1.309   .     A
C1219  C1221   1.491   .     S
C1219  O1236   1.312   .     A
C1222  C1223   1.388   .     A
C1222  H1227   1.083   .     S
C1223  C396    1.403   1_556 S
C1223  O449    1.380   1_556 S
C1224  O1272   1.381   .     S
Cu1225 O1232   1.972   .     S
Cu1225 N1228   2.038   .     S
Cu1225 O1234   1.980   .     S
Cu1225 O1230   1.986   .     S
Cu1225 Cu1226  2.712   .     S
Cu1225 O1236   1.966   .     S
Cu1226 O1231   1.980   .     S
Cu1226 O1237   1.972   .     S
Cu1226 O1233   1.966   .     S
Cu1226 N1229   2.038   .     S
Cu1226 O1235   1.986   .     S
O1238  H1239   0.991   .     S
O1240  C1241   1.414   .     S
C1241  H1244   1.115   .     S
C1241  H1242   1.107   .     S
H1243  C1517   1.105   .     S
O1245  C1246   1.406   .     S
C1246  H1248   1.105   .     S
C1246  H1249   1.106   .     S
C1246  H1247   1.113   .     S
O1250  H1251   0.992   .     S
O1252  C1253   1.412   .     S
C1253  H1255   1.110   .     S
C1253  H1256   1.109   .     S
C1253  H1254   1.114   .     S
O1257  H1258   0.982   .     S
O1259  H1260   0.981   .     S
O1261  C1262   1.411   .     S
C1262  H1264   1.109   .     S
C1262  H1265   1.101   .     S
C1262  H1355   1.102   .     S
O1266  H1267   0.992   .     S
O1268  H1269   0.992   .     S
O1268  C392    1.376   1_556 S
O1270  H1271   0.991   .     S
O1272  C1273   1.420   .     S
C1273  H1274   1.108   .     S
C1273  H1275   1.117   .     S
C1273  H1276   1.106   .     S
O1277  C1278   1.410   .     S
C1278  H1279   1.114   .     S
C1278  H1280   1.112   .     S
H1281  C1370   1.109   .     S
O1282  H1283   0.988   .     S
O1284  C1285   1.409   .     S
C1285  H1287   1.113   .     S
C1285  H1288   1.114   .     S
C1285  H1286   1.109   .     S
C1289  O1323   1.307   .     A
C1289  O1322   1.302   .     A
C1289  C1305   1.465   .     S
C1290  C1291   1.408   .     A
C1290  C464    1.425   1_556 S
C1290  C488    1.418   1_556 S
C1291  C1295   1.406   .     A
C1291  C1298   1.421   .     A
C1292  C1296   1.422   .     A
C1293  C1294   1.415   .     A
C1293  C464    1.426   1_556 S
C1293  C484    1.417   1_556 S
C1294  O1358   1.383   .     S
C1294  C1295   1.410   .     A
C1295  O1374   1.379   .     S
C1296  C1313   1.412   .     A
C1296  O1362   1.384   .     S
C1297  C1313   1.409   .     A
C1297  O1330   1.371   .     S
C1297  C1312   1.391   .     A
C1298  C1314   1.401   .     A
C1298  C1300   1.471   .     S
C1299  O1376   1.383   .     S
C1299  C1305   1.406   .     A
C1299  C1577   1.397   .     S
C1300  O1325   1.305   .     A
C1300  O1324   1.306   .     A
C1301  C1302   1.404   .     A
C1301  O1332   1.379   .     S
C1302  C1310   1.477   .     S
C1302  C1303   1.408   .     A
C1303  O1337   1.380   .     S
C1304  C1305   1.413   .     A
C1304  O1342   1.374   .     S
C1304  C1579   1.398   .     S
C1306  O1344   1.384   .     S
C1306  N1321   1.367   .     A
C1306  C1123   1.428   1_655 S
C1307  N1320   1.382   .     A
C1307  O1349   1.373   .     S
C1308  N1320   1.382   .     A
C1308  O1351   1.370   .     S
C1309  N1321   1.366   .     A
C1309  O1353   1.382   .     S
C1309  C1124   1.428   1_655 S
C1310  O1326   1.308   .     A
C1310  O1327   1.308   .     A
C1311  O1329   1.309   .     A
C1311  C1313   1.491   .     S
C1311  O1328   1.312   .     A
C1314  C1315   1.388   .     A
C1314  H1319   1.083   .     S
C1315  C488    1.403   1_556 S
C1315  O541    1.380   1_556 S
C1316  O1364   1.381   .     S
Cu1317 O1324   1.972   .     S
Cu1317 N1320   2.038   .     S
Cu1317 O1326   1.980   .     S
Cu1317 O1322   1.986   .     S
Cu1317 Cu1318  2.712   .     S
Cu1317 O1328   1.966   .     S
Cu1318 O1323   1.980   .     S
Cu1318 O1329   1.972   .     S
Cu1318 O1325   1.966   .     S
Cu1318 N1321   2.038   .     S
Cu1318 O1327   1.986   .     S
O1330  H1331   0.991   .     S
O1332  C1333   1.414   .     S
C1333  H1336   1.115   .     S
C1333  H1334   1.107   .     S
H1335  C1609   1.105   .     S
O1337  C1338   1.406   .     S
C1338  H1340   1.105   .     S
C1338  H1341   1.106   .     S
C1338  H1339   1.113   .     S
O1342  H1343   0.992   .     S
O1344  C1345   1.412   .     S
C1345  H1347   1.110   .     S
C1345  H1348   1.109   .     S
C1345  H1346   1.114   .     S
O1349  H1350   0.982   .     S
O1351  H1352   0.981   .     S
O1353  C1354   1.411   .     S
C1354  H1356   1.109   .     S
C1354  H1357   1.101   .     S
C1354  H1171   1.102   1_655 S
O1358  H1359   0.992   .     S
O1360  H1361   0.992   .     S
O1360  C484    1.376   1_556 S
O1362  H1363   0.991   .     S
O1364  C1365   1.420   .     S
C1365  H1366   1.108   .     S
C1365  H1367   1.117   .     S
C1365  H1368   1.106   .     S
O1369  C1370   1.410   .     S
C1370  H1371   1.114   .     S
C1370  H1372   1.112   .     S
H1373  C1186   1.109   1_655 S
O1374  H1375   0.988   .     S
O1376  C1377   1.409   .     S
C1377  H1379   1.113   .     S
C1377  H1380   1.114   .     S
C1377  H1378   1.109   .     S
C1381  O1415   1.307   .     A
C1381  O1414   1.302   .     A
C1381  C1397   1.465   .     S
C1382  C1383   1.408   .     A
C1382  C556    1.425   1_556 S
C1382  C580    1.418   1_556 S
C1383  C1387   1.406   .     A
C1383  C1390   1.421   .     A
C1384  C1388   1.422   .     A
C1385  C1386   1.415   .     A
C1385  C556    1.426   1_556 S
C1385  C576    1.417   1_556 S
C1386  O1450   1.383   .     S
C1386  C1387   1.410   .     A
C1387  O1466   1.379   .     S
C1388  C1405   1.412   .     A
C1388  O1454   1.384   .     S
C1389  C1405   1.409   .     A
C1389  O1422   1.371   .     S
C1389  C1404   1.391   .     A
C1390  C1406   1.401   .     A
C1390  C1392   1.471   .     S
C1391  O1468   1.383   .     S
C1391  C1397   1.406   .     A
C1391  C841    1.397   1_565 S
C1392  O1417   1.305   .     A
C1392  O1416   1.306   .     A
C1393  C1394   1.404   .     A
C1393  O1424   1.379   .     S
C1394  C1402   1.477   .     S
C1394  C1395   1.408   .     A
C1395  O1429   1.380   .     S
C1396  C1397   1.413   .     A
C1396  O1434   1.374   .     S
C1396  C843    1.398   1_565 S
C1398  O1436   1.384   .     S
C1398  N1413   1.367   .     A
C1398  C1491   1.428   .     S
C1399  N1412   1.382   .     A
C1399  O1441   1.373   .     S
C1399  C1582   1.428   1_455 S
C1400  N1412   1.382   .     A
C1400  O1443   1.370   .     S
C1400  C1585   1.428   1_455 S
C1401  N1413   1.366   .     A
C1401  O1445   1.382   .     S
C1401  C1492   1.428   .     S
C1402  O1418   1.308   .     A
C1402  O1419   1.308   .     A
C1403  O1421   1.309   .     A
C1403  C1405   1.491   .     S
C1403  O1420   1.312   .     A
C1406  C1407   1.388   .     A
C1406  H1411   1.083   .     S
C1407  C580    1.403   1_556 S
C1407  O633    1.380   1_556 S
C1408  O1456   1.381   .     S
Cu1409 O1416   1.972   .     S
Cu1409 N1412   2.038   .     S
Cu1409 O1418   1.980   .     S
Cu1409 O1414   1.986   .     S
Cu1409 Cu1410  2.712   .     S
Cu1409 O1420   1.966   .     S
Cu1410 O1415   1.980   .     S
Cu1410 O1421   1.972   .     S
Cu1410 O1417   1.966   .     S
Cu1410 N1413   2.038   .     S
Cu1410 O1419   1.986   .     S
O1422  H1423   0.991   .     S
O1424  C1425   1.414   .     S
C1425  H1428   1.115   .     S
C1425  H1426   1.107   .     S
H1427  C873    1.105   1_565 S
O1429  C1430   1.406   .     S
C1430  H1432   1.105   .     S
C1430  H1433   1.106   .     S
C1430  H1431   1.113   .     S
O1434  H1435   0.992   .     S
O1436  C1437   1.412   .     S
C1437  H1439   1.110   .     S
C1437  H1440   1.109   .     S
C1437  H1438   1.114   .     S
O1441  H1442   0.982   .     S
O1443  H1444   0.981   .     S
O1445  C1446   1.411   .     S
C1446  H1448   1.109   .     S
C1446  H1449   1.101   .     S
C1446  H1539   1.102   .     S
H1447  C1630   1.102   1_455 S
O1450  H1451   0.992   .     S
O1452  H1453   0.992   .     S
O1452  C576    1.376   1_556 S
O1454  H1455   0.991   .     S
O1456  C1457   1.420   .     S
C1457  H1458   1.108   .     S
C1457  H1459   1.117   .     S
C1457  H1460   1.106   .     S
O1461  C1462   1.410   .     S
C1462  H1463   1.114   .     S
C1462  H1464   1.112   .     S
C1462  H1649   1.109   1_455 S
H1465  C1554   1.109   .     S
O1466  H1467   0.988   .     S
O1468  C1469   1.409   .     S
C1469  H1471   1.113   .     S
C1469  H1472   1.114   .     S
C1469  H1470   1.109   .     S
C1473  O1507   1.307   .     A
C1473  O1506   1.302   .     A
C1473  C1489   1.465   .     S
C1474  C1475   1.408   .     A
C1474  C648    1.425   1_556 S
C1474  C672    1.418   1_556 S
C1475  C1479   1.406   .     A
C1475  C1482   1.421   .     A
C1476  C1480   1.422   .     A
C1477  C1478   1.415   .     A
C1477  C648    1.426   1_556 S
C1477  C668    1.417   1_556 S
C1478  O1542   1.383   .     S
C1478  C1479   1.410   .     A
C1479  O1558   1.379   .     S
C1480  C1497   1.412   .     A
C1480  O1546   1.384   .     S
C1481  C1497   1.409   .     A
C1481  O1514   1.371   .     S
C1481  C1496   1.391   .     A
C1482  C1498   1.401   .     A
C1482  C1484   1.471   .     S
C1483  O1560   1.383   .     S
C1483  C1489   1.406   .     A
C1483  C933    1.397   1_565 S
C1484  O1509   1.305   .     A
C1484  O1508   1.306   .     A
C1485  C1486   1.404   .     A
C1485  O1516   1.379   .     S
C1486  C1494   1.477   .     S
C1486  C1487   1.408   .     A
C1487  O1521   1.380   .     S
C1488  C1489   1.413   .     A
C1488  O1526   1.374   .     S
C1488  C935    1.398   1_565 S
C1490  O1528   1.384   .     S
C1490  N1505   1.367   .     A
C1490  C1583   1.428   .     S
C1491  N1504   1.382   .     A
C1491  O1533   1.373   .     S
C1492  N1504   1.382   .     A
C1492  O1535   1.370   .     S
C1493  N1505   1.366   .     A
C1493  O1537   1.382   .     S
C1493  C1584   1.428   .     S
C1494  O1510   1.308   .     A
C1494  O1511   1.308   .     A
C1495  O1513   1.309   .     A
C1495  C1497   1.491   .     S
C1495  O1512   1.312   .     A
C1498  C1499   1.388   .     A
C1498  H1503   1.083   .     S
C1499  C672    1.403   1_556 S
C1499  O725    1.380   1_556 S
C1500  O1548   1.381   .     S
Cu1501 O1508   1.972   .     S
Cu1501 N1504   2.038   .     S
Cu1501 O1510   1.980   .     S
Cu1501 O1506   1.986   .     S
Cu1501 Cu1502  2.712   .     S
Cu1501 O1512   1.966   .     S
Cu1502 O1507   1.980   .     S
Cu1502 O1513   1.972   .     S
Cu1502 O1509   1.966   .     S
Cu1502 N1505   2.038   .     S
Cu1502 O1511   1.986   .     S
O1514  H1515   0.991   .     S
O1516  C1517   1.414   .     S
C1517  H1520   1.115   .     S
C1517  H1518   1.107   .     S
H1519  C965    1.105   1_565 S
O1521  C1522   1.406   .     S
C1522  H1524   1.105   .     S
C1522  H1525   1.106   .     S
C1522  H1523   1.113   .     S
O1526  H1527   0.992   .     S
O1528  C1529   1.412   .     S
C1529  H1531   1.110   .     S
C1529  H1532   1.109   .     S
C1529  H1530   1.114   .     S
O1533  H1534   0.982   .     S
O1535  H1536   0.981   .     S
O1537  C1538   1.411   .     S
C1538  H1540   1.109   .     S
C1538  H1541   1.101   .     S
C1538  H1631   1.102   .     S
O1542  H1543   0.992   .     S
O1544  H1545   0.992   .     S
O1544  C668    1.376   1_556 S
O1546  H1547   0.991   .     S
O1548  C1549   1.420   .     S
C1549  H1550   1.108   .     S
C1549  H1551   1.117   .     S
C1549  H1552   1.106   .     S
O1553  C1554   1.410   .     S
C1554  H1555   1.114   .     S
C1554  H1556   1.112   .     S
H1557  C1646   1.109   .     S
O1558  H1559   0.988   .     S
O1560  C1561   1.409   .     S
C1561  H1563   1.113   .     S
C1561  H1564   1.114   .     S
C1561  H1562   1.109   .     S
C1565  O1599   1.307   .     A
C1565  O1598   1.302   .     A
C1565  C1581   1.465   .     S
C1566  C1567   1.408   .     A
C1566  C740    1.425   1_556 S
C1566  C764    1.418   1_556 S
C1567  C1571   1.406   .     A
C1567  C1574   1.421   .     A
C1568  C1572   1.422   .     A
C1569  C1570   1.415   .     A
C1569  C740    1.426   1_556 S
C1569  C760    1.417   1_556 S
C1570  O1634   1.383   .     S
C1570  C1571   1.410   .     A
C1571  O1650   1.379   .     S
C1572  C1589   1.412   .     A
C1572  O1638   1.384   .     S
C1573  C1589   1.409   .     A
C1573  O1606   1.371   .     S
C1573  C1588   1.391   .     A
C1574  C1590   1.401   .     A
C1574  C1576   1.471   .     S
C1575  O1652   1.383   .     S
C1575  C1581   1.406   .     A
C1575  C1025   1.397   1_565 S
C1576  O1601   1.305   .     A
C1576  O1600   1.306   .     A
C1577  C1578   1.404   .     A
C1577  O1608   1.379   .     S
C1578  C1586   1.477   .     S
C1578  C1579   1.408   .     A
C1579  O1613   1.380   .     S
C1580  C1581   1.413   .     A
C1580  O1618   1.374   .     S
C1580  C1027   1.398   1_565 S
C1582  O1620   1.384   .     S
C1582  N1597   1.367   .     A
C1582  C1399   1.428   1_655 S
C1583  N1596   1.382   .     A
C1583  O1625   1.373   .     S
C1584  N1596   1.382   .     A
C1584  O1627   1.370   .     S
C1585  N1597   1.366   .     A
C1585  O1629   1.382   .     S
C1585  C1400   1.428   1_655 S
C1586  O1602   1.308   .     A
C1586  O1603   1.308   .     A
C1587  O1605   1.309   .     A
C1587  C1589   1.491   .     S
C1587  O1604   1.312   .     A
C1590  C1591   1.388   .     A
C1590  H1595   1.083   .     S
C1591  C764    1.403   1_556 S
C1591  O817    1.380   1_556 S
C1592  O1640   1.381   .     S
Cu1593 O1600   1.972   .     S
Cu1593 N1596   2.038   .     S
Cu1593 O1602   1.980   .     S
Cu1593 O1598   1.986   .     S
Cu1593 Cu1594  2.712   .     S
Cu1593 O1604   1.966   .     S
Cu1594 O1599   1.980   .     S
Cu1594 O1605   1.972   .     S
Cu1594 O1601   1.966   .     S
Cu1594 N1597   2.038   .     S
Cu1594 O1603   1.986   .     S
O1606  H1607   0.991   .     S
O1608  C1609   1.414   .     S
C1609  H1612   1.115   .     S
C1609  H1610   1.107   .     S
H1611  C1057   1.105   1_565 S
O1613  C1614   1.406   .     S
C1614  H1616   1.105   .     S
C1614  H1617   1.106   .     S
C1614  H1615   1.113   .     S
O1618  H1619   0.992   .     S
O1620  C1621   1.412   .     S
C1621  H1623   1.110   .     S
C1621  H1624   1.109   .     S
C1621  H1622   1.114   .     S
O1625  H1626   0.982   .     S
O1627  H1628   0.981   .     S
O1629  C1630   1.411   .     S
C1630  H1632   1.109   .     S
C1630  H1633   1.101   .     S
C1630  H1447   1.102   1_655 S
O1634  H1635   0.992   .     S
O1636  H1637   0.992   .     S
O1636  C760    1.376   1_556 S
O1638  H1639   0.991   .     S
O1640  C1641   1.420   .     S
C1641  H1642   1.108   .     S
C1641  H1643   1.117   .     S
C1641  H1644   1.106   .     S
O1645  C1646   1.410   .     S
C1646  H1647   1.114   .     S
C1646  H1648   1.112   .     S
H1649  C1462   1.109   1_655 S
O1650  H1651   0.988   .     S
O1652  C1653   1.409   .     S
C1653  H1655   1.113   .     S
C1653  H1656   1.114   .     S
C1653  H1654   1.109   .     S
