data_str_m2_o1_o17_pcu_sym.157
_audit_creation_date              2020-01-03
_audit_creation_method            'Materials Studio'
_symmetry_space_group_name_H-M    'P1'
_symmetry_Int_Tables_number       1
_symmetry_cell_setting            triclinic
loop_
_symmetry_equiv_pos_as_xyz
  x,y,z
_cell_length_a                    32.4967
_cell_length_b                    28.5231
_cell_length_c                    30.1996
_cell_angle_alpha                 90.3810
_cell_angle_beta                  90.2834
_cell_angle_gamma                 89.6118
loop_
_atom_site_label
_atom_site_type_symbol
_atom_site_fract_x
_atom_site_fract_y
_atom_site_fract_z
_atom_site_U_iso_or_equiv
_atom_site_adp_type
_atom_site_occupancy
C1     C     0.08740   0.16685   0.24991   0.00000  Uiso   1.00
C2     C     0.24593   0.16648   0.25009   0.00000  Uiso   1.00
C3     C     0.10658   0.21858   0.02211   0.00000  Uiso   1.00
C4     C     0.22675   0.11475   0.47789   0.00000  Uiso   1.00
C5     C     0.02162   0.13107   0.22724   0.00000  Uiso   1.00
C6     C     0.31172   0.20226   0.27276   0.00000  Uiso   1.00
C7     C     0.31210   0.12945   0.22926   0.00000  Uiso   1.00
C8     C     0.02124   0.20389   0.27074   0.00000  Uiso   1.00
C9     C     0.29055   0.16606   0.25062   0.00000  Uiso   1.00
C10    C     0.04278   0.16728   0.24938   0.00000  Uiso   1.00
C11    C     0.14156   0.02483   0.22190   0.00000  Uiso   1.00
C12    C     0.19178   0.30850   0.27810   0.00000  Uiso   1.00
C13    C     0.19176   0.02479   0.27809   0.00000  Uiso   1.00
C14    C     0.14158   0.30855   0.22191   0.00000  Uiso   1.00
C15    C     0.16621   0.16643   0.16445   0.00000  Uiso   1.00
C16    C     0.16712   0.16690   0.33555   0.00000  Uiso   1.00
C17    C     0.19741   0.14029   0.40701   0.00000  Uiso   1.00
C18    C     0.13592   0.19304   0.09299   0.00000  Uiso   1.00
C19    C     0.16826   0.16769   0.38387   0.00000  Uiso   1.00
C20    C     0.16507   0.16564   0.11613   0.00000  Uiso   1.00
C21    C     0.14024   0.19677   0.40672   0.00000  Uiso   1.00
C22    C     0.19309   0.13657   0.09328   0.00000  Uiso   1.00
C23    C     0.13829   0.19460   0.45307   0.00000  Uiso   1.00
C24    C     0.19504   0.13873   0.04693   0.00000  Uiso   1.00
C25    C     0.16727   0.16712   0.47663   0.00000  Uiso   1.00
C26    C     0.16607   0.16621   0.02337   0.00000  Uiso   1.00
C27    C     0.19741   0.14055   0.45362   0.00000  Uiso   1.00
C28    C     0.13593   0.19278   0.04638   0.00000  Uiso   1.00
C29    C     0.10757   0.21911   0.47622   0.00000  Uiso   1.00
C30    C     0.22576   0.11422   0.02378   0.00000  Uiso   1.00
Cu31   Cu    0.16667   0.21355   0.25000   0.00000  Uiso   1.00
Cu32   Cu    0.16667   0.11978   0.25000   0.00000  Uiso   1.00
H33    H     0.08396   0.23890   0.45900   0.00000  Uiso   1.00
H34    H     0.24938   0.09443   0.04100   0.00000  Uiso   1.00
H35    H     0.08257   0.23868   0.03832   0.00000  Uiso   1.00
H36    H     0.25077   0.09465   0.46168   0.00000  Uiso   1.00
H37    H     0.12146   0.04354   0.19939   0.00000  Uiso   1.00
H38    H     0.21187   0.28979   0.30061   0.00000  Uiso   1.00
H39    H     0.21187   0.04346   0.30052   0.00000  Uiso   1.00
H40    H     0.12147   0.28987   0.19948   0.00000  Uiso   1.00
N41    N     0.16667   0.28402   0.25000   0.00000  Uiso   1.00
N42    N     0.16667   0.04931   0.25000   0.00000  Uiso   1.00
O43    O     0.10655   0.20625   0.24999   0.00000  Uiso   1.00
O44    O     0.22679   0.12709   0.25000   0.00000  Uiso   1.00
O45    O     0.22679   0.20625   0.25000   0.00000  Uiso   1.00
O46    O     0.10655   0.12709   0.24999   0.00000  Uiso   1.00
O47    O     0.16666   0.20627   0.18513   0.00000  Uiso   1.00
O48    O     0.16668   0.12707   0.31487   0.00000  Uiso   1.00
O49    O     0.16668   0.20627   0.31487   0.00000  Uiso   1.00
O50    O     0.16666   0.12707   0.18513   0.00000  Uiso   1.00
C51    C     0.22824   0.11350   0.38281   0.00000  Uiso   1.00
N52    N     0.25297   0.09229   0.36367   0.00000  Uiso   1.00
C53    C     0.10509   0.21984   0.11719   0.00000  Uiso   1.00
N54    N     0.08036   0.24104   0.13633   0.00000  Uiso   1.00
O55    O     0.11260   0.22434   0.38314   0.00000  Uiso   1.00
C56    C     0.12748   0.27080   0.38205   0.00000  Uiso   1.00
H57    H     0.16025   0.27251   0.37159   0.00000  Uiso   1.00
H58    H     0.12401   0.28847   0.41470   0.00000  Uiso   1.00
H59    H     0.10901   0.29088   0.35759   0.00000  Uiso   1.00
O60    O     0.22073   0.10899   0.11686   0.00000  Uiso   1.00
C61    C     0.20586   0.06254   0.11795   0.00000  Uiso   1.00
H62    H     0.20933   0.04486   0.08530   0.00000  Uiso   1.00
H63    H     0.17309   0.06083   0.12841   0.00000  Uiso   1.00
H64    H     0.22432   0.04245   0.14241   0.00000  Uiso   1.00
O65    O     0.04275   0.09624   0.20449   0.00000  Uiso   1.00
C66    C     0.04777   0.11056   0.16028   0.00000  Uiso   1.00
H67    H     0.06433   0.08244   0.14197   0.00000  Uiso   1.00
H68    H     0.06673   0.14275   0.15844   0.00000  Uiso   1.00
H69    H     0.01756   0.11617   0.14353   0.00000  Uiso   1.00
O70    O     0.29059   0.23709   0.29551   0.00000  Uiso   1.00
C71    C     0.28557   0.22277   0.33972   0.00000  Uiso   1.00
H72    H     0.26660   0.19058   0.34156   0.00000  Uiso   1.00
H73    H     0.26900   0.25089   0.35803   0.00000  Uiso   1.00
H74    H     0.31577   0.21715   0.35647   0.00000  Uiso   1.00
O75    O     0.29102   0.09471   0.20646   0.00000  Uiso   1.00
C76    C     0.29317   0.05271   0.23088   0.00000  Uiso   1.00
H77    H     0.27083   0.02754   0.21650   0.00000  Uiso   1.00
H78    H     0.28478   0.05814   0.26629   0.00000  Uiso   1.00
H79    H     0.32419   0.03640   0.22847   0.00000  Uiso   1.00
O80    O     0.04232   0.23863   0.29354   0.00000  Uiso   1.00
C81    C     0.04016   0.28063   0.26912   0.00000  Uiso   1.00
H82    H     0.04855   0.27519   0.23371   0.00000  Uiso   1.00
H83    H     0.06250   0.30579   0.28350   0.00000  Uiso   1.00
H84    H     0.00914   0.29694   0.27153   0.00000  Uiso   1.00
C85    C     0.42074   0.16685   0.24991   0.00000  Uiso   1.00
C86    C     0.57926   0.16648   0.25009   0.00000  Uiso   1.00
C87    C     0.43992   0.21858   0.02211   0.00000  Uiso   1.00
C88    C     0.56008   0.11475   0.47789   0.00000  Uiso   1.00
C89    C     0.35495   0.13107   0.22724   0.00000  Uiso   1.00
C90    C     0.64505   0.20226   0.27276   0.00000  Uiso   1.00
C91    C     0.64543   0.12945   0.22926   0.00000  Uiso   1.00
C92    C     0.35457   0.20389   0.27074   0.00000  Uiso   1.00
C93    C     0.62388   0.16606   0.25062   0.00000  Uiso   1.00
C94    C     0.37612   0.16728   0.24938   0.00000  Uiso   1.00
C95    C     0.47489   0.02483   0.22190   0.00000  Uiso   1.00
C96    C     0.52511   0.30850   0.27810   0.00000  Uiso   1.00
C97    C     0.52509   0.02479   0.27809   0.00000  Uiso   1.00
C98    C     0.47491   0.30855   0.22191   0.00000  Uiso   1.00
C99    C     0.49955   0.16643   0.16445   0.00000  Uiso   1.00
C100   C     0.50045   0.16690   0.33555   0.00000  Uiso   1.00
C101   C     0.53074   0.14029   0.40701   0.00000  Uiso   1.00
C102   C     0.46926   0.19304   0.09299   0.00000  Uiso   1.00
C103   C     0.50159   0.16769   0.38387   0.00000  Uiso   1.00
C104   C     0.49841   0.16564   0.11613   0.00000  Uiso   1.00
C105   C     0.47357   0.19677   0.40672   0.00000  Uiso   1.00
C106   C     0.52643   0.13657   0.09328   0.00000  Uiso   1.00
C107   C     0.47162   0.19460   0.45307   0.00000  Uiso   1.00
C108   C     0.52838   0.13873   0.04693   0.00000  Uiso   1.00
C109   C     0.50060   0.16712   0.47663   0.00000  Uiso   1.00
C110   C     0.49940   0.16621   0.02337   0.00000  Uiso   1.00
C111   C     0.53074   0.14055   0.45362   0.00000  Uiso   1.00
C112   C     0.46926   0.19278   0.04638   0.00000  Uiso   1.00
C113   C     0.44090   0.21911   0.47622   0.00000  Uiso   1.00
C114   C     0.55910   0.11422   0.02378   0.00000  Uiso   1.00
Cu115  Cu    0.50000   0.21355   0.25000   0.00000  Uiso   1.00
Cu116  Cu    0.50000   0.11978   0.25000   0.00000  Uiso   1.00
H117   H     0.41729   0.23890   0.45900   0.00000  Uiso   1.00
H118   H     0.58271   0.09443   0.04100   0.00000  Uiso   1.00
H119   H     0.41590   0.23868   0.03832   0.00000  Uiso   1.00
H120   H     0.58410   0.09465   0.46168   0.00000  Uiso   1.00
H121   H     0.45479   0.04354   0.19939   0.00000  Uiso   1.00
H122   H     0.54521   0.28979   0.30061   0.00000  Uiso   1.00
H123   H     0.54520   0.04346   0.30052   0.00000  Uiso   1.00
H124   H     0.45480   0.28987   0.19948   0.00000  Uiso   1.00
N125   N     0.50000   0.28402   0.25000   0.00000  Uiso   1.00
N126   N     0.50000   0.04931   0.25000   0.00000  Uiso   1.00
O127   O     0.43988   0.20625   0.24999   0.00000  Uiso   1.00
O128   O     0.56012   0.12709   0.25000   0.00000  Uiso   1.00
O129   O     0.56012   0.20625   0.25000   0.00000  Uiso   1.00
O130   O     0.43988   0.12709   0.24999   0.00000  Uiso   1.00
O131   O     0.49999   0.20627   0.18513   0.00000  Uiso   1.00
O132   O     0.50001   0.12707   0.31487   0.00000  Uiso   1.00
O133   O     0.50001   0.20627   0.31487   0.00000  Uiso   1.00
O134   O     0.49999   0.12707   0.18513   0.00000  Uiso   1.00
C135   C     0.56157   0.11350   0.38281   0.00000  Uiso   1.00
N136   N     0.58631   0.09229   0.36367   0.00000  Uiso   1.00
C137   C     0.43843   0.21984   0.11719   0.00000  Uiso   1.00
N138   N     0.41369   0.24104   0.13633   0.00000  Uiso   1.00
O139   O     0.44594   0.22434   0.38314   0.00000  Uiso   1.00
C140   C     0.46081   0.27080   0.38205   0.00000  Uiso   1.00
H141   H     0.49358   0.27251   0.37159   0.00000  Uiso   1.00
H142   H     0.45734   0.28847   0.41470   0.00000  Uiso   1.00
H143   H     0.44235   0.29088   0.35759   0.00000  Uiso   1.00
O144   O     0.55406   0.10899   0.11686   0.00000  Uiso   1.00
C145   C     0.53919   0.06254   0.11795   0.00000  Uiso   1.00
H146   H     0.54266   0.04486   0.08530   0.00000  Uiso   1.00
H147   H     0.50642   0.06083   0.12841   0.00000  Uiso   1.00
H148   H     0.55766   0.04245   0.14241   0.00000  Uiso   1.00
O149   O     0.37608   0.09624   0.20449   0.00000  Uiso   1.00
C150   C     0.38110   0.11056   0.16028   0.00000  Uiso   1.00
H151   H     0.39767   0.08244   0.14197   0.00000  Uiso   1.00
H152   H     0.40006   0.14275   0.15844   0.00000  Uiso   1.00
H153   H     0.35089   0.11617   0.14353   0.00000  Uiso   1.00
O154   O     0.62392   0.23709   0.29551   0.00000  Uiso   1.00
C155   C     0.61890   0.22277   0.33972   0.00000  Uiso   1.00
H156   H     0.59994   0.19058   0.34156   0.00000  Uiso   1.00
H157   H     0.60233   0.25089   0.35803   0.00000  Uiso   1.00
H158   H     0.64911   0.21715   0.35647   0.00000  Uiso   1.00
O159   O     0.62435   0.09471   0.20646   0.00000  Uiso   1.00
C160   C     0.62650   0.05271   0.23088   0.00000  Uiso   1.00
H161   H     0.60417   0.02754   0.21650   0.00000  Uiso   1.00
H162   H     0.61811   0.05814   0.26629   0.00000  Uiso   1.00
H163   H     0.65752   0.03640   0.22847   0.00000  Uiso   1.00
O164   O     0.37565   0.23863   0.29354   0.00000  Uiso   1.00
C165   C     0.37350   0.28063   0.26912   0.00000  Uiso   1.00
H166   H     0.38189   0.27519   0.23371   0.00000  Uiso   1.00
H167   H     0.39583   0.30579   0.28350   0.00000  Uiso   1.00
H168   H     0.34248   0.29694   0.27153   0.00000  Uiso   1.00
C169   C     0.75407   0.16685   0.24991   0.00000  Uiso   1.00
C170   C     0.91260   0.16648   0.25009   0.00000  Uiso   1.00
C171   C     0.77325   0.21858   0.02211   0.00000  Uiso   1.00
C172   C     0.89342   0.11475   0.47789   0.00000  Uiso   1.00
C173   C     0.68828   0.13107   0.22724   0.00000  Uiso   1.00
C174   C     0.97838   0.20226   0.27276   0.00000  Uiso   1.00
C175   C     0.97876   0.12945   0.22926   0.00000  Uiso   1.00
C176   C     0.68791   0.20389   0.27074   0.00000  Uiso   1.00
C177   C     0.95722   0.16606   0.25062   0.00000  Uiso   1.00
C178   C     0.70945   0.16728   0.24938   0.00000  Uiso   1.00
C179   C     0.80822   0.02483   0.22190   0.00000  Uiso   1.00
C180   C     0.85844   0.30850   0.27810   0.00000  Uiso   1.00
C181   C     0.85842   0.02479   0.27809   0.00000  Uiso   1.00
C182   C     0.80824   0.30855   0.22191   0.00000  Uiso   1.00
C183   C     0.83288   0.16643   0.16445   0.00000  Uiso   1.00
C184   C     0.83379   0.16690   0.33555   0.00000  Uiso   1.00
C185   C     0.86408   0.14029   0.40701   0.00000  Uiso   1.00
C186   C     0.80259   0.19304   0.09299   0.00000  Uiso   1.00
C187   C     0.83493   0.16769   0.38387   0.00000  Uiso   1.00
C188   C     0.83174   0.16564   0.11613   0.00000  Uiso   1.00
C189   C     0.80691   0.19677   0.40672   0.00000  Uiso   1.00
C190   C     0.85976   0.13657   0.09328   0.00000  Uiso   1.00
C191   C     0.80496   0.19460   0.45307   0.00000  Uiso   1.00
C192   C     0.86171   0.13873   0.04693   0.00000  Uiso   1.00
C193   C     0.83393   0.16712   0.47663   0.00000  Uiso   1.00
C194   C     0.83274   0.16621   0.02337   0.00000  Uiso   1.00
C195   C     0.86407   0.14055   0.45362   0.00000  Uiso   1.00
C196   C     0.80259   0.19278   0.04638   0.00000  Uiso   1.00
C197   C     0.77424   0.21911   0.47622   0.00000  Uiso   1.00
C198   C     0.89243   0.11422   0.02378   0.00000  Uiso   1.00
Cu199  Cu    0.83333   0.21355   0.25000   0.00000  Uiso   1.00
Cu200  Cu    0.83333   0.11978   0.25000   0.00000  Uiso   1.00
H201   H     0.75062   0.23890   0.45900   0.00000  Uiso   1.00
H202   H     0.91604   0.09443   0.04100   0.00000  Uiso   1.00
H203   H     0.74923   0.23868   0.03832   0.00000  Uiso   1.00
H204   H     0.91743   0.09465   0.46168   0.00000  Uiso   1.00
H205   H     0.78813   0.04354   0.19939   0.00000  Uiso   1.00
H206   H     0.87854   0.28979   0.30061   0.00000  Uiso   1.00
H207   H     0.87853   0.04346   0.30052   0.00000  Uiso   1.00
H208   H     0.78813   0.28987   0.19948   0.00000  Uiso   1.00
N209   N     0.83333   0.28402   0.25000   0.00000  Uiso   1.00
N210   N     0.83333   0.04931   0.25000   0.00000  Uiso   1.00
O211   O     0.77321   0.20625   0.24999   0.00000  Uiso   1.00
O212   O     0.89345   0.12709   0.25000   0.00000  Uiso   1.00
O213   O     0.89345   0.20625   0.25000   0.00000  Uiso   1.00
O214   O     0.77321   0.12709   0.24999   0.00000  Uiso   1.00
O215   O     0.83332   0.20627   0.18513   0.00000  Uiso   1.00
O216   O     0.83334   0.12707   0.31487   0.00000  Uiso   1.00
O217   O     0.83334   0.20627   0.31487   0.00000  Uiso   1.00
O218   O     0.83332   0.12707   0.18513   0.00000  Uiso   1.00
C219   C     0.89491   0.11350   0.38281   0.00000  Uiso   1.00
N220   N     0.91964   0.09229   0.36367   0.00000  Uiso   1.00
C221   C     0.77176   0.21984   0.11719   0.00000  Uiso   1.00
N222   N     0.74703   0.24104   0.13633   0.00000  Uiso   1.00
O223   O     0.77927   0.22434   0.38314   0.00000  Uiso   1.00
C224   C     0.79415   0.27080   0.38205   0.00000  Uiso   1.00
H225   H     0.82691   0.27251   0.37159   0.00000  Uiso   1.00
H226   H     0.79067   0.28847   0.41470   0.00000  Uiso   1.00
H227   H     0.77568   0.29088   0.35759   0.00000  Uiso   1.00
O228   O     0.88740   0.10899   0.11686   0.00000  Uiso   1.00
C229   C     0.87252   0.06254   0.11795   0.00000  Uiso   1.00
H230   H     0.87599   0.04486   0.08530   0.00000  Uiso   1.00
H231   H     0.83976   0.06083   0.12841   0.00000  Uiso   1.00
H232   H     0.89099   0.04245   0.14241   0.00000  Uiso   1.00
O233   O     0.70941   0.09624   0.20449   0.00000  Uiso   1.00
C234   C     0.71443   0.11056   0.16028   0.00000  Uiso   1.00
H235   H     0.73100   0.08244   0.14197   0.00000  Uiso   1.00
H236   H     0.73339   0.14275   0.15844   0.00000  Uiso   1.00
H237   H     0.68423   0.11617   0.14353   0.00000  Uiso   1.00
O238   O     0.95725   0.23709   0.29551   0.00000  Uiso   1.00
C239   C     0.95223   0.22277   0.33972   0.00000  Uiso   1.00
H240   H     0.93327   0.19058   0.34156   0.00000  Uiso   1.00
H241   H     0.93567   0.25089   0.35803   0.00000  Uiso   1.00
H242   H     0.98244   0.21715   0.35647   0.00000  Uiso   1.00
O243   O     0.95768   0.09471   0.20646   0.00000  Uiso   1.00
C244   C     0.95984   0.05271   0.23088   0.00000  Uiso   1.00
H245   H     0.93750   0.02754   0.21650   0.00000  Uiso   1.00
H246   H     0.95145   0.05814   0.26629   0.00000  Uiso   1.00
H247   H     0.99086   0.03640   0.22847   0.00000  Uiso   1.00
O248   O     0.70898   0.23863   0.29354   0.00000  Uiso   1.00
C249   C     0.70683   0.28063   0.26912   0.00000  Uiso   1.00
H250   H     0.71522   0.27519   0.23371   0.00000  Uiso   1.00
H251   H     0.72917   0.30579   0.28350   0.00000  Uiso   1.00
H252   H     0.67581   0.29694   0.27153   0.00000  Uiso   1.00
C253   C     0.08740   0.50019   0.24991   0.00000  Uiso   1.00
C254   C     0.24593   0.49981   0.25009   0.00000  Uiso   1.00
C255   C     0.10658   0.55191   0.02211   0.00000  Uiso   1.00
C256   C     0.22675   0.44809   0.47789   0.00000  Uiso   1.00
C257   C     0.02162   0.46440   0.22724   0.00000  Uiso   1.00
C258   C     0.31172   0.53560   0.27276   0.00000  Uiso   1.00
C259   C     0.31210   0.46278   0.22926   0.00000  Uiso   1.00
C260   C     0.02124   0.53722   0.27074   0.00000  Uiso   1.00
C261   C     0.29055   0.49939   0.25062   0.00000  Uiso   1.00
C262   C     0.04278   0.50061   0.24938   0.00000  Uiso   1.00
C263   C     0.14156   0.35816   0.22190   0.00000  Uiso   1.00
C264   C     0.19178   0.64184   0.27810   0.00000  Uiso   1.00
C265   C     0.19176   0.35812   0.27809   0.00000  Uiso   1.00
C266   C     0.14158   0.64188   0.22191   0.00000  Uiso   1.00
C267   C     0.16621   0.49976   0.16445   0.00000  Uiso   1.00
C268   C     0.16712   0.50023   0.33555   0.00000  Uiso   1.00
C269   C     0.19741   0.47362   0.40701   0.00000  Uiso   1.00
C270   C     0.13592   0.52638   0.09299   0.00000  Uiso   1.00
C271   C     0.16826   0.50103   0.38387   0.00000  Uiso   1.00
C272   C     0.16507   0.49897   0.11613   0.00000  Uiso   1.00
C273   C     0.14024   0.53010   0.40672   0.00000  Uiso   1.00
C274   C     0.19309   0.46990   0.09328   0.00000  Uiso   1.00
C275   C     0.13829   0.52794   0.45307   0.00000  Uiso   1.00
C276   C     0.19504   0.47206   0.04693   0.00000  Uiso   1.00
C277   C     0.16727   0.50045   0.47663   0.00000  Uiso   1.00
C278   C     0.16607   0.49955   0.02337   0.00000  Uiso   1.00
C279   C     0.19741   0.47388   0.45362   0.00000  Uiso   1.00
C280   C     0.13593   0.52612   0.04638   0.00000  Uiso   1.00
C281   C     0.10757   0.55244   0.47622   0.00000  Uiso   1.00
C282   C     0.22576   0.44756   0.02378   0.00000  Uiso   1.00
Cu283  Cu    0.16667   0.54689   0.25000   0.00000  Uiso   1.00
Cu284  Cu    0.16667   0.45311   0.25000   0.00000  Uiso   1.00
H285   H     0.08396   0.57224   0.45900   0.00000  Uiso   1.00
H286   H     0.24938   0.42776   0.04100   0.00000  Uiso   1.00
H287   H     0.08257   0.57202   0.03832   0.00000  Uiso   1.00
H288   H     0.25077   0.42798   0.46168   0.00000  Uiso   1.00
H289   H     0.12146   0.37688   0.19939   0.00000  Uiso   1.00
H290   H     0.21187   0.62312   0.30061   0.00000  Uiso   1.00
H291   H     0.21187   0.37680   0.30052   0.00000  Uiso   1.00
H292   H     0.12147   0.62320   0.19948   0.00000  Uiso   1.00
N293   N     0.16667   0.61736   0.25000   0.00000  Uiso   1.00
N294   N     0.16667   0.38264   0.25000   0.00000  Uiso   1.00
O295   O     0.10655   0.53958   0.24999   0.00000  Uiso   1.00
O296   O     0.22679   0.46042   0.25000   0.00000  Uiso   1.00
O297   O     0.22679   0.53958   0.25000   0.00000  Uiso   1.00
O298   O     0.10655   0.46042   0.24999   0.00000  Uiso   1.00
O299   O     0.16666   0.53960   0.18513   0.00000  Uiso   1.00
O300   O     0.16668   0.46040   0.31487   0.00000  Uiso   1.00
O301   O     0.16668   0.53960   0.31487   0.00000  Uiso   1.00
O302   O     0.16666   0.46040   0.18513   0.00000  Uiso   1.00
C303   C     0.22824   0.44683   0.38281   0.00000  Uiso   1.00
N304   N     0.25297   0.42562   0.36367   0.00000  Uiso   1.00
C305   C     0.10509   0.55317   0.11719   0.00000  Uiso   1.00
N306   N     0.08036   0.57438   0.13633   0.00000  Uiso   1.00
O307   O     0.11260   0.55767   0.38314   0.00000  Uiso   1.00
C308   C     0.12748   0.60413   0.38205   0.00000  Uiso   1.00
H309   H     0.16025   0.60584   0.37159   0.00000  Uiso   1.00
H310   H     0.12401   0.62180   0.41470   0.00000  Uiso   1.00
H311   H     0.10901   0.62422   0.35759   0.00000  Uiso   1.00
O312   O     0.22073   0.44233   0.11686   0.00000  Uiso   1.00
C313   C     0.20586   0.39587   0.11795   0.00000  Uiso   1.00
H314   H     0.20933   0.37820   0.08530   0.00000  Uiso   1.00
H315   H     0.17309   0.39416   0.12841   0.00000  Uiso   1.00
H316   H     0.22432   0.37578   0.14241   0.00000  Uiso   1.00
O317   O     0.04275   0.42958   0.20449   0.00000  Uiso   1.00
C318   C     0.04777   0.44390   0.16028   0.00000  Uiso   1.00
H319   H     0.06433   0.41577   0.14197   0.00000  Uiso   1.00
H320   H     0.06673   0.47608   0.15844   0.00000  Uiso   1.00
H321   H     0.01756   0.44951   0.14353   0.00000  Uiso   1.00
O322   O     0.29059   0.57042   0.29551   0.00000  Uiso   1.00
C323   C     0.28557   0.55610   0.33972   0.00000  Uiso   1.00
H324   H     0.26660   0.52392   0.34156   0.00000  Uiso   1.00
H325   H     0.26900   0.58423   0.35803   0.00000  Uiso   1.00
H326   H     0.31577   0.55049   0.35647   0.00000  Uiso   1.00
O327   O     0.29102   0.42804   0.20646   0.00000  Uiso   1.00
C328   C     0.29317   0.38604   0.23088   0.00000  Uiso   1.00
H329   H     0.27083   0.36087   0.21650   0.00000  Uiso   1.00
H330   H     0.28478   0.39147   0.26629   0.00000  Uiso   1.00
H331   H     0.32419   0.36973   0.22847   0.00000  Uiso   1.00
O332   O     0.04232   0.57196   0.29354   0.00000  Uiso   1.00
C333   C     0.04016   0.61396   0.26912   0.00000  Uiso   1.00
H334   H     0.04855   0.60853   0.23371   0.00000  Uiso   1.00
H335   H     0.06250   0.63913   0.28350   0.00000  Uiso   1.00
H336   H     0.00914   0.63027   0.27153   0.00000  Uiso   1.00
C337   C     0.42074   0.50019   0.24991   0.00000  Uiso   1.00
C338   C     0.57926   0.49981   0.25009   0.00000  Uiso   1.00
C339   C     0.43992   0.55191   0.02211   0.00000  Uiso   1.00
C340   C     0.56008   0.44809   0.47789   0.00000  Uiso   1.00
C341   C     0.35495   0.46440   0.22724   0.00000  Uiso   1.00
C342   C     0.64505   0.53560   0.27276   0.00000  Uiso   1.00
C343   C     0.64543   0.46278   0.22926   0.00000  Uiso   1.00
C344   C     0.35457   0.53722   0.27074   0.00000  Uiso   1.00
C345   C     0.62388   0.49939   0.25062   0.00000  Uiso   1.00
C346   C     0.37612   0.50061   0.24938   0.00000  Uiso   1.00
C347   C     0.47489   0.35816   0.22190   0.00000  Uiso   1.00
C348   C     0.52511   0.64184   0.27810   0.00000  Uiso   1.00
C349   C     0.52509   0.35812   0.27809   0.00000  Uiso   1.00
C350   C     0.47491   0.64188   0.22191   0.00000  Uiso   1.00
C351   C     0.49955   0.49976   0.16445   0.00000  Uiso   1.00
C352   C     0.50045   0.50023   0.33555   0.00000  Uiso   1.00
C353   C     0.53074   0.47362   0.40701   0.00000  Uiso   1.00
C354   C     0.46926   0.52638   0.09299   0.00000  Uiso   1.00
C355   C     0.50159   0.50103   0.38387   0.00000  Uiso   1.00
C356   C     0.49841   0.49897   0.11613   0.00000  Uiso   1.00
C357   C     0.47357   0.53010   0.40672   0.00000  Uiso   1.00
C358   C     0.52643   0.46990   0.09328   0.00000  Uiso   1.00
C359   C     0.47162   0.52794   0.45307   0.00000  Uiso   1.00
C360   C     0.52838   0.47206   0.04693   0.00000  Uiso   1.00
C361   C     0.50060   0.50045   0.47663   0.00000  Uiso   1.00
C362   C     0.49940   0.49955   0.02337   0.00000  Uiso   1.00
C363   C     0.53074   0.47388   0.45362   0.00000  Uiso   1.00
C364   C     0.46926   0.52612   0.04638   0.00000  Uiso   1.00
C365   C     0.44090   0.55244   0.47622   0.00000  Uiso   1.00
C366   C     0.55910   0.44756   0.02378   0.00000  Uiso   1.00
Cu367  Cu    0.50000   0.54689   0.25000   0.00000  Uiso   1.00
Cu368  Cu    0.50000   0.45311   0.25000   0.00000  Uiso   1.00
H369   H     0.41729   0.57224   0.45900   0.00000  Uiso   1.00
H370   H     0.58271   0.42776   0.04100   0.00000  Uiso   1.00
H371   H     0.41590   0.57202   0.03832   0.00000  Uiso   1.00
H372   H     0.58410   0.42798   0.46168   0.00000  Uiso   1.00
H373   H     0.45479   0.37688   0.19939   0.00000  Uiso   1.00
H374   H     0.54521   0.62312   0.30061   0.00000  Uiso   1.00
H375   H     0.54520   0.37680   0.30052   0.00000  Uiso   1.00
H376   H     0.45480   0.62320   0.19948   0.00000  Uiso   1.00
N377   N     0.50000   0.61736   0.25000   0.00000  Uiso   1.00
N378   N     0.50000   0.38264   0.25000   0.00000  Uiso   1.00
O379   O     0.43988   0.53958   0.24999   0.00000  Uiso   1.00
O380   O     0.56012   0.46042   0.25000   0.00000  Uiso   1.00
O381   O     0.56012   0.53958   0.25000   0.00000  Uiso   1.00
O382   O     0.43988   0.46042   0.24999   0.00000  Uiso   1.00
O383   O     0.49999   0.53960   0.18513   0.00000  Uiso   1.00
O384   O     0.50001   0.46040   0.31487   0.00000  Uiso   1.00
O385   O     0.50001   0.53960   0.31487   0.00000  Uiso   1.00
O386   O     0.49999   0.46040   0.18513   0.00000  Uiso   1.00
C387   C     0.56157   0.44683   0.38281   0.00000  Uiso   1.00
N388   N     0.58631   0.42562   0.36367   0.00000  Uiso   1.00
C389   C     0.43843   0.55317   0.11719   0.00000  Uiso   1.00
N390   N     0.41369   0.57438   0.13633   0.00000  Uiso   1.00
O391   O     0.44594   0.55767   0.38314   0.00000  Uiso   1.00
C392   C     0.46081   0.60413   0.38205   0.00000  Uiso   1.00
H393   H     0.49358   0.60584   0.37159   0.00000  Uiso   1.00
H394   H     0.45734   0.62180   0.41470   0.00000  Uiso   1.00
H395   H     0.44235   0.62422   0.35759   0.00000  Uiso   1.00
O396   O     0.55406   0.44233   0.11686   0.00000  Uiso   1.00
C397   C     0.53919   0.39587   0.11795   0.00000  Uiso   1.00
H398   H     0.54266   0.37820   0.08530   0.00000  Uiso   1.00
H399   H     0.50642   0.39416   0.12841   0.00000  Uiso   1.00
H400   H     0.55766   0.37578   0.14241   0.00000  Uiso   1.00
O401   O     0.37608   0.42958   0.20449   0.00000  Uiso   1.00
C402   C     0.38110   0.44390   0.16028   0.00000  Uiso   1.00
H403   H     0.39767   0.41577   0.14197   0.00000  Uiso   1.00
H404   H     0.40006   0.47608   0.15844   0.00000  Uiso   1.00
H405   H     0.35089   0.44951   0.14353   0.00000  Uiso   1.00
O406   O     0.62392   0.57042   0.29551   0.00000  Uiso   1.00
C407   C     0.61890   0.55610   0.33972   0.00000  Uiso   1.00
H408   H     0.59994   0.52392   0.34156   0.00000  Uiso   1.00
H409   H     0.60233   0.58423   0.35803   0.00000  Uiso   1.00
H410   H     0.64911   0.55049   0.35647   0.00000  Uiso   1.00
O411   O     0.62435   0.42804   0.20646   0.00000  Uiso   1.00
C412   C     0.62650   0.38604   0.23088   0.00000  Uiso   1.00
H413   H     0.60417   0.36087   0.21650   0.00000  Uiso   1.00
H414   H     0.61811   0.39147   0.26629   0.00000  Uiso   1.00
H415   H     0.65752   0.36973   0.22847   0.00000  Uiso   1.00
O416   O     0.37565   0.57196   0.29354   0.00000  Uiso   1.00
C417   C     0.37350   0.61396   0.26912   0.00000  Uiso   1.00
H418   H     0.38189   0.60853   0.23371   0.00000  Uiso   1.00
H419   H     0.39583   0.63913   0.28350   0.00000  Uiso   1.00
H420   H     0.34248   0.63027   0.27153   0.00000  Uiso   1.00
C421   C     0.75407   0.50019   0.24991   0.00000  Uiso   1.00
C422   C     0.91260   0.49981   0.25009   0.00000  Uiso   1.00
C423   C     0.77325   0.55191   0.02211   0.00000  Uiso   1.00
C424   C     0.89342   0.44809   0.47789   0.00000  Uiso   1.00
C425   C     0.68828   0.46440   0.22724   0.00000  Uiso   1.00
C426   C     0.97838   0.53560   0.27276   0.00000  Uiso   1.00
C427   C     0.97876   0.46278   0.22926   0.00000  Uiso   1.00
C428   C     0.68791   0.53722   0.27074   0.00000  Uiso   1.00
C429   C     0.95722   0.49939   0.25062   0.00000  Uiso   1.00
C430   C     0.70945   0.50061   0.24938   0.00000  Uiso   1.00
C431   C     0.80822   0.35816   0.22190   0.00000  Uiso   1.00
C432   C     0.85844   0.64184   0.27810   0.00000  Uiso   1.00
C433   C     0.85842   0.35812   0.27809   0.00000  Uiso   1.00
C434   C     0.80824   0.64188   0.22191   0.00000  Uiso   1.00
C435   C     0.83288   0.49976   0.16445   0.00000  Uiso   1.00
C436   C     0.83379   0.50023   0.33555   0.00000  Uiso   1.00
C437   C     0.86408   0.47362   0.40701   0.00000  Uiso   1.00
C438   C     0.80259   0.52638   0.09299   0.00000  Uiso   1.00
C439   C     0.83493   0.50103   0.38387   0.00000  Uiso   1.00
C440   C     0.83174   0.49897   0.11613   0.00000  Uiso   1.00
C441   C     0.80691   0.53010   0.40672   0.00000  Uiso   1.00
C442   C     0.85976   0.46990   0.09328   0.00000  Uiso   1.00
C443   C     0.80496   0.52794   0.45307   0.00000  Uiso   1.00
C444   C     0.86171   0.47206   0.04693   0.00000  Uiso   1.00
C445   C     0.83393   0.50045   0.47663   0.00000  Uiso   1.00
C446   C     0.83274   0.49955   0.02337   0.00000  Uiso   1.00
C447   C     0.86407   0.47388   0.45362   0.00000  Uiso   1.00
C448   C     0.80259   0.52612   0.04638   0.00000  Uiso   1.00
C449   C     0.77424   0.55244   0.47622   0.00000  Uiso   1.00
C450   C     0.89243   0.44756   0.02378   0.00000  Uiso   1.00
Cu451  Cu    0.83333   0.54689   0.25000   0.00000  Uiso   1.00
Cu452  Cu    0.83333   0.45311   0.25000   0.00000  Uiso   1.00
H453   H     0.75062   0.57224   0.45900   0.00000  Uiso   1.00
H454   H     0.91604   0.42776   0.04100   0.00000  Uiso   1.00
H455   H     0.74923   0.57202   0.03832   0.00000  Uiso   1.00
H456   H     0.91743   0.42798   0.46168   0.00000  Uiso   1.00
H457   H     0.78813   0.37688   0.19939   0.00000  Uiso   1.00
H458   H     0.87854   0.62312   0.30061   0.00000  Uiso   1.00
H459   H     0.87853   0.37680   0.30052   0.00000  Uiso   1.00
H460   H     0.78813   0.62320   0.19948   0.00000  Uiso   1.00
N461   N     0.83333   0.61736   0.25000   0.00000  Uiso   1.00
N462   N     0.83333   0.38264   0.25000   0.00000  Uiso   1.00
O463   O     0.77321   0.53958   0.24999   0.00000  Uiso   1.00
O464   O     0.89345   0.46042   0.25000   0.00000  Uiso   1.00
O465   O     0.89345   0.53958   0.25000   0.00000  Uiso   1.00
O466   O     0.77321   0.46042   0.24999   0.00000  Uiso   1.00
O467   O     0.83332   0.53960   0.18513   0.00000  Uiso   1.00
O468   O     0.83334   0.46040   0.31487   0.00000  Uiso   1.00
O469   O     0.83334   0.53960   0.31487   0.00000  Uiso   1.00
O470   O     0.83332   0.46040   0.18513   0.00000  Uiso   1.00
C471   C     0.89491   0.44683   0.38281   0.00000  Uiso   1.00
N472   N     0.91964   0.42562   0.36367   0.00000  Uiso   1.00
C473   C     0.77176   0.55317   0.11719   0.00000  Uiso   1.00
N474   N     0.74703   0.57438   0.13633   0.00000  Uiso   1.00
O475   O     0.77927   0.55767   0.38314   0.00000  Uiso   1.00
C476   C     0.79415   0.60413   0.38205   0.00000  Uiso   1.00
H477   H     0.82691   0.60584   0.37159   0.00000  Uiso   1.00
H478   H     0.79067   0.62180   0.41470   0.00000  Uiso   1.00
H479   H     0.77568   0.62422   0.35759   0.00000  Uiso   1.00
O480   O     0.88740   0.44233   0.11686   0.00000  Uiso   1.00
C481   C     0.87252   0.39587   0.11795   0.00000  Uiso   1.00
H482   H     0.87599   0.37820   0.08530   0.00000  Uiso   1.00
H483   H     0.83976   0.39416   0.12841   0.00000  Uiso   1.00
H484   H     0.89099   0.37578   0.14241   0.00000  Uiso   1.00
O485   O     0.70941   0.42958   0.20449   0.00000  Uiso   1.00
C486   C     0.71443   0.44390   0.16028   0.00000  Uiso   1.00
H487   H     0.73100   0.41577   0.14197   0.00000  Uiso   1.00
H488   H     0.73339   0.47608   0.15844   0.00000  Uiso   1.00
H489   H     0.68423   0.44951   0.14353   0.00000  Uiso   1.00
O490   O     0.95725   0.57042   0.29551   0.00000  Uiso   1.00
C491   C     0.95223   0.55610   0.33972   0.00000  Uiso   1.00
H492   H     0.93327   0.52392   0.34156   0.00000  Uiso   1.00
H493   H     0.93567   0.58423   0.35803   0.00000  Uiso   1.00
H494   H     0.98244   0.55049   0.35647   0.00000  Uiso   1.00
O495   O     0.95768   0.42804   0.20646   0.00000  Uiso   1.00
C496   C     0.95984   0.38604   0.23088   0.00000  Uiso   1.00
H497   H     0.93750   0.36087   0.21650   0.00000  Uiso   1.00
H498   H     0.95145   0.39147   0.26629   0.00000  Uiso   1.00
H499   H     0.99086   0.36973   0.22847   0.00000  Uiso   1.00
O500   O     0.70898   0.57196   0.29354   0.00000  Uiso   1.00
C501   C     0.70683   0.61396   0.26912   0.00000  Uiso   1.00
H502   H     0.71522   0.60853   0.23371   0.00000  Uiso   1.00
H503   H     0.72917   0.63913   0.28350   0.00000  Uiso   1.00
H504   H     0.67581   0.63027   0.27153   0.00000  Uiso   1.00
C505   C     0.08740   0.83352   0.24991   0.00000  Uiso   1.00
C506   C     0.24593   0.83315   0.25009   0.00000  Uiso   1.00
C507   C     0.10658   0.88525   0.02211   0.00000  Uiso   1.00
C508   C     0.22675   0.78142   0.47789   0.00000  Uiso   1.00
C509   C     0.02162   0.79774   0.22724   0.00000  Uiso   1.00
C510   C     0.31172   0.86893   0.27276   0.00000  Uiso   1.00
C511   C     0.31210   0.79611   0.22926   0.00000  Uiso   1.00
C512   C     0.02124   0.87055   0.27074   0.00000  Uiso   1.00
C513   C     0.29055   0.83272   0.25062   0.00000  Uiso   1.00
C514   C     0.04278   0.83394   0.24938   0.00000  Uiso   1.00
C515   C     0.14156   0.69149   0.22190   0.00000  Uiso   1.00
C516   C     0.19178   0.97517   0.27810   0.00000  Uiso   1.00
C517   C     0.19176   0.69145   0.27809   0.00000  Uiso   1.00
C518   C     0.14158   0.97521   0.22191   0.00000  Uiso   1.00
C519   C     0.16621   0.83310   0.16445   0.00000  Uiso   1.00
C520   C     0.16712   0.83357   0.33555   0.00000  Uiso   1.00
C521   C     0.19741   0.80696   0.40701   0.00000  Uiso   1.00
C522   C     0.13592   0.85971   0.09299   0.00000  Uiso   1.00
C523   C     0.16826   0.83436   0.38387   0.00000  Uiso   1.00
C524   C     0.16507   0.83231   0.11613   0.00000  Uiso   1.00
C525   C     0.14024   0.86343   0.40672   0.00000  Uiso   1.00
C526   C     0.19309   0.80323   0.09328   0.00000  Uiso   1.00
C527   C     0.13829   0.86127   0.45307   0.00000  Uiso   1.00
C528   C     0.19504   0.80540   0.04693   0.00000  Uiso   1.00
C529   C     0.16727   0.83379   0.47663   0.00000  Uiso   1.00
C530   C     0.16607   0.83288   0.02337   0.00000  Uiso   1.00
C531   C     0.19741   0.80722   0.45362   0.00000  Uiso   1.00
C532   C     0.13593   0.85945   0.04638   0.00000  Uiso   1.00
C533   C     0.10757   0.88578   0.47622   0.00000  Uiso   1.00
C534   C     0.22576   0.78089   0.02378   0.00000  Uiso   1.00
Cu535  Cu    0.16667   0.88022   0.25000   0.00000  Uiso   1.00
Cu536  Cu    0.16667   0.78645   0.25000   0.00000  Uiso   1.00
H537   H     0.08396   0.90557   0.45900   0.00000  Uiso   1.00
H538   H     0.24938   0.76110   0.04100   0.00000  Uiso   1.00
H539   H     0.08257   0.90535   0.03832   0.00000  Uiso   1.00
H540   H     0.25077   0.76132   0.46168   0.00000  Uiso   1.00
H541   H     0.12146   0.71021   0.19939   0.00000  Uiso   1.00
H542   H     0.21187   0.95645   0.30061   0.00000  Uiso   1.00
H543   H     0.21187   0.71013   0.30052   0.00000  Uiso   1.00
H544   H     0.12147   0.95654   0.19948   0.00000  Uiso   1.00
N545   N     0.16667   0.95069   0.25000   0.00000  Uiso   1.00
N546   N     0.16667   0.71598   0.25000   0.00000  Uiso   1.00
O547   O     0.10655   0.87291   0.24999   0.00000  Uiso   1.00
O548   O     0.22679   0.79375   0.25000   0.00000  Uiso   1.00
O549   O     0.22679   0.87291   0.25000   0.00000  Uiso   1.00
O550   O     0.10655   0.79375   0.24999   0.00000  Uiso   1.00
O551   O     0.16666   0.87293   0.18513   0.00000  Uiso   1.00
O552   O     0.16668   0.79373   0.31487   0.00000  Uiso   1.00
O553   O     0.16668   0.87293   0.31487   0.00000  Uiso   1.00
O554   O     0.16666   0.79373   0.18513   0.00000  Uiso   1.00
C555   C     0.22824   0.78016   0.38281   0.00000  Uiso   1.00
N556   N     0.25297   0.75895   0.36367   0.00000  Uiso   1.00
C557   C     0.10509   0.88650   0.11719   0.00000  Uiso   1.00
N558   N     0.08036   0.90771   0.13633   0.00000  Uiso   1.00
O559   O     0.11260   0.89101   0.38314   0.00000  Uiso   1.00
C560   C     0.12748   0.93746   0.38205   0.00000  Uiso   1.00
H561   H     0.16025   0.93917   0.37159   0.00000  Uiso   1.00
H562   H     0.12401   0.95514   0.41470   0.00000  Uiso   1.00
H563   H     0.10901   0.95755   0.35759   0.00000  Uiso   1.00
O564   O     0.22073   0.77566   0.11686   0.00000  Uiso   1.00
C565   C     0.20586   0.72920   0.11795   0.00000  Uiso   1.00
H566   H     0.20933   0.71153   0.08530   0.00000  Uiso   1.00
H567   H     0.17309   0.72749   0.12841   0.00000  Uiso   1.00
H568   H     0.22432   0.70912   0.14241   0.00000  Uiso   1.00
O569   O     0.04275   0.76291   0.20449   0.00000  Uiso   1.00
C570   C     0.04777   0.77723   0.16028   0.00000  Uiso   1.00
H571   H     0.06433   0.74911   0.14197   0.00000  Uiso   1.00
H572   H     0.06673   0.80942   0.15844   0.00000  Uiso   1.00
H573   H     0.01756   0.78284   0.14353   0.00000  Uiso   1.00
O574   O     0.29059   0.90376   0.29551   0.00000  Uiso   1.00
C575   C     0.28557   0.88944   0.33972   0.00000  Uiso   1.00
H576   H     0.26660   0.85725   0.34156   0.00000  Uiso   1.00
H577   H     0.26900   0.91756   0.35803   0.00000  Uiso   1.00
H578   H     0.31577   0.88382   0.35647   0.00000  Uiso   1.00
O579   O     0.29102   0.76137   0.20646   0.00000  Uiso   1.00
C580   C     0.29317   0.71937   0.23088   0.00000  Uiso   1.00
H581   H     0.27083   0.69421   0.21650   0.00000  Uiso   1.00
H582   H     0.28478   0.72481   0.26629   0.00000  Uiso   1.00
H583   H     0.32419   0.70306   0.22847   0.00000  Uiso   1.00
O584   O     0.04232   0.90529   0.29354   0.00000  Uiso   1.00
C585   C     0.04016   0.94729   0.26912   0.00000  Uiso   1.00
H586   H     0.04855   0.94186   0.23371   0.00000  Uiso   1.00
H587   H     0.06250   0.97246   0.28350   0.00000  Uiso   1.00
H588   H     0.00914   0.96360   0.27153   0.00000  Uiso   1.00
C589   C     0.42074   0.83352   0.24991   0.00000  Uiso   1.00
C590   C     0.57926   0.83315   0.25009   0.00000  Uiso   1.00
C591   C     0.43992   0.88525   0.02211   0.00000  Uiso   1.00
C592   C     0.56008   0.78142   0.47789   0.00000  Uiso   1.00
C593   C     0.35495   0.79774   0.22724   0.00000  Uiso   1.00
C594   C     0.64505   0.86893   0.27276   0.00000  Uiso   1.00
C595   C     0.64543   0.79611   0.22926   0.00000  Uiso   1.00
C596   C     0.35457   0.87055   0.27074   0.00000  Uiso   1.00
C597   C     0.62388   0.83272   0.25062   0.00000  Uiso   1.00
C598   C     0.37612   0.83394   0.24938   0.00000  Uiso   1.00
C599   C     0.47489   0.69149   0.22190   0.00000  Uiso   1.00
C600   C     0.52511   0.97517   0.27810   0.00000  Uiso   1.00
C601   C     0.52509   0.69145   0.27809   0.00000  Uiso   1.00
C602   C     0.47491   0.97521   0.22191   0.00000  Uiso   1.00
C603   C     0.49955   0.83310   0.16445   0.00000  Uiso   1.00
C604   C     0.50045   0.83357   0.33555   0.00000  Uiso   1.00
C605   C     0.53074   0.80696   0.40701   0.00000  Uiso   1.00
C606   C     0.46926   0.85971   0.09299   0.00000  Uiso   1.00
C607   C     0.50159   0.83436   0.38387   0.00000  Uiso   1.00
C608   C     0.49841   0.83231   0.11613   0.00000  Uiso   1.00
C609   C     0.47357   0.86343   0.40672   0.00000  Uiso   1.00
C610   C     0.52643   0.80323   0.09328   0.00000  Uiso   1.00
C611   C     0.47162   0.86127   0.45307   0.00000  Uiso   1.00
C612   C     0.52838   0.80540   0.04693   0.00000  Uiso   1.00
C613   C     0.50060   0.83379   0.47663   0.00000  Uiso   1.00
C614   C     0.49940   0.83288   0.02337   0.00000  Uiso   1.00
C615   C     0.53074   0.80722   0.45362   0.00000  Uiso   1.00
C616   C     0.46926   0.85945   0.04638   0.00000  Uiso   1.00
C617   C     0.44090   0.88578   0.47622   0.00000  Uiso   1.00
C618   C     0.55910   0.78089   0.02378   0.00000  Uiso   1.00
Cu619  Cu    0.50000   0.88022   0.25000   0.00000  Uiso   1.00
Cu620  Cu    0.50000   0.78645   0.25000   0.00000  Uiso   1.00
H621   H     0.41729   0.90557   0.45900   0.00000  Uiso   1.00
H622   H     0.58271   0.76110   0.04100   0.00000  Uiso   1.00
H623   H     0.41590   0.90535   0.03832   0.00000  Uiso   1.00
H624   H     0.58410   0.76132   0.46168   0.00000  Uiso   1.00
H625   H     0.45479   0.71021   0.19939   0.00000  Uiso   1.00
H626   H     0.54521   0.95645   0.30061   0.00000  Uiso   1.00
H627   H     0.54520   0.71013   0.30052   0.00000  Uiso   1.00
H628   H     0.45480   0.95654   0.19948   0.00000  Uiso   1.00
N629   N     0.50000   0.95069   0.25000   0.00000  Uiso   1.00
N630   N     0.50000   0.71598   0.25000   0.00000  Uiso   1.00
O631   O     0.43988   0.87291   0.24999   0.00000  Uiso   1.00
O632   O     0.56012   0.79375   0.25000   0.00000  Uiso   1.00
O633   O     0.56012   0.87291   0.25000   0.00000  Uiso   1.00
O634   O     0.43988   0.79375   0.24999   0.00000  Uiso   1.00
O635   O     0.49999   0.87293   0.18513   0.00000  Uiso   1.00
O636   O     0.50001   0.79373   0.31487   0.00000  Uiso   1.00
O637   O     0.50001   0.87293   0.31487   0.00000  Uiso   1.00
O638   O     0.49999   0.79373   0.18513   0.00000  Uiso   1.00
C639   C     0.56157   0.78016   0.38281   0.00000  Uiso   1.00
N640   N     0.58631   0.75895   0.36367   0.00000  Uiso   1.00
C641   C     0.43843   0.88650   0.11719   0.00000  Uiso   1.00
N642   N     0.41369   0.90771   0.13633   0.00000  Uiso   1.00
O643   O     0.44594   0.89101   0.38314   0.00000  Uiso   1.00
C644   C     0.46081   0.93746   0.38205   0.00000  Uiso   1.00
H645   H     0.49358   0.93917   0.37159   0.00000  Uiso   1.00
H646   H     0.45734   0.95514   0.41470   0.00000  Uiso   1.00
H647   H     0.44235   0.95755   0.35759   0.00000  Uiso   1.00
O648   O     0.55406   0.77566   0.11686   0.00000  Uiso   1.00
C649   C     0.53919   0.72920   0.11795   0.00000  Uiso   1.00
H650   H     0.54266   0.71153   0.08530   0.00000  Uiso   1.00
H651   H     0.50642   0.72749   0.12841   0.00000  Uiso   1.00
H652   H     0.55766   0.70912   0.14241   0.00000  Uiso   1.00
O653   O     0.37608   0.76291   0.20449   0.00000  Uiso   1.00
C654   C     0.38110   0.77723   0.16028   0.00000  Uiso   1.00
H655   H     0.39767   0.74911   0.14197   0.00000  Uiso   1.00
H656   H     0.40006   0.80942   0.15844   0.00000  Uiso   1.00
H657   H     0.35089   0.78284   0.14353   0.00000  Uiso   1.00
O658   O     0.62392   0.90376   0.29551   0.00000  Uiso   1.00
C659   C     0.61890   0.88944   0.33972   0.00000  Uiso   1.00
H660   H     0.59994   0.85725   0.34156   0.00000  Uiso   1.00
H661   H     0.60233   0.91756   0.35803   0.00000  Uiso   1.00
H662   H     0.64911   0.88382   0.35647   0.00000  Uiso   1.00
O663   O     0.62435   0.76137   0.20646   0.00000  Uiso   1.00
C664   C     0.62650   0.71937   0.23088   0.00000  Uiso   1.00
H665   H     0.60417   0.69421   0.21650   0.00000  Uiso   1.00
H666   H     0.61811   0.72481   0.26629   0.00000  Uiso   1.00
H667   H     0.65752   0.70306   0.22847   0.00000  Uiso   1.00
O668   O     0.37565   0.90529   0.29354   0.00000  Uiso   1.00
C669   C     0.37350   0.94729   0.26912   0.00000  Uiso   1.00
H670   H     0.38189   0.94186   0.23371   0.00000  Uiso   1.00
H671   H     0.39583   0.97246   0.28350   0.00000  Uiso   1.00
H672   H     0.34248   0.96360   0.27153   0.00000  Uiso   1.00
C673   C     0.75407   0.83352   0.24991   0.00000  Uiso   1.00
C674   C     0.91260   0.83315   0.25009   0.00000  Uiso   1.00
C675   C     0.77325   0.88525   0.02211   0.00000  Uiso   1.00
C676   C     0.89342   0.78142   0.47789   0.00000  Uiso   1.00
C677   C     0.68828   0.79774   0.22724   0.00000  Uiso   1.00
C678   C     0.97838   0.86893   0.27276   0.00000  Uiso   1.00
C679   C     0.97876   0.79611   0.22926   0.00000  Uiso   1.00
C680   C     0.68791   0.87055   0.27074   0.00000  Uiso   1.00
C681   C     0.95722   0.83272   0.25062   0.00000  Uiso   1.00
C682   C     0.70945   0.83394   0.24938   0.00000  Uiso   1.00
C683   C     0.80822   0.69149   0.22190   0.00000  Uiso   1.00
C684   C     0.85844   0.97517   0.27810   0.00000  Uiso   1.00
C685   C     0.85842   0.69145   0.27809   0.00000  Uiso   1.00
C686   C     0.80824   0.97521   0.22191   0.00000  Uiso   1.00
C687   C     0.83288   0.83310   0.16445   0.00000  Uiso   1.00
C688   C     0.83379   0.83357   0.33555   0.00000  Uiso   1.00
C689   C     0.86408   0.80696   0.40701   0.00000  Uiso   1.00
C690   C     0.80259   0.85971   0.09299   0.00000  Uiso   1.00
C691   C     0.83493   0.83436   0.38387   0.00000  Uiso   1.00
C692   C     0.83174   0.83231   0.11613   0.00000  Uiso   1.00
C693   C     0.80691   0.86343   0.40672   0.00000  Uiso   1.00
C694   C     0.85976   0.80323   0.09328   0.00000  Uiso   1.00
C695   C     0.80496   0.86127   0.45307   0.00000  Uiso   1.00
C696   C     0.86171   0.80540   0.04693   0.00000  Uiso   1.00
C697   C     0.83393   0.83379   0.47663   0.00000  Uiso   1.00
C698   C     0.83274   0.83288   0.02337   0.00000  Uiso   1.00
C699   C     0.86407   0.80722   0.45362   0.00000  Uiso   1.00
C700   C     0.80259   0.85945   0.04638   0.00000  Uiso   1.00
C701   C     0.77424   0.88578   0.47622   0.00000  Uiso   1.00
C702   C     0.89243   0.78089   0.02378   0.00000  Uiso   1.00
Cu703  Cu    0.83333   0.88022   0.25000   0.00000  Uiso   1.00
Cu704  Cu    0.83333   0.78645   0.25000   0.00000  Uiso   1.00
H705   H     0.75062   0.90557   0.45900   0.00000  Uiso   1.00
H706   H     0.91604   0.76110   0.04100   0.00000  Uiso   1.00
H707   H     0.74923   0.90535   0.03832   0.00000  Uiso   1.00
H708   H     0.91743   0.76132   0.46168   0.00000  Uiso   1.00
H709   H     0.78813   0.71021   0.19939   0.00000  Uiso   1.00
H710   H     0.87854   0.95645   0.30061   0.00000  Uiso   1.00
H711   H     0.87853   0.71013   0.30052   0.00000  Uiso   1.00
H712   H     0.78813   0.95654   0.19948   0.00000  Uiso   1.00
N713   N     0.83333   0.95069   0.25000   0.00000  Uiso   1.00
N714   N     0.83333   0.71598   0.25000   0.00000  Uiso   1.00
O715   O     0.77321   0.87291   0.24999   0.00000  Uiso   1.00
O716   O     0.89345   0.79375   0.25000   0.00000  Uiso   1.00
O717   O     0.89345   0.87291   0.25000   0.00000  Uiso   1.00
O718   O     0.77321   0.79375   0.24999   0.00000  Uiso   1.00
O719   O     0.83332   0.87293   0.18513   0.00000  Uiso   1.00
O720   O     0.83334   0.79373   0.31487   0.00000  Uiso   1.00
O721   O     0.83334   0.87293   0.31487   0.00000  Uiso   1.00
O722   O     0.83332   0.79373   0.18513   0.00000  Uiso   1.00
C723   C     0.89491   0.78016   0.38281   0.00000  Uiso   1.00
N724   N     0.91964   0.75895   0.36367   0.00000  Uiso   1.00
C725   C     0.77176   0.88650   0.11719   0.00000  Uiso   1.00
N726   N     0.74703   0.90771   0.13633   0.00000  Uiso   1.00
O727   O     0.77927   0.89101   0.38314   0.00000  Uiso   1.00
C728   C     0.79415   0.93746   0.38205   0.00000  Uiso   1.00
H729   H     0.82691   0.93917   0.37159   0.00000  Uiso   1.00
H730   H     0.79067   0.95514   0.41470   0.00000  Uiso   1.00
H731   H     0.77568   0.95755   0.35759   0.00000  Uiso   1.00
O732   O     0.88740   0.77566   0.11686   0.00000  Uiso   1.00
C733   C     0.87252   0.72920   0.11795   0.00000  Uiso   1.00
H734   H     0.87599   0.71153   0.08530   0.00000  Uiso   1.00
H735   H     0.83976   0.72749   0.12841   0.00000  Uiso   1.00
H736   H     0.89099   0.70912   0.14241   0.00000  Uiso   1.00
O737   O     0.70941   0.76291   0.20449   0.00000  Uiso   1.00
C738   C     0.71443   0.77723   0.16028   0.00000  Uiso   1.00
H739   H     0.73100   0.74911   0.14197   0.00000  Uiso   1.00
H740   H     0.73339   0.80942   0.15844   0.00000  Uiso   1.00
H741   H     0.68423   0.78284   0.14353   0.00000  Uiso   1.00
O742   O     0.95725   0.90376   0.29551   0.00000  Uiso   1.00
C743   C     0.95223   0.88944   0.33972   0.00000  Uiso   1.00
H744   H     0.93327   0.85725   0.34156   0.00000  Uiso   1.00
H745   H     0.93567   0.91756   0.35803   0.00000  Uiso   1.00
H746   H     0.98244   0.88382   0.35647   0.00000  Uiso   1.00
O747   O     0.95768   0.76137   0.20646   0.00000  Uiso   1.00
C748   C     0.95984   0.71937   0.23088   0.00000  Uiso   1.00
H749   H     0.93750   0.69421   0.21650   0.00000  Uiso   1.00
H750   H     0.95145   0.72481   0.26629   0.00000  Uiso   1.00
H751   H     0.99086   0.70306   0.22847   0.00000  Uiso   1.00
O752   O     0.70898   0.90529   0.29354   0.00000  Uiso   1.00
C753   C     0.70683   0.94729   0.26912   0.00000  Uiso   1.00
H754   H     0.71522   0.94186   0.23371   0.00000  Uiso   1.00
H755   H     0.72917   0.97246   0.28350   0.00000  Uiso   1.00
H756   H     0.67581   0.96360   0.27153   0.00000  Uiso   1.00
C757   C     0.08740   0.16685   0.74991   0.00000  Uiso   1.00
C758   C     0.24593   0.16648   0.75009   0.00000  Uiso   1.00
C759   C     0.10658   0.21858   0.52211   0.00000  Uiso   1.00
C760   C     0.22675   0.11475   0.97789   0.00000  Uiso   1.00
C761   C     0.02162   0.13107   0.72724   0.00000  Uiso   1.00
C762   C     0.31172   0.20226   0.77276   0.00000  Uiso   1.00
C763   C     0.31210   0.12945   0.72926   0.00000  Uiso   1.00
C764   C     0.02124   0.20389   0.77074   0.00000  Uiso   1.00
C765   C     0.29055   0.16606   0.75062   0.00000  Uiso   1.00
C766   C     0.04278   0.16728   0.74938   0.00000  Uiso   1.00
C767   C     0.14156   0.02483   0.72190   0.00000  Uiso   1.00
C768   C     0.19178   0.30850   0.77810   0.00000  Uiso   1.00
C769   C     0.19176   0.02479   0.77809   0.00000  Uiso   1.00
C770   C     0.14158   0.30855   0.72191   0.00000  Uiso   1.00
C771   C     0.16621   0.16643   0.66445   0.00000  Uiso   1.00
C772   C     0.16712   0.16690   0.83555   0.00000  Uiso   1.00
C773   C     0.19741   0.14029   0.90701   0.00000  Uiso   1.00
C774   C     0.13592   0.19304   0.59299   0.00000  Uiso   1.00
C775   C     0.16826   0.16769   0.88387   0.00000  Uiso   1.00
C776   C     0.16507   0.16564   0.61613   0.00000  Uiso   1.00
C777   C     0.14024   0.19677   0.90672   0.00000  Uiso   1.00
C778   C     0.19309   0.13657   0.59328   0.00000  Uiso   1.00
C779   C     0.13829   0.19460   0.95307   0.00000  Uiso   1.00
C780   C     0.19504   0.13873   0.54693   0.00000  Uiso   1.00
C781   C     0.16727   0.16712   0.97663   0.00000  Uiso   1.00
C782   C     0.16607   0.16621   0.52337   0.00000  Uiso   1.00
C783   C     0.19741   0.14055   0.95362   0.00000  Uiso   1.00
C784   C     0.13593   0.19278   0.54638   0.00000  Uiso   1.00
C785   C     0.10757   0.21911   0.97622   0.00000  Uiso   1.00
C786   C     0.22576   0.11422   0.52378   0.00000  Uiso   1.00
Cu787  Cu    0.16667   0.21355   0.75000   0.00000  Uiso   1.00
Cu788  Cu    0.16667   0.11978   0.75000   0.00000  Uiso   1.00
H789   H     0.08396   0.23890   0.95900   0.00000  Uiso   1.00
H790   H     0.24938   0.09443   0.54100   0.00000  Uiso   1.00
H791   H     0.08257   0.23868   0.53832   0.00000  Uiso   1.00
H792   H     0.25077   0.09465   0.96168   0.00000  Uiso   1.00
H793   H     0.12146   0.04354   0.69939   0.00000  Uiso   1.00
H794   H     0.21187   0.28979   0.80061   0.00000  Uiso   1.00
H795   H     0.21187   0.04346   0.80052   0.00000  Uiso   1.00
H796   H     0.12147   0.28987   0.69948   0.00000  Uiso   1.00
N797   N     0.16667   0.28402   0.75000   0.00000  Uiso   1.00
N798   N     0.16667   0.04931   0.75000   0.00000  Uiso   1.00
O799   O     0.10655   0.20625   0.74999   0.00000  Uiso   1.00
O800   O     0.22679   0.12709   0.75000   0.00000  Uiso   1.00
O801   O     0.22679   0.20625   0.75000   0.00000  Uiso   1.00
O802   O     0.10655   0.12709   0.74999   0.00000  Uiso   1.00
O803   O     0.16666   0.20627   0.68513   0.00000  Uiso   1.00
O804   O     0.16668   0.12707   0.81487   0.00000  Uiso   1.00
O805   O     0.16668   0.20627   0.81487   0.00000  Uiso   1.00
O806   O     0.16666   0.12707   0.68513   0.00000  Uiso   1.00
C807   C     0.22824   0.11350   0.88281   0.00000  Uiso   1.00
N808   N     0.25297   0.09229   0.86367   0.00000  Uiso   1.00
C809   C     0.10509   0.21984   0.61719   0.00000  Uiso   1.00
N810   N     0.08036   0.24104   0.63633   0.00000  Uiso   1.00
O811   O     0.11260   0.22434   0.88314   0.00000  Uiso   1.00
C812   C     0.12748   0.27080   0.88205   0.00000  Uiso   1.00
H813   H     0.16025   0.27251   0.87159   0.00000  Uiso   1.00
H814   H     0.12401   0.28847   0.91470   0.00000  Uiso   1.00
H815   H     0.10901   0.29088   0.85759   0.00000  Uiso   1.00
O816   O     0.22073   0.10899   0.61686   0.00000  Uiso   1.00
C817   C     0.20586   0.06254   0.61795   0.00000  Uiso   1.00
H818   H     0.20933   0.04486   0.58530   0.00000  Uiso   1.00
H819   H     0.17309   0.06083   0.62841   0.00000  Uiso   1.00
H820   H     0.22432   0.04245   0.64241   0.00000  Uiso   1.00
O821   O     0.04275   0.09624   0.70449   0.00000  Uiso   1.00
C822   C     0.04777   0.11056   0.66028   0.00000  Uiso   1.00
H823   H     0.06433   0.08244   0.64197   0.00000  Uiso   1.00
H824   H     0.06673   0.14275   0.65844   0.00000  Uiso   1.00
H825   H     0.01756   0.11617   0.64353   0.00000  Uiso   1.00
O826   O     0.29059   0.23709   0.79551   0.00000  Uiso   1.00
C827   C     0.28557   0.22277   0.83972   0.00000  Uiso   1.00
H828   H     0.26660   0.19058   0.84156   0.00000  Uiso   1.00
H829   H     0.26900   0.25089   0.85803   0.00000  Uiso   1.00
H830   H     0.31577   0.21715   0.85647   0.00000  Uiso   1.00
O831   O     0.29102   0.09471   0.70646   0.00000  Uiso   1.00
C832   C     0.29317   0.05271   0.73088   0.00000  Uiso   1.00
H833   H     0.27083   0.02754   0.71650   0.00000  Uiso   1.00
H834   H     0.28478   0.05814   0.76629   0.00000  Uiso   1.00
H835   H     0.32419   0.03640   0.72847   0.00000  Uiso   1.00
O836   O     0.04232   0.23863   0.79354   0.00000  Uiso   1.00
C837   C     0.04016   0.28063   0.76912   0.00000  Uiso   1.00
H838   H     0.04855   0.27519   0.73371   0.00000  Uiso   1.00
H839   H     0.06250   0.30579   0.78350   0.00000  Uiso   1.00
H840   H     0.00914   0.29694   0.77153   0.00000  Uiso   1.00
C841   C     0.42074   0.16685   0.74991   0.00000  Uiso   1.00
C842   C     0.57926   0.16648   0.75009   0.00000  Uiso   1.00
C843   C     0.43992   0.21858   0.52211   0.00000  Uiso   1.00
C844   C     0.56008   0.11475   0.97789   0.00000  Uiso   1.00
C845   C     0.35495   0.13107   0.72724   0.00000  Uiso   1.00
C846   C     0.64505   0.20226   0.77276   0.00000  Uiso   1.00
C847   C     0.64543   0.12945   0.72926   0.00000  Uiso   1.00
C848   C     0.35457   0.20389   0.77074   0.00000  Uiso   1.00
C849   C     0.62388   0.16606   0.75062   0.00000  Uiso   1.00
C850   C     0.37612   0.16728   0.74938   0.00000  Uiso   1.00
C851   C     0.47489   0.02483   0.72190   0.00000  Uiso   1.00
C852   C     0.52511   0.30850   0.77810   0.00000  Uiso   1.00
C853   C     0.52509   0.02479   0.77809   0.00000  Uiso   1.00
C854   C     0.47491   0.30855   0.72191   0.00000  Uiso   1.00
C855   C     0.49955   0.16643   0.66445   0.00000  Uiso   1.00
C856   C     0.50045   0.16690   0.83555   0.00000  Uiso   1.00
C857   C     0.53074   0.14029   0.90701   0.00000  Uiso   1.00
C858   C     0.46926   0.19304   0.59299   0.00000  Uiso   1.00
C859   C     0.50159   0.16769   0.88387   0.00000  Uiso   1.00
C860   C     0.49841   0.16564   0.61613   0.00000  Uiso   1.00
C861   C     0.47357   0.19677   0.90672   0.00000  Uiso   1.00
C862   C     0.52643   0.13657   0.59328   0.00000  Uiso   1.00
C863   C     0.47162   0.19460   0.95307   0.00000  Uiso   1.00
C864   C     0.52838   0.13873   0.54693   0.00000  Uiso   1.00
C865   C     0.50060   0.16712   0.97663   0.00000  Uiso   1.00
C866   C     0.49940   0.16621   0.52337   0.00000  Uiso   1.00
C867   C     0.53074   0.14055   0.95362   0.00000  Uiso   1.00
C868   C     0.46926   0.19278   0.54638   0.00000  Uiso   1.00
C869   C     0.44090   0.21911   0.97622   0.00000  Uiso   1.00
C870   C     0.55910   0.11422   0.52378   0.00000  Uiso   1.00
Cu871  Cu    0.50000   0.21355   0.75000   0.00000  Uiso   1.00
Cu872  Cu    0.50000   0.11978   0.75000   0.00000  Uiso   1.00
H873   H     0.41729   0.23890   0.95900   0.00000  Uiso   1.00
H874   H     0.58271   0.09443   0.54100   0.00000  Uiso   1.00
H875   H     0.41590   0.23868   0.53832   0.00000  Uiso   1.00
H876   H     0.58410   0.09465   0.96168   0.00000  Uiso   1.00
H877   H     0.45479   0.04354   0.69939   0.00000  Uiso   1.00
H878   H     0.54521   0.28979   0.80061   0.00000  Uiso   1.00
H879   H     0.54520   0.04346   0.80052   0.00000  Uiso   1.00
H880   H     0.45480   0.28987   0.69948   0.00000  Uiso   1.00
N881   N     0.50000   0.28402   0.75000   0.00000  Uiso   1.00
N882   N     0.50000   0.04931   0.75000   0.00000  Uiso   1.00
O883   O     0.43988   0.20625   0.74999   0.00000  Uiso   1.00
O884   O     0.56012   0.12709   0.75000   0.00000  Uiso   1.00
O885   O     0.56012   0.20625   0.75000   0.00000  Uiso   1.00
O886   O     0.43988   0.12709   0.74999   0.00000  Uiso   1.00
O887   O     0.49999   0.20627   0.68513   0.00000  Uiso   1.00
O888   O     0.50001   0.12707   0.81487   0.00000  Uiso   1.00
O889   O     0.50001   0.20627   0.81487   0.00000  Uiso   1.00
O890   O     0.49999   0.12707   0.68513   0.00000  Uiso   1.00
C891   C     0.56157   0.11350   0.88281   0.00000  Uiso   1.00
N892   N     0.58631   0.09229   0.86367   0.00000  Uiso   1.00
C893   C     0.43843   0.21984   0.61719   0.00000  Uiso   1.00
N894   N     0.41369   0.24104   0.63633   0.00000  Uiso   1.00
O895   O     0.44594   0.22434   0.88314   0.00000  Uiso   1.00
C896   C     0.46081   0.27080   0.88205   0.00000  Uiso   1.00
H897   H     0.49358   0.27251   0.87159   0.00000  Uiso   1.00
H898   H     0.45734   0.28847   0.91470   0.00000  Uiso   1.00
H899   H     0.44235   0.29088   0.85759   0.00000  Uiso   1.00
O900   O     0.55406   0.10899   0.61686   0.00000  Uiso   1.00
C901   C     0.53919   0.06254   0.61795   0.00000  Uiso   1.00
H902   H     0.54266   0.04486   0.58530   0.00000  Uiso   1.00
H903   H     0.50642   0.06083   0.62841   0.00000  Uiso   1.00
H904   H     0.55766   0.04245   0.64241   0.00000  Uiso   1.00
O905   O     0.37608   0.09624   0.70449   0.00000  Uiso   1.00
C906   C     0.38110   0.11056   0.66028   0.00000  Uiso   1.00
H907   H     0.39767   0.08244   0.64197   0.00000  Uiso   1.00
H908   H     0.40006   0.14275   0.65844   0.00000  Uiso   1.00
H909   H     0.35089   0.11617   0.64353   0.00000  Uiso   1.00
O910   O     0.62392   0.23709   0.79551   0.00000  Uiso   1.00
C911   C     0.61890   0.22277   0.83972   0.00000  Uiso   1.00
H912   H     0.59994   0.19058   0.84156   0.00000  Uiso   1.00
H913   H     0.60233   0.25089   0.85803   0.00000  Uiso   1.00
H914   H     0.64911   0.21715   0.85647   0.00000  Uiso   1.00
O915   O     0.62435   0.09471   0.70646   0.00000  Uiso   1.00
C916   C     0.62650   0.05271   0.73088   0.00000  Uiso   1.00
H917   H     0.60417   0.02754   0.71650   0.00000  Uiso   1.00
H918   H     0.61811   0.05814   0.76629   0.00000  Uiso   1.00
H919   H     0.65752   0.03640   0.72847   0.00000  Uiso   1.00
O920   O     0.37565   0.23863   0.79354   0.00000  Uiso   1.00
C921   C     0.37350   0.28063   0.76912   0.00000  Uiso   1.00
H922   H     0.38189   0.27519   0.73371   0.00000  Uiso   1.00
H923   H     0.39583   0.30579   0.78350   0.00000  Uiso   1.00
H924   H     0.34248   0.29694   0.77153   0.00000  Uiso   1.00
C925   C     0.75407   0.16685   0.74991   0.00000  Uiso   1.00
C926   C     0.91260   0.16648   0.75009   0.00000  Uiso   1.00
C927   C     0.77325   0.21858   0.52211   0.00000  Uiso   1.00
C928   C     0.89342   0.11475   0.97789   0.00000  Uiso   1.00
C929   C     0.68828   0.13107   0.72724   0.00000  Uiso   1.00
C930   C     0.97838   0.20226   0.77276   0.00000  Uiso   1.00
C931   C     0.97876   0.12945   0.72926   0.00000  Uiso   1.00
C932   C     0.68791   0.20389   0.77074   0.00000  Uiso   1.00
C933   C     0.95722   0.16606   0.75062   0.00000  Uiso   1.00
C934   C     0.70945   0.16728   0.74938   0.00000  Uiso   1.00
C935   C     0.80822   0.02483   0.72190   0.00000  Uiso   1.00
C936   C     0.85844   0.30850   0.77810   0.00000  Uiso   1.00
C937   C     0.85842   0.02479   0.77809   0.00000  Uiso   1.00
C938   C     0.80824   0.30855   0.72191   0.00000  Uiso   1.00
C939   C     0.83288   0.16643   0.66445   0.00000  Uiso   1.00
C940   C     0.83379   0.16690   0.83555   0.00000  Uiso   1.00
C941   C     0.86408   0.14029   0.90701   0.00000  Uiso   1.00
C942   C     0.80259   0.19304   0.59299   0.00000  Uiso   1.00
C943   C     0.83493   0.16769   0.88387   0.00000  Uiso   1.00
C944   C     0.83174   0.16564   0.61613   0.00000  Uiso   1.00
C945   C     0.80691   0.19677   0.90672   0.00000  Uiso   1.00
C946   C     0.85976   0.13657   0.59328   0.00000  Uiso   1.00
C947   C     0.80496   0.19460   0.95307   0.00000  Uiso   1.00
C948   C     0.86171   0.13873   0.54693   0.00000  Uiso   1.00
C949   C     0.83393   0.16712   0.97663   0.00000  Uiso   1.00
C950   C     0.83274   0.16621   0.52337   0.00000  Uiso   1.00
C951   C     0.86407   0.14055   0.95362   0.00000  Uiso   1.00
C952   C     0.80259   0.19278   0.54638   0.00000  Uiso   1.00
C953   C     0.77424   0.21911   0.97622   0.00000  Uiso   1.00
C954   C     0.89243   0.11422   0.52378   0.00000  Uiso   1.00
Cu955  Cu    0.83333   0.21355   0.75000   0.00000  Uiso   1.00
Cu956  Cu    0.83333   0.11978   0.75000   0.00000  Uiso   1.00
H957   H     0.75062   0.23890   0.95900   0.00000  Uiso   1.00
H958   H     0.91604   0.09443   0.54100   0.00000  Uiso   1.00
H959   H     0.74923   0.23868   0.53832   0.00000  Uiso   1.00
H960   H     0.91743   0.09465   0.96168   0.00000  Uiso   1.00
H961   H     0.78813   0.04354   0.69939   0.00000  Uiso   1.00
H962   H     0.87854   0.28979   0.80061   0.00000  Uiso   1.00
H963   H     0.87853   0.04346   0.80052   0.00000  Uiso   1.00
H964   H     0.78813   0.28987   0.69948   0.00000  Uiso   1.00
N965   N     0.83333   0.28402   0.75000   0.00000  Uiso   1.00
N966   N     0.83333   0.04931   0.75000   0.00000  Uiso   1.00
O967   O     0.77321   0.20625   0.74999   0.00000  Uiso   1.00
O968   O     0.89345   0.12709   0.75000   0.00000  Uiso   1.00
O969   O     0.89345   0.20625   0.75000   0.00000  Uiso   1.00
O970   O     0.77321   0.12709   0.74999   0.00000  Uiso   1.00
O971   O     0.83332   0.20627   0.68513   0.00000  Uiso   1.00
O972   O     0.83334   0.12707   0.81487   0.00000  Uiso   1.00
O973   O     0.83334   0.20627   0.81487   0.00000  Uiso   1.00
O974   O     0.83332   0.12707   0.68513   0.00000  Uiso   1.00
C975   C     0.89491   0.11350   0.88281   0.00000  Uiso   1.00
N976   N     0.91964   0.09229   0.86367   0.00000  Uiso   1.00
C977   C     0.77176   0.21984   0.61719   0.00000  Uiso   1.00
N978   N     0.74703   0.24104   0.63633   0.00000  Uiso   1.00
O979   O     0.77927   0.22434   0.88314   0.00000  Uiso   1.00
C980   C     0.79415   0.27080   0.88205   0.00000  Uiso   1.00
H981   H     0.82691   0.27251   0.87159   0.00000  Uiso   1.00
H982   H     0.79067   0.28847   0.91470   0.00000  Uiso   1.00
H983   H     0.77568   0.29088   0.85759   0.00000  Uiso   1.00
O984   O     0.88740   0.10899   0.61686   0.00000  Uiso   1.00
C985   C     0.87252   0.06254   0.61795   0.00000  Uiso   1.00
H986   H     0.87599   0.04486   0.58530   0.00000  Uiso   1.00
H987   H     0.83976   0.06083   0.62841   0.00000  Uiso   1.00
H988   H     0.89099   0.04245   0.64241   0.00000  Uiso   1.00
O989   O     0.70941   0.09624   0.70449   0.00000  Uiso   1.00
C990   C     0.71443   0.11056   0.66028   0.00000  Uiso   1.00
H991   H     0.73100   0.08244   0.64197   0.00000  Uiso   1.00
H992   H     0.73339   0.14275   0.65844   0.00000  Uiso   1.00
H993   H     0.68423   0.11617   0.64353   0.00000  Uiso   1.00
O994   O     0.95725   0.23709   0.79551   0.00000  Uiso   1.00
C995   C     0.95223   0.22277   0.83972   0.00000  Uiso   1.00
H996   H     0.93327   0.19058   0.84156   0.00000  Uiso   1.00
H997   H     0.93567   0.25089   0.85803   0.00000  Uiso   1.00
H998   H     0.98244   0.21715   0.85647   0.00000  Uiso   1.00
O999   O     0.95768   0.09471   0.70646   0.00000  Uiso   1.00
C1000  C     0.95984   0.05271   0.73088   0.00000  Uiso   1.00
H1001  H     0.93750   0.02754   0.71650   0.00000  Uiso   1.00
H1002  H     0.95145   0.05814   0.76629   0.00000  Uiso   1.00
H1003  H     0.99086   0.03640   0.72847   0.00000  Uiso   1.00
O1004  O     0.70898   0.23863   0.79354   0.00000  Uiso   1.00
C1005  C     0.70683   0.28063   0.76912   0.00000  Uiso   1.00
H1006  H     0.71522   0.27519   0.73371   0.00000  Uiso   1.00
H1007  H     0.72917   0.30579   0.78350   0.00000  Uiso   1.00
H1008  H     0.67581   0.29694   0.77153   0.00000  Uiso   1.00
C1009  C     0.08740   0.50019   0.74991   0.00000  Uiso   1.00
C1010  C     0.24593   0.49981   0.75009   0.00000  Uiso   1.00
C1011  C     0.10658   0.55191   0.52211   0.00000  Uiso   1.00
C1012  C     0.22675   0.44809   0.97789   0.00000  Uiso   1.00
C1013  C     0.02162   0.46440   0.72724   0.00000  Uiso   1.00
C1014  C     0.31172   0.53560   0.77276   0.00000  Uiso   1.00
C1015  C     0.31210   0.46278   0.72926   0.00000  Uiso   1.00
C1016  C     0.02124   0.53722   0.77074   0.00000  Uiso   1.00
C1017  C     0.29055   0.49939   0.75062   0.00000  Uiso   1.00
C1018  C     0.04278   0.50061   0.74938   0.00000  Uiso   1.00
C1019  C     0.14156   0.35816   0.72190   0.00000  Uiso   1.00
C1020  C     0.19178   0.64184   0.77810   0.00000  Uiso   1.00
C1021  C     0.19176   0.35812   0.77809   0.00000  Uiso   1.00
C1022  C     0.14158   0.64188   0.72191   0.00000  Uiso   1.00
C1023  C     0.16621   0.49976   0.66445   0.00000  Uiso   1.00
C1024  C     0.16712   0.50023   0.83555   0.00000  Uiso   1.00
C1025  C     0.19741   0.47362   0.90701   0.00000  Uiso   1.00
C1026  C     0.13592   0.52638   0.59299   0.00000  Uiso   1.00
C1027  C     0.16826   0.50103   0.88387   0.00000  Uiso   1.00
C1028  C     0.16507   0.49897   0.61613   0.00000  Uiso   1.00
C1029  C     0.14024   0.53010   0.90672   0.00000  Uiso   1.00
C1030  C     0.19309   0.46990   0.59328   0.00000  Uiso   1.00
C1031  C     0.13829   0.52794   0.95307   0.00000  Uiso   1.00
C1032  C     0.19504   0.47206   0.54693   0.00000  Uiso   1.00
C1033  C     0.16727   0.50045   0.97663   0.00000  Uiso   1.00
C1034  C     0.16607   0.49955   0.52337   0.00000  Uiso   1.00
C1035  C     0.19741   0.47388   0.95362   0.00000  Uiso   1.00
C1036  C     0.13593   0.52612   0.54638   0.00000  Uiso   1.00
C1037  C     0.10757   0.55244   0.97622   0.00000  Uiso   1.00
C1038  C     0.22576   0.44756   0.52378   0.00000  Uiso   1.00
Cu1039 Cu    0.16667   0.54689   0.75000   0.00000  Uiso   1.00
Cu1040 Cu    0.16667   0.45311   0.75000   0.00000  Uiso   1.00
H1041  H     0.08396   0.57224   0.95900   0.00000  Uiso   1.00
H1042  H     0.24938   0.42776   0.54100   0.00000  Uiso   1.00
H1043  H     0.08257   0.57202   0.53832   0.00000  Uiso   1.00
H1044  H     0.25077   0.42798   0.96168   0.00000  Uiso   1.00
H1045  H     0.12146   0.37688   0.69939   0.00000  Uiso   1.00
H1046  H     0.21187   0.62312   0.80061   0.00000  Uiso   1.00
H1047  H     0.21187   0.37680   0.80052   0.00000  Uiso   1.00
H1048  H     0.12147   0.62320   0.69948   0.00000  Uiso   1.00
N1049  N     0.16667   0.61736   0.75000   0.00000  Uiso   1.00
N1050  N     0.16667   0.38264   0.75000   0.00000  Uiso   1.00
O1051  O     0.10655   0.53958   0.74999   0.00000  Uiso   1.00
O1052  O     0.22679   0.46042   0.75000   0.00000  Uiso   1.00
O1053  O     0.22679   0.53958   0.75000   0.00000  Uiso   1.00
O1054  O     0.10655   0.46042   0.74999   0.00000  Uiso   1.00
O1055  O     0.16666   0.53960   0.68513   0.00000  Uiso   1.00
O1056  O     0.16668   0.46040   0.81487   0.00000  Uiso   1.00
O1057  O     0.16668   0.53960   0.81487   0.00000  Uiso   1.00
O1058  O     0.16666   0.46040   0.68513   0.00000  Uiso   1.00
C1059  C     0.22824   0.44683   0.88281   0.00000  Uiso   1.00
N1060  N     0.25297   0.42562   0.86367   0.00000  Uiso   1.00
C1061  C     0.10509   0.55317   0.61719   0.00000  Uiso   1.00
N1062  N     0.08036   0.57438   0.63633   0.00000  Uiso   1.00
O1063  O     0.11260   0.55767   0.88314   0.00000  Uiso   1.00
C1064  C     0.12748   0.60413   0.88205   0.00000  Uiso   1.00
H1065  H     0.16025   0.60584   0.87159   0.00000  Uiso   1.00
H1066  H     0.12401   0.62180   0.91470   0.00000  Uiso   1.00
H1067  H     0.10901   0.62422   0.85759   0.00000  Uiso   1.00
O1068  O     0.22073   0.44233   0.61686   0.00000  Uiso   1.00
C1069  C     0.20586   0.39587   0.61795   0.00000  Uiso   1.00
H1070  H     0.20933   0.37820   0.58530   0.00000  Uiso   1.00
H1071  H     0.17309   0.39416   0.62841   0.00000  Uiso   1.00
H1072  H     0.22432   0.37578   0.64241   0.00000  Uiso   1.00
O1073  O     0.04275   0.42958   0.70449   0.00000  Uiso   1.00
C1074  C     0.04777   0.44390   0.66028   0.00000  Uiso   1.00
H1075  H     0.06433   0.41577   0.64197   0.00000  Uiso   1.00
H1076  H     0.06673   0.47608   0.65844   0.00000  Uiso   1.00
H1077  H     0.01756   0.44951   0.64353   0.00000  Uiso   1.00
O1078  O     0.29059   0.57042   0.79551   0.00000  Uiso   1.00
C1079  C     0.28557   0.55610   0.83972   0.00000  Uiso   1.00
H1080  H     0.26660   0.52392   0.84156   0.00000  Uiso   1.00
H1081  H     0.26900   0.58423   0.85803   0.00000  Uiso   1.00
H1082  H     0.31577   0.55049   0.85647   0.00000  Uiso   1.00
O1083  O     0.29102   0.42804   0.70646   0.00000  Uiso   1.00
C1084  C     0.29317   0.38604   0.73088   0.00000  Uiso   1.00
H1085  H     0.27083   0.36087   0.71650   0.00000  Uiso   1.00
H1086  H     0.28478   0.39147   0.76629   0.00000  Uiso   1.00
H1087  H     0.32419   0.36973   0.72847   0.00000  Uiso   1.00
O1088  O     0.04232   0.57196   0.79354   0.00000  Uiso   1.00
C1089  C     0.04016   0.61396   0.76912   0.00000  Uiso   1.00
H1090  H     0.04855   0.60853   0.73371   0.00000  Uiso   1.00
H1091  H     0.06250   0.63913   0.78350   0.00000  Uiso   1.00
H1092  H     0.00914   0.63027   0.77153   0.00000  Uiso   1.00
C1093  C     0.42074   0.50019   0.74991   0.00000  Uiso   1.00
C1094  C     0.57926   0.49981   0.75009   0.00000  Uiso   1.00
C1095  C     0.43992   0.55191   0.52211   0.00000  Uiso   1.00
C1096  C     0.56008   0.44809   0.97789   0.00000  Uiso   1.00
C1097  C     0.35495   0.46440   0.72724   0.00000  Uiso   1.00
C1098  C     0.64505   0.53560   0.77276   0.00000  Uiso   1.00
C1099  C     0.64543   0.46278   0.72926   0.00000  Uiso   1.00
C1100  C     0.35457   0.53722   0.77074   0.00000  Uiso   1.00
C1101  C     0.62388   0.49939   0.75062   0.00000  Uiso   1.00
C1102  C     0.37612   0.50061   0.74938   0.00000  Uiso   1.00
C1103  C     0.47489   0.35816   0.72190   0.00000  Uiso   1.00
C1104  C     0.52511   0.64184   0.77810   0.00000  Uiso   1.00
C1105  C     0.52509   0.35812   0.77809   0.00000  Uiso   1.00
C1106  C     0.47491   0.64188   0.72191   0.00000  Uiso   1.00
C1107  C     0.49955   0.49976   0.66445   0.00000  Uiso   1.00
C1108  C     0.50045   0.50023   0.83555   0.00000  Uiso   1.00
C1109  C     0.53074   0.47362   0.90701   0.00000  Uiso   1.00
C1110  C     0.46926   0.52638   0.59299   0.00000  Uiso   1.00
C1111  C     0.50159   0.50103   0.88387   0.00000  Uiso   1.00
C1112  C     0.49841   0.49897   0.61613   0.00000  Uiso   1.00
C1113  C     0.47357   0.53010   0.90672   0.00000  Uiso   1.00
C1114  C     0.52643   0.46990   0.59328   0.00000  Uiso   1.00
C1115  C     0.47162   0.52794   0.95307   0.00000  Uiso   1.00
C1116  C     0.52838   0.47206   0.54693   0.00000  Uiso   1.00
C1117  C     0.50060   0.50045   0.97663   0.00000  Uiso   1.00
C1118  C     0.49940   0.49955   0.52337   0.00000  Uiso   1.00
C1119  C     0.53074   0.47388   0.95362   0.00000  Uiso   1.00
C1120  C     0.46926   0.52612   0.54638   0.00000  Uiso   1.00
C1121  C     0.44090   0.55244   0.97622   0.00000  Uiso   1.00
C1122  C     0.55910   0.44756   0.52378   0.00000  Uiso   1.00
Cu1123 Cu    0.50000   0.54689   0.75000   0.00000  Uiso   1.00
Cu1124 Cu    0.50000   0.45311   0.75000   0.00000  Uiso   1.00
H1125  H     0.41729   0.57224   0.95900   0.00000  Uiso   1.00
H1126  H     0.58271   0.42776   0.54100   0.00000  Uiso   1.00
H1127  H     0.41590   0.57202   0.53832   0.00000  Uiso   1.00
H1128  H     0.58410   0.42798   0.96168   0.00000  Uiso   1.00
H1129  H     0.45479   0.37688   0.69939   0.00000  Uiso   1.00
H1130  H     0.54521   0.62312   0.80061   0.00000  Uiso   1.00
H1131  H     0.54520   0.37680   0.80052   0.00000  Uiso   1.00
H1132  H     0.45480   0.62320   0.69948   0.00000  Uiso   1.00
N1133  N     0.50000   0.61736   0.75000   0.00000  Uiso   1.00
N1134  N     0.50000   0.38264   0.75000   0.00000  Uiso   1.00
O1135  O     0.43988   0.53958   0.74999   0.00000  Uiso   1.00
O1136  O     0.56012   0.46042   0.75000   0.00000  Uiso   1.00
O1137  O     0.56012   0.53958   0.75000   0.00000  Uiso   1.00
O1138  O     0.43988   0.46042   0.74999   0.00000  Uiso   1.00
O1139  O     0.49999   0.53960   0.68513   0.00000  Uiso   1.00
O1140  O     0.50001   0.46040   0.81487   0.00000  Uiso   1.00
O1141  O     0.50001   0.53960   0.81487   0.00000  Uiso   1.00
O1142  O     0.49999   0.46040   0.68513   0.00000  Uiso   1.00
C1143  C     0.56157   0.44683   0.88281   0.00000  Uiso   1.00
N1144  N     0.58631   0.42562   0.86367   0.00000  Uiso   1.00
C1145  C     0.43843   0.55317   0.61719   0.00000  Uiso   1.00
N1146  N     0.41369   0.57438   0.63633   0.00000  Uiso   1.00
O1147  O     0.44594   0.55767   0.88314   0.00000  Uiso   1.00
C1148  C     0.46081   0.60413   0.88205   0.00000  Uiso   1.00
H1149  H     0.49358   0.60584   0.87159   0.00000  Uiso   1.00
H1150  H     0.45734   0.62180   0.91470   0.00000  Uiso   1.00
H1151  H     0.44235   0.62422   0.85759   0.00000  Uiso   1.00
O1152  O     0.55406   0.44233   0.61686   0.00000  Uiso   1.00
C1153  C     0.53919   0.39587   0.61795   0.00000  Uiso   1.00
H1154  H     0.54266   0.37820   0.58530   0.00000  Uiso   1.00
H1155  H     0.50642   0.39416   0.62841   0.00000  Uiso   1.00
H1156  H     0.55766   0.37578   0.64241   0.00000  Uiso   1.00
O1157  O     0.37608   0.42958   0.70449   0.00000  Uiso   1.00
C1158  C     0.38110   0.44390   0.66028   0.00000  Uiso   1.00
H1159  H     0.39767   0.41577   0.64197   0.00000  Uiso   1.00
H1160  H     0.40006   0.47608   0.65844   0.00000  Uiso   1.00
H1161  H     0.35089   0.44951   0.64353   0.00000  Uiso   1.00
O1162  O     0.62392   0.57042   0.79551   0.00000  Uiso   1.00
C1163  C     0.61890   0.55610   0.83972   0.00000  Uiso   1.00
H1164  H     0.59994   0.52392   0.84156   0.00000  Uiso   1.00
H1165  H     0.60233   0.58423   0.85803   0.00000  Uiso   1.00
H1166  H     0.64911   0.55049   0.85647   0.00000  Uiso   1.00
O1167  O     0.62435   0.42804   0.70646   0.00000  Uiso   1.00
C1168  C     0.62650   0.38604   0.73088   0.00000  Uiso   1.00
H1169  H     0.60417   0.36087   0.71650   0.00000  Uiso   1.00
H1170  H     0.61811   0.39147   0.76629   0.00000  Uiso   1.00
H1171  H     0.65752   0.36973   0.72847   0.00000  Uiso   1.00
O1172  O     0.37565   0.57196   0.79354   0.00000  Uiso   1.00
C1173  C     0.37350   0.61396   0.76912   0.00000  Uiso   1.00
H1174  H     0.38189   0.60853   0.73371   0.00000  Uiso   1.00
H1175  H     0.39583   0.63913   0.78350   0.00000  Uiso   1.00
H1176  H     0.34248   0.63027   0.77153   0.00000  Uiso   1.00
C1177  C     0.75407   0.50019   0.74991   0.00000  Uiso   1.00
C1178  C     0.91260   0.49981   0.75009   0.00000  Uiso   1.00
C1179  C     0.77325   0.55191   0.52211   0.00000  Uiso   1.00
C1180  C     0.89342   0.44809   0.97789   0.00000  Uiso   1.00
C1181  C     0.68828   0.46440   0.72724   0.00000  Uiso   1.00
C1182  C     0.97838   0.53560   0.77276   0.00000  Uiso   1.00
C1183  C     0.97876   0.46278   0.72926   0.00000  Uiso   1.00
C1184  C     0.68791   0.53722   0.77074   0.00000  Uiso   1.00
C1185  C     0.95722   0.49939   0.75062   0.00000  Uiso   1.00
C1186  C     0.70945   0.50061   0.74938   0.00000  Uiso   1.00
C1187  C     0.80822   0.35816   0.72190   0.00000  Uiso   1.00
C1188  C     0.85844   0.64184   0.77810   0.00000  Uiso   1.00
C1189  C     0.85842   0.35812   0.77809   0.00000  Uiso   1.00
C1190  C     0.80824   0.64188   0.72191   0.00000  Uiso   1.00
C1191  C     0.83288   0.49976   0.66445   0.00000  Uiso   1.00
C1192  C     0.83379   0.50023   0.83555   0.00000  Uiso   1.00
C1193  C     0.86408   0.47362   0.90701   0.00000  Uiso   1.00
C1194  C     0.80259   0.52638   0.59299   0.00000  Uiso   1.00
C1195  C     0.83493   0.50103   0.88387   0.00000  Uiso   1.00
C1196  C     0.83174   0.49897   0.61613   0.00000  Uiso   1.00
C1197  C     0.80691   0.53010   0.90672   0.00000  Uiso   1.00
C1198  C     0.85976   0.46990   0.59328   0.00000  Uiso   1.00
C1199  C     0.80496   0.52794   0.95307   0.00000  Uiso   1.00
C1200  C     0.86171   0.47206   0.54693   0.00000  Uiso   1.00
C1201  C     0.83393   0.50045   0.97663   0.00000  Uiso   1.00
C1202  C     0.83274   0.49955   0.52337   0.00000  Uiso   1.00
C1203  C     0.86407   0.47388   0.95362   0.00000  Uiso   1.00
C1204  C     0.80259   0.52612   0.54638   0.00000  Uiso   1.00
C1205  C     0.77424   0.55244   0.97622   0.00000  Uiso   1.00
C1206  C     0.89243   0.44756   0.52378   0.00000  Uiso   1.00
Cu1207 Cu    0.83333   0.54689   0.75000   0.00000  Uiso   1.00
Cu1208 Cu    0.83333   0.45311   0.75000   0.00000  Uiso   1.00
H1209  H     0.75062   0.57224   0.95900   0.00000  Uiso   1.00
H1210  H     0.91604   0.42776   0.54100   0.00000  Uiso   1.00
H1211  H     0.74923   0.57202   0.53832   0.00000  Uiso   1.00
H1212  H     0.91743   0.42798   0.96168   0.00000  Uiso   1.00
H1213  H     0.78813   0.37688   0.69939   0.00000  Uiso   1.00
H1214  H     0.87854   0.62312   0.80061   0.00000  Uiso   1.00
H1215  H     0.87853   0.37680   0.80052   0.00000  Uiso   1.00
H1216  H     0.78813   0.62320   0.69948   0.00000  Uiso   1.00
N1217  N     0.83333   0.61736   0.75000   0.00000  Uiso   1.00
N1218  N     0.83333   0.38264   0.75000   0.00000  Uiso   1.00
O1219  O     0.77321   0.53958   0.74999   0.00000  Uiso   1.00
O1220  O     0.89345   0.46042   0.75000   0.00000  Uiso   1.00
O1221  O     0.89345   0.53958   0.75000   0.00000  Uiso   1.00
O1222  O     0.77321   0.46042   0.74999   0.00000  Uiso   1.00
O1223  O     0.83332   0.53960   0.68513   0.00000  Uiso   1.00
O1224  O     0.83334   0.46040   0.81487   0.00000  Uiso   1.00
O1225  O     0.83334   0.53960   0.81487   0.00000  Uiso   1.00
O1226  O     0.83332   0.46040   0.68513   0.00000  Uiso   1.00
C1227  C     0.89491   0.44683   0.88281   0.00000  Uiso   1.00
N1228  N     0.91964   0.42562   0.86367   0.00000  Uiso   1.00
C1229  C     0.77176   0.55317   0.61719   0.00000  Uiso   1.00
N1230  N     0.74703   0.57438   0.63633   0.00000  Uiso   1.00
O1231  O     0.77927   0.55767   0.88314   0.00000  Uiso   1.00
C1232  C     0.79415   0.60413   0.88205   0.00000  Uiso   1.00
H1233  H     0.82691   0.60584   0.87159   0.00000  Uiso   1.00
H1234  H     0.79067   0.62180   0.91470   0.00000  Uiso   1.00
H1235  H     0.77568   0.62422   0.85759   0.00000  Uiso   1.00
O1236  O     0.88740   0.44233   0.61686   0.00000  Uiso   1.00
C1237  C     0.87252   0.39587   0.61795   0.00000  Uiso   1.00
H1238  H     0.87599   0.37820   0.58530   0.00000  Uiso   1.00
H1239  H     0.83976   0.39416   0.62841   0.00000  Uiso   1.00
H1240  H     0.89099   0.37578   0.64241   0.00000  Uiso   1.00
O1241  O     0.70941   0.42958   0.70449   0.00000  Uiso   1.00
C1242  C     0.71443   0.44390   0.66028   0.00000  Uiso   1.00
H1243  H     0.73100   0.41577   0.64197   0.00000  Uiso   1.00
H1244  H     0.73339   0.47608   0.65844   0.00000  Uiso   1.00
H1245  H     0.68423   0.44951   0.64353   0.00000  Uiso   1.00
O1246  O     0.95725   0.57042   0.79551   0.00000  Uiso   1.00
C1247  C     0.95223   0.55610   0.83972   0.00000  Uiso   1.00
H1248  H     0.93327   0.52392   0.84156   0.00000  Uiso   1.00
H1249  H     0.93567   0.58423   0.85803   0.00000  Uiso   1.00
H1250  H     0.98244   0.55049   0.85647   0.00000  Uiso   1.00
O1251  O     0.95768   0.42804   0.70646   0.00000  Uiso   1.00
C1252  C     0.95984   0.38604   0.73088   0.00000  Uiso   1.00
H1253  H     0.93750   0.36087   0.71650   0.00000  Uiso   1.00
H1254  H     0.95145   0.39147   0.76629   0.00000  Uiso   1.00
H1255  H     0.99086   0.36973   0.72847   0.00000  Uiso   1.00
O1256  O     0.70898   0.57196   0.79354   0.00000  Uiso   1.00
C1257  C     0.70683   0.61396   0.76912   0.00000  Uiso   1.00
H1258  H     0.71522   0.60853   0.73371   0.00000  Uiso   1.00
H1259  H     0.72917   0.63913   0.78350   0.00000  Uiso   1.00
H1260  H     0.67581   0.63027   0.77153   0.00000  Uiso   1.00
C1261  C     0.08740   0.83352   0.74991   0.00000  Uiso   1.00
C1262  C     0.24593   0.83315   0.75009   0.00000  Uiso   1.00
C1263  C     0.10658   0.88525   0.52211   0.00000  Uiso   1.00
C1264  C     0.22675   0.78142   0.97789   0.00000  Uiso   1.00
C1265  C     0.02162   0.79774   0.72724   0.00000  Uiso   1.00
C1266  C     0.31172   0.86893   0.77276   0.00000  Uiso   1.00
C1267  C     0.31210   0.79611   0.72926   0.00000  Uiso   1.00
C1268  C     0.02124   0.87055   0.77074   0.00000  Uiso   1.00
C1269  C     0.29055   0.83272   0.75062   0.00000  Uiso   1.00
C1270  C     0.04278   0.83394   0.74938   0.00000  Uiso   1.00
C1271  C     0.14156   0.69149   0.72190   0.00000  Uiso   1.00
C1272  C     0.19178   0.97517   0.77810   0.00000  Uiso   1.00
C1273  C     0.19176   0.69145   0.77809   0.00000  Uiso   1.00
C1274  C     0.14158   0.97521   0.72191   0.00000  Uiso   1.00
C1275  C     0.16621   0.83310   0.66445   0.00000  Uiso   1.00
C1276  C     0.16712   0.83357   0.83555   0.00000  Uiso   1.00
C1277  C     0.19741   0.80696   0.90701   0.00000  Uiso   1.00
C1278  C     0.13592   0.85971   0.59299   0.00000  Uiso   1.00
C1279  C     0.16826   0.83436   0.88387   0.00000  Uiso   1.00
C1280  C     0.16507   0.83231   0.61613   0.00000  Uiso   1.00
C1281  C     0.14024   0.86343   0.90672   0.00000  Uiso   1.00
C1282  C     0.19309   0.80323   0.59328   0.00000  Uiso   1.00
C1283  C     0.13829   0.86127   0.95307   0.00000  Uiso   1.00
C1284  C     0.19504   0.80540   0.54693   0.00000  Uiso   1.00
C1285  C     0.16727   0.83379   0.97663   0.00000  Uiso   1.00
C1286  C     0.16607   0.83288   0.52337   0.00000  Uiso   1.00
C1287  C     0.19741   0.80722   0.95362   0.00000  Uiso   1.00
C1288  C     0.13593   0.85945   0.54638   0.00000  Uiso   1.00
C1289  C     0.10757   0.88578   0.97622   0.00000  Uiso   1.00
C1290  C     0.22576   0.78089   0.52378   0.00000  Uiso   1.00
Cu1291 Cu    0.16667   0.88022   0.75000   0.00000  Uiso   1.00
Cu1292 Cu    0.16667   0.78645   0.75000   0.00000  Uiso   1.00
H1293  H     0.08396   0.90557   0.95900   0.00000  Uiso   1.00
H1294  H     0.24938   0.76110   0.54100   0.00000  Uiso   1.00
H1295  H     0.08257   0.90535   0.53832   0.00000  Uiso   1.00
H1296  H     0.25077   0.76132   0.96168   0.00000  Uiso   1.00
H1297  H     0.12146   0.71021   0.69939   0.00000  Uiso   1.00
H1298  H     0.21187   0.95645   0.80061   0.00000  Uiso   1.00
H1299  H     0.21187   0.71013   0.80052   0.00000  Uiso   1.00
H1300  H     0.12147   0.95654   0.69948   0.00000  Uiso   1.00
N1301  N     0.16667   0.95069   0.75000   0.00000  Uiso   1.00
N1302  N     0.16667   0.71598   0.75000   0.00000  Uiso   1.00
O1303  O     0.10655   0.87291   0.74999   0.00000  Uiso   1.00
O1304  O     0.22679   0.79375   0.75000   0.00000  Uiso   1.00
O1305  O     0.22679   0.87291   0.75000   0.00000  Uiso   1.00
O1306  O     0.10655   0.79375   0.74999   0.00000  Uiso   1.00
O1307  O     0.16666   0.87293   0.68513   0.00000  Uiso   1.00
O1308  O     0.16668   0.79373   0.81487   0.00000  Uiso   1.00
O1309  O     0.16668   0.87293   0.81487   0.00000  Uiso   1.00
O1310  O     0.16666   0.79373   0.68513   0.00000  Uiso   1.00
C1311  C     0.22824   0.78016   0.88281   0.00000  Uiso   1.00
N1312  N     0.25297   0.75895   0.86367   0.00000  Uiso   1.00
C1313  C     0.10509   0.88650   0.61719   0.00000  Uiso   1.00
N1314  N     0.08036   0.90771   0.63633   0.00000  Uiso   1.00
O1315  O     0.11260   0.89101   0.88314   0.00000  Uiso   1.00
C1316  C     0.12748   0.93746   0.88205   0.00000  Uiso   1.00
H1317  H     0.16025   0.93917   0.87159   0.00000  Uiso   1.00
H1318  H     0.12401   0.95514   0.91470   0.00000  Uiso   1.00
H1319  H     0.10901   0.95755   0.85759   0.00000  Uiso   1.00
O1320  O     0.22073   0.77566   0.61686   0.00000  Uiso   1.00
C1321  C     0.20586   0.72920   0.61795   0.00000  Uiso   1.00
H1322  H     0.20933   0.71153   0.58530   0.00000  Uiso   1.00
H1323  H     0.17309   0.72749   0.62841   0.00000  Uiso   1.00
H1324  H     0.22432   0.70912   0.64241   0.00000  Uiso   1.00
O1325  O     0.04275   0.76291   0.70449   0.00000  Uiso   1.00
C1326  C     0.04777   0.77723   0.66028   0.00000  Uiso   1.00
H1327  H     0.06433   0.74911   0.64197   0.00000  Uiso   1.00
H1328  H     0.06673   0.80942   0.65844   0.00000  Uiso   1.00
H1329  H     0.01756   0.78284   0.64353   0.00000  Uiso   1.00
O1330  O     0.29059   0.90376   0.79551   0.00000  Uiso   1.00
C1331  C     0.28557   0.88944   0.83972   0.00000  Uiso   1.00
H1332  H     0.26660   0.85725   0.84156   0.00000  Uiso   1.00
H1333  H     0.26900   0.91756   0.85803   0.00000  Uiso   1.00
H1334  H     0.31577   0.88382   0.85647   0.00000  Uiso   1.00
O1335  O     0.29102   0.76137   0.70646   0.00000  Uiso   1.00
C1336  C     0.29317   0.71937   0.73088   0.00000  Uiso   1.00
H1337  H     0.27083   0.69421   0.71650   0.00000  Uiso   1.00
H1338  H     0.28478   0.72481   0.76629   0.00000  Uiso   1.00
H1339  H     0.32419   0.70306   0.72847   0.00000  Uiso   1.00
O1340  O     0.04232   0.90529   0.79354   0.00000  Uiso   1.00
C1341  C     0.04016   0.94729   0.76912   0.00000  Uiso   1.00
H1342  H     0.04855   0.94186   0.73371   0.00000  Uiso   1.00
H1343  H     0.06250   0.97246   0.78350   0.00000  Uiso   1.00
H1344  H     0.00914   0.96360   0.77153   0.00000  Uiso   1.00
C1345  C     0.42074   0.83352   0.74991   0.00000  Uiso   1.00
C1346  C     0.57926   0.83315   0.75009   0.00000  Uiso   1.00
C1347  C     0.43992   0.88525   0.52211   0.00000  Uiso   1.00
C1348  C     0.56008   0.78142   0.97789   0.00000  Uiso   1.00
C1349  C     0.35495   0.79774   0.72724   0.00000  Uiso   1.00
C1350  C     0.64505   0.86893   0.77276   0.00000  Uiso   1.00
C1351  C     0.64543   0.79611   0.72926   0.00000  Uiso   1.00
C1352  C     0.35457   0.87055   0.77074   0.00000  Uiso   1.00
C1353  C     0.62388   0.83272   0.75062   0.00000  Uiso   1.00
C1354  C     0.37612   0.83394   0.74938   0.00000  Uiso   1.00
C1355  C     0.47489   0.69149   0.72190   0.00000  Uiso   1.00
C1356  C     0.52511   0.97517   0.77810   0.00000  Uiso   1.00
C1357  C     0.52509   0.69145   0.77809   0.00000  Uiso   1.00
C1358  C     0.47491   0.97521   0.72191   0.00000  Uiso   1.00
C1359  C     0.49955   0.83310   0.66445   0.00000  Uiso   1.00
C1360  C     0.50045   0.83357   0.83555   0.00000  Uiso   1.00
C1361  C     0.53074   0.80696   0.90701   0.00000  Uiso   1.00
C1362  C     0.46926   0.85971   0.59299   0.00000  Uiso   1.00
C1363  C     0.50159   0.83436   0.88387   0.00000  Uiso   1.00
C1364  C     0.49841   0.83231   0.61613   0.00000  Uiso   1.00
C1365  C     0.47357   0.86343   0.90672   0.00000  Uiso   1.00
C1366  C     0.52643   0.80323   0.59328   0.00000  Uiso   1.00
C1367  C     0.47162   0.86127   0.95307   0.00000  Uiso   1.00
C1368  C     0.52838   0.80540   0.54693   0.00000  Uiso   1.00
C1369  C     0.50060   0.83379   0.97663   0.00000  Uiso   1.00
C1370  C     0.49940   0.83288   0.52337   0.00000  Uiso   1.00
C1371  C     0.53074   0.80722   0.95362   0.00000  Uiso   1.00
C1372  C     0.46926   0.85945   0.54638   0.00000  Uiso   1.00
C1373  C     0.44090   0.88578   0.97622   0.00000  Uiso   1.00
C1374  C     0.55910   0.78089   0.52378   0.00000  Uiso   1.00
Cu1375 Cu    0.50000   0.88022   0.75000   0.00000  Uiso   1.00
Cu1376 Cu    0.50000   0.78645   0.75000   0.00000  Uiso   1.00
H1377  H     0.41729   0.90557   0.95900   0.00000  Uiso   1.00
H1378  H     0.58271   0.76110   0.54100   0.00000  Uiso   1.00
H1379  H     0.41590   0.90535   0.53832   0.00000  Uiso   1.00
H1380  H     0.58410   0.76132   0.96168   0.00000  Uiso   1.00
H1381  H     0.45479   0.71021   0.69939   0.00000  Uiso   1.00
H1382  H     0.54521   0.95645   0.80061   0.00000  Uiso   1.00
H1383  H     0.54520   0.71013   0.80052   0.00000  Uiso   1.00
H1384  H     0.45480   0.95654   0.69948   0.00000  Uiso   1.00
N1385  N     0.50000   0.95069   0.75000   0.00000  Uiso   1.00
N1386  N     0.50000   0.71598   0.75000   0.00000  Uiso   1.00
O1387  O     0.43988   0.87291   0.74999   0.00000  Uiso   1.00
O1388  O     0.56012   0.79375   0.75000   0.00000  Uiso   1.00
O1389  O     0.56012   0.87291   0.75000   0.00000  Uiso   1.00
O1390  O     0.43988   0.79375   0.74999   0.00000  Uiso   1.00
O1391  O     0.49999   0.87293   0.68513   0.00000  Uiso   1.00
O1392  O     0.50001   0.79373   0.81487   0.00000  Uiso   1.00
O1393  O     0.50001   0.87293   0.81487   0.00000  Uiso   1.00
O1394  O     0.49999   0.79373   0.68513   0.00000  Uiso   1.00
C1395  C     0.56157   0.78016   0.88281   0.00000  Uiso   1.00
N1396  N     0.58631   0.75895   0.86367   0.00000  Uiso   1.00
C1397  C     0.43843   0.88650   0.61719   0.00000  Uiso   1.00
N1398  N     0.41369   0.90771   0.63633   0.00000  Uiso   1.00
O1399  O     0.44594   0.89101   0.88314   0.00000  Uiso   1.00
C1400  C     0.46081   0.93746   0.88205   0.00000  Uiso   1.00
H1401  H     0.49358   0.93917   0.87159   0.00000  Uiso   1.00
H1402  H     0.45734   0.95514   0.91470   0.00000  Uiso   1.00
H1403  H     0.44235   0.95755   0.85759   0.00000  Uiso   1.00
O1404  O     0.55406   0.77566   0.61686   0.00000  Uiso   1.00
C1405  C     0.53919   0.72920   0.61795   0.00000  Uiso   1.00
H1406  H     0.54266   0.71153   0.58530   0.00000  Uiso   1.00
H1407  H     0.50642   0.72749   0.62841   0.00000  Uiso   1.00
H1408  H     0.55766   0.70912   0.64241   0.00000  Uiso   1.00
O1409  O     0.37608   0.76291   0.70449   0.00000  Uiso   1.00
C1410  C     0.38110   0.77723   0.66028   0.00000  Uiso   1.00
H1411  H     0.39767   0.74911   0.64197   0.00000  Uiso   1.00
H1412  H     0.40006   0.80942   0.65844   0.00000  Uiso   1.00
H1413  H     0.35089   0.78284   0.64353   0.00000  Uiso   1.00
O1414  O     0.62392   0.90376   0.79551   0.00000  Uiso   1.00
C1415  C     0.61890   0.88944   0.83972   0.00000  Uiso   1.00
H1416  H     0.59994   0.85725   0.84156   0.00000  Uiso   1.00
H1417  H     0.60233   0.91756   0.85803   0.00000  Uiso   1.00
H1418  H     0.64911   0.88382   0.85647   0.00000  Uiso   1.00
O1419  O     0.62435   0.76137   0.70646   0.00000  Uiso   1.00
C1420  C     0.62650   0.71937   0.73088   0.00000  Uiso   1.00
H1421  H     0.60417   0.69421   0.71650   0.00000  Uiso   1.00
H1422  H     0.61811   0.72481   0.76629   0.00000  Uiso   1.00
H1423  H     0.65752   0.70306   0.72847   0.00000  Uiso   1.00
O1424  O     0.37565   0.90529   0.79354   0.00000  Uiso   1.00
C1425  C     0.37350   0.94729   0.76912   0.00000  Uiso   1.00
H1426  H     0.38189   0.94186   0.73371   0.00000  Uiso   1.00
H1427  H     0.39583   0.97246   0.78350   0.00000  Uiso   1.00
H1428  H     0.34248   0.96360   0.77153   0.00000  Uiso   1.00
C1429  C     0.75407   0.83352   0.74991   0.00000  Uiso   1.00
C1430  C     0.91260   0.83315   0.75009   0.00000  Uiso   1.00
C1431  C     0.77325   0.88525   0.52211   0.00000  Uiso   1.00
C1432  C     0.89342   0.78142   0.97789   0.00000  Uiso   1.00
C1433  C     0.68828   0.79774   0.72724   0.00000  Uiso   1.00
C1434  C     0.97838   0.86893   0.77276   0.00000  Uiso   1.00
C1435  C     0.97876   0.79611   0.72926   0.00000  Uiso   1.00
C1436  C     0.68791   0.87055   0.77074   0.00000  Uiso   1.00
C1437  C     0.95722   0.83272   0.75062   0.00000  Uiso   1.00
C1438  C     0.70945   0.83394   0.74938   0.00000  Uiso   1.00
C1439  C     0.80822   0.69149   0.72190   0.00000  Uiso   1.00
C1440  C     0.85844   0.97517   0.77810   0.00000  Uiso   1.00
C1441  C     0.85842   0.69145   0.77809   0.00000  Uiso   1.00
C1442  C     0.80824   0.97521   0.72191   0.00000  Uiso   1.00
C1443  C     0.83288   0.83310   0.66445   0.00000  Uiso   1.00
C1444  C     0.83379   0.83357   0.83555   0.00000  Uiso   1.00
C1445  C     0.86408   0.80696   0.90701   0.00000  Uiso   1.00
C1446  C     0.80259   0.85971   0.59299   0.00000  Uiso   1.00
C1447  C     0.83493   0.83436   0.88387   0.00000  Uiso   1.00
C1448  C     0.83174   0.83231   0.61613   0.00000  Uiso   1.00
C1449  C     0.80691   0.86343   0.90672   0.00000  Uiso   1.00
C1450  C     0.85976   0.80323   0.59328   0.00000  Uiso   1.00
C1451  C     0.80496   0.86127   0.95307   0.00000  Uiso   1.00
C1452  C     0.86171   0.80540   0.54693   0.00000  Uiso   1.00
C1453  C     0.83393   0.83379   0.97663   0.00000  Uiso   1.00
C1454  C     0.83274   0.83288   0.52337   0.00000  Uiso   1.00
C1455  C     0.86407   0.80722   0.95362   0.00000  Uiso   1.00
C1456  C     0.80259   0.85945   0.54638   0.00000  Uiso   1.00
C1457  C     0.77424   0.88578   0.97622   0.00000  Uiso   1.00
C1458  C     0.89243   0.78089   0.52378   0.00000  Uiso   1.00
Cu1459 Cu    0.83333   0.88022   0.75000   0.00000  Uiso   1.00
Cu1460 Cu    0.83333   0.78645   0.75000   0.00000  Uiso   1.00
H1461  H     0.75062   0.90557   0.95900   0.00000  Uiso   1.00
H1462  H     0.91604   0.76110   0.54100   0.00000  Uiso   1.00
H1463  H     0.74923   0.90535   0.53832   0.00000  Uiso   1.00
H1464  H     0.91743   0.76132   0.96168   0.00000  Uiso   1.00
H1465  H     0.78813   0.71021   0.69939   0.00000  Uiso   1.00
H1466  H     0.87854   0.95645   0.80061   0.00000  Uiso   1.00
H1467  H     0.87853   0.71013   0.80052   0.00000  Uiso   1.00
H1468  H     0.78813   0.95654   0.69948   0.00000  Uiso   1.00
N1469  N     0.83333   0.95069   0.75000   0.00000  Uiso   1.00
N1470  N     0.83333   0.71598   0.75000   0.00000  Uiso   1.00
O1471  O     0.77321   0.87291   0.74999   0.00000  Uiso   1.00
O1472  O     0.89345   0.79375   0.75000   0.00000  Uiso   1.00
O1473  O     0.89345   0.87291   0.75000   0.00000  Uiso   1.00
O1474  O     0.77321   0.79375   0.74999   0.00000  Uiso   1.00
O1475  O     0.83332   0.87293   0.68513   0.00000  Uiso   1.00
O1476  O     0.83334   0.79373   0.81487   0.00000  Uiso   1.00
O1477  O     0.83334   0.87293   0.81487   0.00000  Uiso   1.00
O1478  O     0.83332   0.79373   0.68513   0.00000  Uiso   1.00
C1479  C     0.89491   0.78016   0.88281   0.00000  Uiso   1.00
N1480  N     0.91964   0.75895   0.86367   0.00000  Uiso   1.00
C1481  C     0.77176   0.88650   0.61719   0.00000  Uiso   1.00
N1482  N     0.74703   0.90771   0.63633   0.00000  Uiso   1.00
O1483  O     0.77927   0.89101   0.88314   0.00000  Uiso   1.00
C1484  C     0.79415   0.93746   0.88205   0.00000  Uiso   1.00
H1485  H     0.82691   0.93917   0.87159   0.00000  Uiso   1.00
H1486  H     0.79067   0.95514   0.91470   0.00000  Uiso   1.00
H1487  H     0.77568   0.95755   0.85759   0.00000  Uiso   1.00
O1488  O     0.88740   0.77566   0.61686   0.00000  Uiso   1.00
C1489  C     0.87252   0.72920   0.61795   0.00000  Uiso   1.00
H1490  H     0.87599   0.71153   0.58530   0.00000  Uiso   1.00
H1491  H     0.83976   0.72749   0.62841   0.00000  Uiso   1.00
H1492  H     0.89099   0.70912   0.64241   0.00000  Uiso   1.00
O1493  O     0.70941   0.76291   0.70449   0.00000  Uiso   1.00
C1494  C     0.71443   0.77723   0.66028   0.00000  Uiso   1.00
H1495  H     0.73100   0.74911   0.64197   0.00000  Uiso   1.00
H1496  H     0.73339   0.80942   0.65844   0.00000  Uiso   1.00
H1497  H     0.68423   0.78284   0.64353   0.00000  Uiso   1.00
O1498  O     0.95725   0.90376   0.79551   0.00000  Uiso   1.00
C1499  C     0.95223   0.88944   0.83972   0.00000  Uiso   1.00
H1500  H     0.93327   0.85725   0.84156   0.00000  Uiso   1.00
H1501  H     0.93567   0.91756   0.85803   0.00000  Uiso   1.00
H1502  H     0.98244   0.88382   0.85647   0.00000  Uiso   1.00
O1503  O     0.95768   0.76137   0.70646   0.00000  Uiso   1.00
C1504  C     0.95984   0.71937   0.73088   0.00000  Uiso   1.00
H1505  H     0.93750   0.69421   0.71650   0.00000  Uiso   1.00
H1506  H     0.95145   0.72481   0.76629   0.00000  Uiso   1.00
H1507  H     0.99086   0.70306   0.72847   0.00000  Uiso   1.00
O1508  O     0.70898   0.90529   0.79354   0.00000  Uiso   1.00
C1509  C     0.70683   0.94729   0.76912   0.00000  Uiso   1.00
H1510  H     0.71522   0.94186   0.73371   0.00000  Uiso   1.00
H1511  H     0.72917   0.97246   0.78350   0.00000  Uiso   1.00
H1512  H     0.67581   0.96360   0.77153   0.00000  Uiso   1.00
loop_
_geom_bond_atom_site_label_1
_geom_bond_atom_site_label_2
_geom_bond_distance
_geom_bond_site_symmetry_2
_ccdc_geom_bond_type
C1     O46     1.290   .     A
C1     O43     1.288   .     A
C1     C10     1.450   .     S
C2     O44     1.288   .     A
C2     O45     1.290   .     A
C2     C9      1.450   .     S
C3     C28     1.407   .     A
C3     H35     1.082   .     S
C3     C785    1.387   1_554 S
C4     H36     1.082   .     S
C4     C27     1.407   .     A
C4     C786    1.387   .     S
C5     O65     1.384   .     S
C5     C10     1.408   .     A
C5     C175    1.395   1_455 S
C6     O70     1.384   .     S
C6     C9      1.408   .     A
C6     C92     1.395   .     S
C7     O75     1.386   .     S
C7     C9      1.408   .     A
C7     C89     1.395   .     S
C8     C10     1.408   .     A
C8     O80     1.386   .     S
C8     C174    1.395   1_455 S
C11    N42     1.366   .     A
C11    H37     1.081   .     S
C11    C518    1.415   1_545 S
C12    N41     1.366   .     A
C12    H38     1.081   .     S
C12    C265    1.415   .     S
C13    N42     1.366   .     A
C13    H39     1.079   .     S
C13    C516    1.415   1_545 S
C14    N41     1.366   .     A
C14    H40     1.079   .     S
C14    C263    1.415   .     S
C15    O47     1.293   .     A
C15    O50     1.288   .     A
C15    C20     1.460   .     S
C16    O48     1.293   .     A
C16    O49     1.288   .     A
C16    C19     1.460   .     S
C17    C51     1.453   .     S
C17    C27     1.408   .     A
C17    C19     1.410   .     A
C18    C53     1.453   .     S
C18    C28     1.408   .     A
C18    C20     1.410   .     A
C19    C21     1.407   .     A
C20    C22     1.407   .     A
C21    O55     1.387   .     S
C21    C23     1.403   .     A
C22    O60     1.387   .     S
C22    C24     1.403   .     A
C23    C29     1.402   .     A
C23    C25     1.413   .     A
C24    C26     1.413   .     A
C24    C30     1.402   .     A
C25    C27     1.416   .     A
C25    C782    1.413   .     S
C26    C28     1.416   .     A
C26    C781    1.413   1_554 S
C29    H33     1.083   .     S
C29    C759    1.387   .     S
C30    H34     1.083   .     S
C30    C760    1.387   1_554 S
Cu31   O43     1.966   .     S
Cu31   O47     1.969   .     S
Cu31   O49     1.971   .     S
Cu31   Cu32    2.675   .     S
Cu31   N41     2.010   .     S
Cu31   O45     1.963   .     S
Cu32   O48     1.969   .     S
Cu32   O44     1.966   .     S
Cu32   O50     1.971   .     S
Cu32   O46     1.963   .     S
Cu32   N42     2.010   .     S
C51    N52     1.157   .     T
C53    N54     1.157   .     T
O55    C56     1.414   .     S
C56    H57     1.114   .     S
C56    H59     1.109   .     S
C56    H58     1.110   .     S
O60    C61     1.414   .     S
C61    H63     1.114   .     S
C61    H64     1.109   .     S
C61    H62     1.110   .     S
O65    C66     1.409   .     S
C66    H68     1.111   .     S
C66    H69     1.113   .     S
C66    H67     1.109   .     S
O70    C71     1.409   .     S
C71    H74     1.113   .     S
C71    H72     1.111   .     S
C71    H73     1.109   .     S
O75    C76     1.412   .     S
C76    H79     1.110   .     S
C76    H77     1.109   .     S
C76    H78     1.114   .     S
O80    C81     1.412   .     S
C81    H82     1.114   .     S
C81    H83     1.109   .     S
C81    H84     1.110   .     S
C85    O130    1.290   .     A
C85    O127    1.288   .     A
C85    C94     1.450   .     S
C86    O128    1.288   .     A
C86    O129    1.290   .     A
C86    C93     1.450   .     S
C87    C112    1.407   .     A
C87    H119    1.082   .     S
C87    C869    1.387   1_554 S
C88    H120    1.082   .     S
C88    C111    1.407   .     A
C88    C870    1.387   .     S
C89    O149    1.384   .     S
C89    C94     1.408   .     A
C90    O154    1.384   .     S
C90    C93     1.408   .     A
C90    C176    1.395   .     S
C91    O159    1.386   .     S
C91    C93     1.408   .     A
C91    C173    1.395   .     S
C92    C94     1.408   .     A
C92    O164    1.386   .     S
C95    N126    1.366   .     A
C95    H121    1.081   .     S
C95    C602    1.415   1_545 S
C96    N125    1.366   .     A
C96    H122    1.081   .     S
C96    C349    1.415   .     S
C97    N126    1.366   .     A
C97    H123    1.079   .     S
C97    C600    1.415   1_545 S
C98    N125    1.366   .     A
C98    H124    1.079   .     S
C98    C347    1.415   .     S
C99    O131    1.293   .     A
C99    O134    1.288   .     A
C99    C104    1.460   .     S
C100   O132    1.293   .     A
C100   O133    1.288   .     A
C100   C103    1.460   .     S
C101   C135    1.453   .     S
C101   C111    1.408   .     A
C101   C103    1.410   .     A
C102   C137    1.453   .     S
C102   C112    1.408   .     A
C102   C104    1.410   .     A
C103   C105    1.407   .     A
C104   C106    1.407   .     A
C105   O139    1.387   .     S
C105   C107    1.403   .     A
C106   O144    1.387   .     S
C106   C108    1.403   .     A
C107   C113    1.402   .     A
C107   C109    1.413   .     A
C108   C110    1.413   .     A
C108   C114    1.402   .     A
C109   C111    1.416   .     A
C109   C866    1.413   .     S
C110   C112    1.416   .     A
C110   C865    1.413   1_554 S
C113   H117    1.083   .     S
C113   C843    1.387   .     S
C114   H118    1.083   .     S
C114   C844    1.387   1_554 S
Cu115  O127    1.966   .     S
Cu115  O131    1.969   .     S
Cu115  O133    1.971   .     S
Cu115  Cu116   2.675   .     S
Cu115  N125    2.010   .     S
Cu115  O129    1.963   .     S
Cu116  O132    1.969   .     S
Cu116  O128    1.966   .     S
Cu116  O134    1.971   .     S
Cu116  O130    1.963   .     S
Cu116  N126    2.010   .     S
C135   N136    1.157   .     T
C137   N138    1.157   .     T
O139   C140    1.414   .     S
C140   H141    1.114   .     S
C140   H143    1.109   .     S
C140   H142    1.110   .     S
O144   C145    1.414   .     S
C145   H147    1.114   .     S
C145   H148    1.109   .     S
C145   H146    1.110   .     S
O149   C150    1.409   .     S
C150   H152    1.111   .     S
C150   H153    1.113   .     S
C150   H151    1.109   .     S
O154   C155    1.409   .     S
C155   H158    1.113   .     S
C155   H156    1.111   .     S
C155   H157    1.109   .     S
O159   C160    1.412   .     S
C160   H163    1.110   .     S
C160   H161    1.109   .     S
C160   H162    1.114   .     S
O164   C165    1.412   .     S
C165   H166    1.114   .     S
C165   H167    1.109   .     S
C165   H168    1.110   .     S
C169   O214    1.290   .     A
C169   O211    1.288   .     A
C169   C178    1.450   .     S
C170   O212    1.288   .     A
C170   O213    1.290   .     A
C170   C177    1.450   .     S
C171   C196    1.407   .     A
C171   H203    1.082   .     S
C171   C953    1.387   1_554 S
C172   H204    1.082   .     S
C172   C195    1.407   .     A
C172   C954    1.387   .     S
C173   O233    1.384   .     S
C173   C178    1.408   .     A
C174   O238    1.384   .     S
C174   C177    1.408   .     A
C174   C8      1.395   1_655 S
C175   O243    1.386   .     S
C175   C177    1.408   .     A
C175   C5      1.395   1_655 S
C176   C178    1.408   .     A
C176   O248    1.386   .     S
C179   N210    1.366   .     A
C179   H205    1.081   .     S
C179   C686    1.415   1_545 S
C180   N209    1.366   .     A
C180   H206    1.081   .     S
C180   C433    1.415   .     S
C181   N210    1.366   .     A
C181   H207    1.079   .     S
C181   C684    1.415   1_545 S
C182   N209    1.366   .     A
C182   H208    1.079   .     S
C182   C431    1.415   .     S
C183   O215    1.293   .     A
C183   O218    1.288   .     A
C183   C188    1.460   .     S
C184   O216    1.293   .     A
C184   O217    1.288   .     A
C184   C187    1.460   .     S
C185   C219    1.453   .     S
C185   C195    1.408   .     A
C185   C187    1.410   .     A
C186   C221    1.453   .     S
C186   C196    1.408   .     A
C186   C188    1.410   .     A
C187   C189    1.407   .     A
C188   C190    1.407   .     A
C189   O223    1.387   .     S
C189   C191    1.403   .     A
C190   O228    1.387   .     S
C190   C192    1.403   .     A
C191   C197    1.402   .     A
C191   C193    1.413   .     A
C192   C194    1.413   .     A
C192   C198    1.402   .     A
C193   C195    1.416   .     A
C193   C950    1.413   .     S
C194   C196    1.416   .     A
C194   C949    1.413   1_554 S
C197   H201    1.083   .     S
C197   C927    1.387   .     S
C198   H202    1.083   .     S
C198   C928    1.387   1_554 S
Cu199  O211    1.966   .     S
Cu199  O215    1.969   .     S
Cu199  O217    1.971   .     S
Cu199  Cu200   2.675   .     S
Cu199  N209    2.010   .     S
Cu199  O213    1.963   .     S
Cu200  O216    1.969   .     S
Cu200  O212    1.966   .     S
Cu200  O218    1.971   .     S
Cu200  O214    1.963   .     S
Cu200  N210    2.010   .     S
C219   N220    1.157   .     T
C221   N222    1.157   .     T
O223   C224    1.414   .     S
C224   H225    1.114   .     S
C224   H227    1.109   .     S
C224   H226    1.110   .     S
O228   C229    1.414   .     S
C229   H231    1.114   .     S
C229   H232    1.109   .     S
C229   H230    1.110   .     S
O233   C234    1.409   .     S
C234   H236    1.111   .     S
C234   H237    1.113   .     S
C234   H235    1.109   .     S
O238   C239    1.409   .     S
C239   H242    1.113   .     S
C239   H240    1.111   .     S
C239   H241    1.109   .     S
O243   C244    1.412   .     S
C244   H247    1.110   .     S
C244   H245    1.109   .     S
C244   H246    1.114   .     S
O248   C249    1.412   .     S
C249   H250    1.114   .     S
C249   H251    1.109   .     S
C249   H252    1.110   .     S
C253   O298    1.290   .     A
C253   O295    1.288   .     A
C253   C262    1.450   .     S
C254   O296    1.288   .     A
C254   O297    1.290   .     A
C254   C261    1.450   .     S
C255   C280    1.407   .     A
C255   H287    1.082   .     S
C255   C1037   1.387   1_554 S
C256   H288    1.082   .     S
C256   C279    1.407   .     A
C256   C1038   1.387   .     S
C257   O317    1.384   .     S
C257   C262    1.408   .     A
C257   C427    1.395   1_455 S
C258   O322    1.384   .     S
C258   C261    1.408   .     A
C258   C344    1.395   .     S
C259   O327    1.386   .     S
C259   C261    1.408   .     A
C259   C341    1.395   .     S
C260   C262    1.408   .     A
C260   O332    1.386   .     S
C260   C426    1.395   1_455 S
C263   N294    1.366   .     A
C263   H289    1.081   .     S
C264   N293    1.366   .     A
C264   H290    1.081   .     S
C264   C517    1.415   .     S
C265   N294    1.366   .     A
C265   H291    1.079   .     S
C266   N293    1.366   .     A
C266   H292    1.079   .     S
C266   C515    1.415   .     S
C267   O299    1.293   .     A
C267   O302    1.288   .     A
C267   C272    1.460   .     S
C268   O300    1.293   .     A
C268   O301    1.288   .     A
C268   C271    1.460   .     S
C269   C303    1.453   .     S
C269   C279    1.408   .     A
C269   C271    1.410   .     A
C270   C305    1.453   .     S
C270   C280    1.408   .     A
C270   C272    1.410   .     A
C271   C273    1.407   .     A
C272   C274    1.407   .     A
C273   O307    1.387   .     S
C273   C275    1.403   .     A
C274   O312    1.387   .     S
C274   C276    1.403   .     A
C275   C281    1.402   .     A
C275   C277    1.413   .     A
C276   C278    1.413   .     A
C276   C282    1.402   .     A
C277   C279    1.416   .     A
C277   C1034   1.413   .     S
C278   C280    1.416   .     A
C278   C1033   1.413   1_554 S
C281   H285    1.083   .     S
C281   C1011   1.387   .     S
C282   H286    1.083   .     S
C282   C1012   1.387   1_554 S
Cu283  O295    1.966   .     S
Cu283  O299    1.969   .     S
Cu283  O301    1.971   .     S
Cu283  Cu284   2.675   .     S
Cu283  N293    2.010   .     S
Cu283  O297    1.963   .     S
Cu284  O300    1.969   .     S
Cu284  O296    1.966   .     S
Cu284  O302    1.971   .     S
Cu284  O298    1.963   .     S
Cu284  N294    2.010   .     S
C303   N304    1.157   .     T
C305   N306    1.157   .     T
O307   C308    1.414   .     S
C308   H309    1.114   .     S
C308   H311    1.109   .     S
C308   H310    1.110   .     S
O312   C313    1.414   .     S
C313   H315    1.114   .     S
C313   H316    1.109   .     S
C313   H314    1.110   .     S
O317   C318    1.409   .     S
C318   H320    1.111   .     S
C318   H321    1.113   .     S
C318   H319    1.109   .     S
O322   C323    1.409   .     S
C323   H326    1.113   .     S
C323   H324    1.111   .     S
C323   H325    1.109   .     S
O327   C328    1.412   .     S
C328   H331    1.110   .     S
C328   H329    1.109   .     S
C328   H330    1.114   .     S
O332   C333    1.412   .     S
C333   H334    1.114   .     S
C333   H335    1.109   .     S
C333   H336    1.110   .     S
C337   O382    1.290   .     A
C337   O379    1.288   .     A
C337   C346    1.450   .     S
C338   O380    1.288   .     A
C338   O381    1.290   .     A
C338   C345    1.450   .     S
C339   C364    1.407   .     A
C339   H371    1.082   .     S
C339   C1121   1.387   1_554 S
C340   H372    1.082   .     S
C340   C363    1.407   .     A
C340   C1122   1.387   .     S
C341   O401    1.384   .     S
C341   C346    1.408   .     A
C342   O406    1.384   .     S
C342   C345    1.408   .     A
C342   C428    1.395   .     S
C343   O411    1.386   .     S
C343   C345    1.408   .     A
C343   C425    1.395   .     S
C344   C346    1.408   .     A
C344   O416    1.386   .     S
C347   N378    1.366   .     A
C347   H373    1.081   .     S
C348   N377    1.366   .     A
C348   H374    1.081   .     S
C348   C601    1.415   .     S
C349   N378    1.366   .     A
C349   H375    1.079   .     S
C350   N377    1.366   .     A
C350   H376    1.079   .     S
C350   C599    1.415   .     S
C351   O383    1.293   .     A
C351   O386    1.288   .     A
C351   C356    1.460   .     S
C352   O384    1.293   .     A
C352   O385    1.288   .     A
C352   C355    1.460   .     S
C353   C387    1.453   .     S
C353   C363    1.408   .     A
C353   C355    1.410   .     A
C354   C389    1.453   .     S
C354   C364    1.408   .     A
C354   C356    1.410   .     A
C355   C357    1.407   .     A
C356   C358    1.407   .     A
C357   O391    1.387   .     S
C357   C359    1.403   .     A
C358   O396    1.387   .     S
C358   C360    1.403   .     A
C359   C365    1.402   .     A
C359   C361    1.413   .     A
C360   C362    1.413   .     A
C360   C366    1.402   .     A
C361   C363    1.416   .     A
C361   C1118   1.413   .     S
C362   C364    1.416   .     A
C362   C1117   1.413   1_554 S
C365   H369    1.083   .     S
C365   C1095   1.387   .     S
C366   H370    1.083   .     S
C366   C1096   1.387   1_554 S
Cu367  O379    1.966   .     S
Cu367  O383    1.969   .     S
Cu367  O385    1.971   .     S
Cu367  Cu368   2.675   .     S
Cu367  N377    2.010   .     S
Cu367  O381    1.963   .     S
Cu368  O384    1.969   .     S
Cu368  O380    1.966   .     S
Cu368  O386    1.971   .     S
Cu368  O382    1.963   .     S
Cu368  N378    2.010   .     S
C387   N388    1.157   .     T
C389   N390    1.157   .     T
O391   C392    1.414   .     S
C392   H393    1.114   .     S
C392   H395    1.109   .     S
C392   H394    1.110   .     S
O396   C397    1.414   .     S
C397   H399    1.114   .     S
C397   H400    1.109   .     S
C397   H398    1.110   .     S
O401   C402    1.409   .     S
C402   H404    1.111   .     S
C402   H405    1.113   .     S
C402   H403    1.109   .     S
O406   C407    1.409   .     S
C407   H410    1.113   .     S
C407   H408    1.111   .     S
C407   H409    1.109   .     S
O411   C412    1.412   .     S
C412   H415    1.110   .     S
C412   H413    1.109   .     S
C412   H414    1.114   .     S
O416   C417    1.412   .     S
C417   H418    1.114   .     S
C417   H419    1.109   .     S
C417   H420    1.110   .     S
C421   O466    1.290   .     A
C421   O463    1.288   .     A
C421   C430    1.450   .     S
C422   O464    1.288   .     A
C422   O465    1.290   .     A
C422   C429    1.450   .     S
C423   C448    1.407   .     A
C423   H455    1.082   .     S
C423   C1205   1.387   1_554 S
C424   H456    1.082   .     S
C424   C447    1.407   .     A
C424   C1206   1.387   .     S
C425   O485    1.384   .     S
C425   C430    1.408   .     A
C426   O490    1.384   .     S
C426   C429    1.408   .     A
C426   C260    1.395   1_655 S
C427   O495    1.386   .     S
C427   C429    1.408   .     A
C427   C257    1.395   1_655 S
C428   C430    1.408   .     A
C428   O500    1.386   .     S
C431   N462    1.366   .     A
C431   H457    1.081   .     S
C432   N461    1.366   .     A
C432   H458    1.081   .     S
C432   C685    1.415   .     S
C433   N462    1.366   .     A
C433   H459    1.079   .     S
C434   N461    1.366   .     A
C434   H460    1.079   .     S
C434   C683    1.415   .     S
C435   O467    1.293   .     A
C435   O470    1.288   .     A
C435   C440    1.460   .     S
C436   O468    1.293   .     A
C436   O469    1.288   .     A
C436   C439    1.460   .     S
C437   C471    1.453   .     S
C437   C447    1.408   .     A
C437   C439    1.410   .     A
C438   C473    1.453   .     S
C438   C448    1.408   .     A
C438   C440    1.410   .     A
C439   C441    1.407   .     A
C440   C442    1.407   .     A
C441   O475    1.387   .     S
C441   C443    1.403   .     A
C442   O480    1.387   .     S
C442   C444    1.403   .     A
C443   C449    1.402   .     A
C443   C445    1.413   .     A
C444   C446    1.413   .     A
C444   C450    1.402   .     A
C445   C447    1.416   .     A
C445   C1202   1.413   .     S
C446   C448    1.416   .     A
C446   C1201   1.413   1_554 S
C449   H453    1.083   .     S
C449   C1179   1.387   .     S
C450   H454    1.083   .     S
C450   C1180   1.387   1_554 S
Cu451  O463    1.966   .     S
Cu451  O467    1.969   .     S
Cu451  O469    1.971   .     S
Cu451  Cu452   2.675   .     S
Cu451  N461    2.010   .     S
Cu451  O465    1.963   .     S
Cu452  O468    1.969   .     S
Cu452  O464    1.966   .     S
Cu452  O470    1.971   .     S
Cu452  O466    1.963   .     S
Cu452  N462    2.010   .     S
C471   N472    1.157   .     T
C473   N474    1.157   .     T
O475   C476    1.414   .     S
C476   H477    1.114   .     S
C476   H479    1.109   .     S
C476   H478    1.110   .     S
O480   C481    1.414   .     S
C481   H483    1.114   .     S
C481   H484    1.109   .     S
C481   H482    1.110   .     S
O485   C486    1.409   .     S
C486   H488    1.111   .     S
C486   H489    1.113   .     S
C486   H487    1.109   .     S
O490   C491    1.409   .     S
C491   H494    1.113   .     S
C491   H492    1.111   .     S
C491   H493    1.109   .     S
O495   C496    1.412   .     S
C496   H499    1.110   .     S
C496   H497    1.109   .     S
C496   H498    1.114   .     S
O500   C501    1.412   .     S
C501   H502    1.114   .     S
C501   H503    1.109   .     S
C501   H504    1.110   .     S
C505   O550    1.290   .     A
C505   O547    1.288   .     A
C505   C514    1.450   .     S
C506   O548    1.288   .     A
C506   O549    1.290   .     A
C506   C513    1.450   .     S
C507   C532    1.407   .     A
C507   H539    1.082   .     S
C507   C1289   1.387   1_554 S
C508   H540    1.082   .     S
C508   C531    1.407   .     A
C508   C1290   1.387   .     S
C509   O569    1.384   .     S
C509   C514    1.408   .     A
C509   C679    1.395   1_455 S
C510   O574    1.384   .     S
C510   C513    1.408   .     A
C510   C596    1.395   .     S
C511   O579    1.386   .     S
C511   C513    1.408   .     A
C511   C593    1.395   .     S
C512   C514    1.408   .     A
C512   O584    1.386   .     S
C512   C678    1.395   1_455 S
C515   N546    1.366   .     A
C515   H541    1.081   .     S
C516   N545    1.366   .     A
C516   H542    1.081   .     S
C516   C13     1.415   1_565 S
C517   N546    1.366   .     A
C517   H543    1.079   .     S
C518   N545    1.366   .     A
C518   H544    1.079   .     S
C518   C11     1.415   1_565 S
C519   O551    1.293   .     A
C519   O554    1.288   .     A
C519   C524    1.460   .     S
C520   O552    1.293   .     A
C520   O553    1.288   .     A
C520   C523    1.460   .     S
C521   C555    1.453   .     S
C521   C531    1.408   .     A
C521   C523    1.410   .     A
C522   C557    1.453   .     S
C522   C532    1.408   .     A
C522   C524    1.410   .     A
C523   C525    1.407   .     A
C524   C526    1.407   .     A
C525   O559    1.387   .     S
C525   C527    1.403   .     A
C526   O564    1.387   .     S
C526   C528    1.403   .     A
C527   C533    1.402   .     A
C527   C529    1.413   .     A
C528   C530    1.413   .     A
C528   C534    1.402   .     A
C529   C531    1.416   .     A
C529   C1286   1.413   .     S
C530   C532    1.416   .     A
C530   C1285   1.413   1_554 S
C533   H537    1.083   .     S
C533   C1263   1.387   .     S
C534   H538    1.083   .     S
C534   C1264   1.387   1_554 S
Cu535  O547    1.966   .     S
Cu535  O551    1.969   .     S
Cu535  O553    1.971   .     S
Cu535  Cu536   2.675   .     S
Cu535  N545    2.010   .     S
Cu535  O549    1.963   .     S
Cu536  O552    1.969   .     S
Cu536  O548    1.966   .     S
Cu536  O554    1.971   .     S
Cu536  O550    1.963   .     S
Cu536  N546    2.010   .     S
C555   N556    1.157   .     T
C557   N558    1.157   .     T
O559   C560    1.414   .     S
C560   H561    1.114   .     S
C560   H563    1.109   .     S
C560   H562    1.110   .     S
O564   C565    1.414   .     S
C565   H567    1.114   .     S
C565   H568    1.109   .     S
C565   H566    1.110   .     S
O569   C570    1.409   .     S
C570   H572    1.111   .     S
C570   H573    1.113   .     S
C570   H571    1.109   .     S
O574   C575    1.409   .     S
C575   H578    1.113   .     S
C575   H576    1.111   .     S
C575   H577    1.109   .     S
O579   C580    1.412   .     S
C580   H583    1.110   .     S
C580   H581    1.109   .     S
C580   H582    1.114   .     S
O584   C585    1.412   .     S
C585   H586    1.114   .     S
C585   H587    1.109   .     S
C585   H588    1.110   .     S
C589   O634    1.290   .     A
C589   O631    1.288   .     A
C589   C598    1.450   .     S
C590   O632    1.288   .     A
C590   O633    1.290   .     A
C590   C597    1.450   .     S
C591   C616    1.407   .     A
C591   H623    1.082   .     S
C591   C1373   1.387   1_554 S
C592   H624    1.082   .     S
C592   C615    1.407   .     A
C592   C1374   1.387   .     S
C593   O653    1.384   .     S
C593   C598    1.408   .     A
C594   O658    1.384   .     S
C594   C597    1.408   .     A
C594   C680    1.395   .     S
C595   O663    1.386   .     S
C595   C597    1.408   .     A
C595   C677    1.395   .     S
C596   C598    1.408   .     A
C596   O668    1.386   .     S
C599   N630    1.366   .     A
C599   H625    1.081   .     S
C600   N629    1.366   .     A
C600   H626    1.081   .     S
C600   C97     1.415   1_565 S
C601   N630    1.366   .     A
C601   H627    1.079   .     S
C602   N629    1.366   .     A
C602   H628    1.079   .     S
C602   C95     1.415   1_565 S
C603   O635    1.293   .     A
C603   O638    1.288   .     A
C603   C608    1.460   .     S
C604   O636    1.293   .     A
C604   O637    1.288   .     A
C604   C607    1.460   .     S
C605   C639    1.453   .     S
C605   C615    1.408   .     A
C605   C607    1.410   .     A
C606   C641    1.453   .     S
C606   C616    1.408   .     A
C606   C608    1.410   .     A
C607   C609    1.407   .     A
C608   C610    1.407   .     A
C609   O643    1.387   .     S
C609   C611    1.403   .     A
C610   O648    1.387   .     S
C610   C612    1.403   .     A
C611   C617    1.402   .     A
C611   C613    1.413   .     A
C612   C614    1.413   .     A
C612   C618    1.402   .     A
C613   C615    1.416   .     A
C613   C1370   1.413   .     S
C614   C616    1.416   .     A
C614   C1369   1.413   1_554 S
C617   H621    1.083   .     S
C617   C1347   1.387   .     S
C618   H622    1.083   .     S
C618   C1348   1.387   1_554 S
Cu619  O631    1.966   .     S
Cu619  O635    1.969   .     S
Cu619  O637    1.971   .     S
Cu619  Cu620   2.675   .     S
Cu619  N629    2.010   .     S
Cu619  O633    1.963   .     S
Cu620  O636    1.969   .     S
Cu620  O632    1.966   .     S
Cu620  O638    1.971   .     S
Cu620  O634    1.963   .     S
Cu620  N630    2.010   .     S
C639   N640    1.157   .     T
C641   N642    1.157   .     T
O643   C644    1.414   .     S
C644   H645    1.114   .     S
C644   H647    1.109   .     S
C644   H646    1.110   .     S
O648   C649    1.414   .     S
C649   H651    1.114   .     S
C649   H652    1.109   .     S
C649   H650    1.110   .     S
O653   C654    1.409   .     S
C654   H656    1.111   .     S
C654   H657    1.113   .     S
C654   H655    1.109   .     S
O658   C659    1.409   .     S
C659   H662    1.113   .     S
C659   H660    1.111   .     S
C659   H661    1.109   .     S
O663   C664    1.412   .     S
C664   H667    1.110   .     S
C664   H665    1.109   .     S
C664   H666    1.114   .     S
O668   C669    1.412   .     S
C669   H670    1.114   .     S
C669   H671    1.109   .     S
C669   H672    1.110   .     S
C673   O718    1.290   .     A
C673   O715    1.288   .     A
C673   C682    1.450   .     S
C674   O716    1.288   .     A
C674   O717    1.290   .     A
C674   C681    1.450   .     S
C675   C700    1.407   .     A
C675   H707    1.082   .     S
C675   C1457   1.387   1_554 S
C676   H708    1.082   .     S
C676   C699    1.407   .     A
C676   C1458   1.387   .     S
C677   O737    1.384   .     S
C677   C682    1.408   .     A
C678   O742    1.384   .     S
C678   C681    1.408   .     A
C678   C512    1.395   1_655 S
C679   O747    1.386   .     S
C679   C681    1.408   .     A
C679   C509    1.395   1_655 S
C680   C682    1.408   .     A
C680   O752    1.386   .     S
C683   N714    1.366   .     A
C683   H709    1.081   .     S
C684   N713    1.366   .     A
C684   H710    1.081   .     S
C684   C181    1.415   1_565 S
C685   N714    1.366   .     A
C685   H711    1.079   .     S
C686   N713    1.366   .     A
C686   H712    1.079   .     S
C686   C179    1.415   1_565 S
C687   O719    1.293   .     A
C687   O722    1.288   .     A
C687   C692    1.460   .     S
C688   O720    1.293   .     A
C688   O721    1.288   .     A
C688   C691    1.460   .     S
C689   C723    1.453   .     S
C689   C699    1.408   .     A
C689   C691    1.410   .     A
C690   C725    1.453   .     S
C690   C700    1.408   .     A
C690   C692    1.410   .     A
C691   C693    1.407   .     A
C692   C694    1.407   .     A
C693   O727    1.387   .     S
C693   C695    1.403   .     A
C694   O732    1.387   .     S
C694   C696    1.403   .     A
C695   C701    1.402   .     A
C695   C697    1.413   .     A
C696   C698    1.413   .     A
C696   C702    1.402   .     A
C697   C699    1.416   .     A
C697   C1454   1.413   .     S
C698   C700    1.416   .     A
C698   C1453   1.413   1_554 S
C701   H705    1.083   .     S
C701   C1431   1.387   .     S
C702   H706    1.083   .     S
C702   C1432   1.387   1_554 S
Cu703  O715    1.966   .     S
Cu703  O719    1.969   .     S
Cu703  O721    1.971   .     S
Cu703  Cu704   2.675   .     S
Cu703  N713    2.010   .     S
Cu703  O717    1.963   .     S
Cu704  O720    1.969   .     S
Cu704  O716    1.966   .     S
Cu704  O722    1.971   .     S
Cu704  O718    1.963   .     S
Cu704  N714    2.010   .     S
C723   N724    1.157   .     T
C725   N726    1.157   .     T
O727   C728    1.414   .     S
C728   H729    1.114   .     S
C728   H731    1.109   .     S
C728   H730    1.110   .     S
O732   C733    1.414   .     S
C733   H735    1.114   .     S
C733   H736    1.109   .     S
C733   H734    1.110   .     S
O737   C738    1.409   .     S
C738   H740    1.111   .     S
C738   H741    1.113   .     S
C738   H739    1.109   .     S
O742   C743    1.409   .     S
C743   H746    1.113   .     S
C743   H744    1.111   .     S
C743   H745    1.109   .     S
O747   C748    1.412   .     S
C748   H751    1.110   .     S
C748   H749    1.109   .     S
C748   H750    1.114   .     S
O752   C753    1.412   .     S
C753   H754    1.114   .     S
C753   H755    1.109   .     S
C753   H756    1.110   .     S
C757   O802    1.290   .     A
C757   O799    1.288   .     A
C757   C766    1.450   .     S
C758   O800    1.288   .     A
C758   O801    1.290   .     A
C758   C765    1.450   .     S
C759   C784    1.407   .     A
C759   H791    1.082   .     S
C760   H792    1.082   .     S
C760   C783    1.407   .     A
C760   C30     1.387   1_556 S
C761   O821    1.384   .     S
C761   C766    1.408   .     A
C761   C931    1.395   1_455 S
C762   O826    1.384   .     S
C762   C765    1.408   .     A
C762   C848    1.395   .     S
C763   O831    1.386   .     S
C763   C765    1.408   .     A
C763   C845    1.395   .     S
C764   C766    1.408   .     A
C764   O836    1.386   .     S
C764   C930    1.395   1_455 S
C767   N798    1.366   .     A
C767   H793    1.081   .     S
C767   C1274   1.415   1_545 S
C768   N797    1.366   .     A
C768   H794    1.081   .     S
C768   C1021   1.415   .     S
C769   N798    1.366   .     A
C769   H795    1.079   .     S
C769   C1272   1.415   1_545 S
C770   N797    1.366   .     A
C770   H796    1.079   .     S
C770   C1019   1.415   .     S
C771   O803    1.293   .     A
C771   O806    1.288   .     A
C771   C776    1.460   .     S
C772   O804    1.293   .     A
C772   O805    1.288   .     A
C772   C775    1.460   .     S
C773   C807    1.453   .     S
C773   C783    1.408   .     A
C773   C775    1.410   .     A
C774   C809    1.453   .     S
C774   C784    1.408   .     A
C774   C776    1.410   .     A
C775   C777    1.407   .     A
C776   C778    1.407   .     A
C777   O811    1.387   .     S
C777   C779    1.403   .     A
C778   O816    1.387   .     S
C778   C780    1.403   .     A
C779   C785    1.402   .     A
C779   C781    1.413   .     A
C780   C782    1.413   .     A
C780   C786    1.402   .     A
C781   C783    1.416   .     A
C781   C26     1.413   1_556 S
C782   C784    1.416   .     A
C785   H789    1.083   .     S
C785   C3      1.387   1_556 S
C786   H790    1.083   .     S
Cu787  O799    1.966   .     S
Cu787  O803    1.969   .     S
Cu787  O805    1.971   .     S
Cu787  Cu788   2.675   .     S
Cu787  N797    2.010   .     S
Cu787  O801    1.963   .     S
Cu788  O804    1.969   .     S
Cu788  O800    1.966   .     S
Cu788  O806    1.971   .     S
Cu788  O802    1.963   .     S
Cu788  N798    2.010   .     S
C807   N808    1.157   .     T
C809   N810    1.157   .     T
O811   C812    1.414   .     S
C812   H813    1.114   .     S
C812   H815    1.109   .     S
C812   H814    1.110   .     S
O816   C817    1.414   .     S
C817   H819    1.114   .     S
C817   H820    1.109   .     S
C817   H818    1.110   .     S
O821   C822    1.409   .     S
C822   H824    1.111   .     S
C822   H825    1.113   .     S
C822   H823    1.109   .     S
O826   C827    1.409   .     S
C827   H830    1.113   .     S
C827   H828    1.111   .     S
C827   H829    1.109   .     S
O831   C832    1.412   .     S
C832   H835    1.110   .     S
C832   H833    1.109   .     S
C832   H834    1.114   .     S
O836   C837    1.412   .     S
C837   H838    1.114   .     S
C837   H839    1.109   .     S
C837   H840    1.110   .     S
C841   O886    1.290   .     A
C841   O883    1.288   .     A
C841   C850    1.450   .     S
C842   O884    1.288   .     A
C842   O885    1.290   .     A
C842   C849    1.450   .     S
C843   C868    1.407   .     A
C843   H875    1.082   .     S
C844   H876    1.082   .     S
C844   C867    1.407   .     A
C844   C114    1.387   1_556 S
C845   O905    1.384   .     S
C845   C850    1.408   .     A
C846   O910    1.384   .     S
C846   C849    1.408   .     A
C846   C932    1.395   .     S
C847   O915    1.386   .     S
C847   C849    1.408   .     A
C847   C929    1.395   .     S
C848   C850    1.408   .     A
C848   O920    1.386   .     S
C851   N882    1.366   .     A
C851   H877    1.081   .     S
C851   C1358   1.415   1_545 S
C852   N881    1.366   .     A
C852   H878    1.081   .     S
C852   C1105   1.415   .     S
C853   N882    1.366   .     A
C853   H879    1.079   .     S
C853   C1356   1.415   1_545 S
C854   N881    1.366   .     A
C854   H880    1.079   .     S
C854   C1103   1.415   .     S
C855   O887    1.293   .     A
C855   O890    1.288   .     A
C855   C860    1.460   .     S
C856   O888    1.293   .     A
C856   O889    1.288   .     A
C856   C859    1.460   .     S
C857   C891    1.453   .     S
C857   C867    1.408   .     A
C857   C859    1.410   .     A
C858   C893    1.453   .     S
C858   C868    1.408   .     A
C858   C860    1.410   .     A
C859   C861    1.407   .     A
C860   C862    1.407   .     A
C861   O895    1.387   .     S
C861   C863    1.403   .     A
C862   O900    1.387   .     S
C862   C864    1.403   .     A
C863   C869    1.402   .     A
C863   C865    1.413   .     A
C864   C866    1.413   .     A
C864   C870    1.402   .     A
C865   C867    1.416   .     A
C865   C110    1.413   1_556 S
C866   C868    1.416   .     A
C869   H873    1.083   .     S
C869   C87     1.387   1_556 S
C870   H874    1.083   .     S
Cu871  O883    1.966   .     S
Cu871  O887    1.969   .     S
Cu871  O889    1.971   .     S
Cu871  Cu872   2.675   .     S
Cu871  N881    2.010   .     S
Cu871  O885    1.963   .     S
Cu872  O888    1.969   .     S
Cu872  O884    1.966   .     S
Cu872  O890    1.971   .     S
Cu872  O886    1.963   .     S
Cu872  N882    2.010   .     S
C891   N892    1.157   .     T
C893   N894    1.157   .     T
O895   C896    1.414   .     S
C896   H897    1.114   .     S
C896   H899    1.109   .     S
C896   H898    1.110   .     S
O900   C901    1.414   .     S
C901   H903    1.114   .     S
C901   H904    1.109   .     S
C901   H902    1.110   .     S
O905   C906    1.409   .     S
C906   H908    1.111   .     S
C906   H909    1.113   .     S
C906   H907    1.109   .     S
O910   C911    1.409   .     S
C911   H914    1.113   .     S
C911   H912    1.111   .     S
C911   H913    1.109   .     S
O915   C916    1.412   .     S
C916   H919    1.110   .     S
C916   H917    1.109   .     S
C916   H918    1.114   .     S
O920   C921    1.412   .     S
C921   H922    1.114   .     S
C921   H923    1.109   .     S
C921   H924    1.110   .     S
C925   O970    1.290   .     A
C925   O967    1.288   .     A
C925   C934    1.450   .     S
C926   O968    1.288   .     A
C926   O969    1.290   .     A
C926   C933    1.450   .     S
C927   C952    1.407   .     A
C927   H959    1.082   .     S
C928   H960    1.082   .     S
C928   C951    1.407   .     A
C928   C198    1.387   1_556 S
C929   O989    1.384   .     S
C929   C934    1.408   .     A
C930   O994    1.384   .     S
C930   C933    1.408   .     A
C930   C764    1.395   1_655 S
C931   O999    1.386   .     S
C931   C933    1.408   .     A
C931   C761    1.395   1_655 S
C932   C934    1.408   .     A
C932   O1004   1.386   .     S
C935   N966    1.366   .     A
C935   H961    1.081   .     S
C935   C1442   1.415   1_545 S
C936   N965    1.366   .     A
C936   H962    1.081   .     S
C936   C1189   1.415   .     S
C937   N966    1.366   .     A
C937   H963    1.079   .     S
C937   C1440   1.415   1_545 S
C938   N965    1.366   .     A
C938   H964    1.079   .     S
C938   C1187   1.415   .     S
C939   O971    1.293   .     A
C939   O974    1.288   .     A
C939   C944    1.460   .     S
C940   O972    1.293   .     A
C940   O973    1.288   .     A
C940   C943    1.460   .     S
C941   C975    1.453   .     S
C941   C951    1.408   .     A
C941   C943    1.410   .     A
C942   C977    1.453   .     S
C942   C952    1.408   .     A
C942   C944    1.410   .     A
C943   C945    1.407   .     A
C944   C946    1.407   .     A
C945   O979    1.387   .     S
C945   C947    1.403   .     A
C946   O984    1.387   .     S
C946   C948    1.403   .     A
C947   C953    1.402   .     A
C947   C949    1.413   .     A
C948   C950    1.413   .     A
C948   C954    1.402   .     A
C949   C951    1.416   .     A
C949   C194    1.413   1_556 S
C950   C952    1.416   .     A
C953   H957    1.083   .     S
C953   C171    1.387   1_556 S
C954   H958    1.083   .     S
Cu955  O967    1.966   .     S
Cu955  O971    1.969   .     S
Cu955  O973    1.971   .     S
Cu955  Cu956   2.675   .     S
Cu955  N965    2.010   .     S
Cu955  O969    1.963   .     S
Cu956  O972    1.969   .     S
Cu956  O968    1.966   .     S
Cu956  O974    1.971   .     S
Cu956  O970    1.963   .     S
Cu956  N966    2.010   .     S
C975   N976    1.157   .     T
C977   N978    1.157   .     T
O979   C980    1.414   .     S
C980   H981    1.114   .     S
C980   H983    1.109   .     S
C980   H982    1.110   .     S
O984   C985    1.414   .     S
C985   H987    1.114   .     S
C985   H988    1.109   .     S
C985   H986    1.110   .     S
O989   C990    1.409   .     S
C990   H992    1.111   .     S
C990   H993    1.113   .     S
C990   H991    1.109   .     S
O994   C995    1.409   .     S
C995   H998    1.113   .     S
C995   H996    1.111   .     S
C995   H997    1.109   .     S
O999   C1000   1.412   .     S
C1000  H1003   1.110   .     S
C1000  H1001   1.109   .     S
C1000  H1002   1.114   .     S
O1004  C1005   1.412   .     S
C1005  H1006   1.114   .     S
C1005  H1007   1.109   .     S
C1005  H1008   1.110   .     S
C1009  O1054   1.290   .     A
C1009  O1051   1.288   .     A
C1009  C1018   1.450   .     S
C1010  O1052   1.288   .     A
C1010  O1053   1.290   .     A
C1010  C1017   1.450   .     S
C1011  C1036   1.407   .     A
C1011  H1043   1.082   .     S
C1012  H1044   1.082   .     S
C1012  C1035   1.407   .     A
C1012  C282    1.387   1_556 S
C1013  O1073   1.384   .     S
C1013  C1018   1.408   .     A
C1013  C1183   1.395   1_455 S
C1014  O1078   1.384   .     S
C1014  C1017   1.408   .     A
C1014  C1100   1.395   .     S
C1015  O1083   1.386   .     S
C1015  C1017   1.408   .     A
C1015  C1097   1.395   .     S
C1016  C1018   1.408   .     A
C1016  O1088   1.386   .     S
C1016  C1182   1.395   1_455 S
C1019  N1050   1.366   .     A
C1019  H1045   1.081   .     S
C1020  N1049   1.366   .     A
C1020  H1046   1.081   .     S
C1020  C1273   1.415   .     S
C1021  N1050   1.366   .     A
C1021  H1047   1.079   .     S
C1022  N1049   1.366   .     A
C1022  H1048   1.079   .     S
C1022  C1271   1.415   .     S
C1023  O1055   1.293   .     A
C1023  O1058   1.288   .     A
C1023  C1028   1.460   .     S
C1024  O1056   1.293   .     A
C1024  O1057   1.288   .     A
C1024  C1027   1.460   .     S
C1025  C1059   1.453   .     S
C1025  C1035   1.408   .     A
C1025  C1027   1.410   .     A
C1026  C1061   1.453   .     S
C1026  C1036   1.408   .     A
C1026  C1028   1.410   .     A
C1027  C1029   1.407   .     A
C1028  C1030   1.407   .     A
C1029  O1063   1.387   .     S
C1029  C1031   1.403   .     A
C1030  O1068   1.387   .     S
C1030  C1032   1.403   .     A
C1031  C1037   1.402   .     A
C1031  C1033   1.413   .     A
C1032  C1034   1.413   .     A
C1032  C1038   1.402   .     A
C1033  C1035   1.416   .     A
C1033  C278    1.413   1_556 S
C1034  C1036   1.416   .     A
C1037  H1041   1.083   .     S
C1037  C255    1.387   1_556 S
C1038  H1042   1.083   .     S
Cu1039 O1051   1.966   .     S
Cu1039 O1055   1.969   .     S
Cu1039 O1057   1.971   .     S
Cu1039 Cu1040  2.675   .     S
Cu1039 N1049   2.010   .     S
Cu1039 O1053   1.963   .     S
Cu1040 O1056   1.969   .     S
Cu1040 O1052   1.966   .     S
Cu1040 O1058   1.971   .     S
Cu1040 O1054   1.963   .     S
Cu1040 N1050   2.010   .     S
C1059  N1060   1.157   .     T
C1061  N1062   1.157   .     T
O1063  C1064   1.414   .     S
C1064  H1065   1.114   .     S
C1064  H1067   1.109   .     S
C1064  H1066   1.110   .     S
O1068  C1069   1.414   .     S
C1069  H1071   1.114   .     S
C1069  H1072   1.109   .     S
C1069  H1070   1.110   .     S
O1073  C1074   1.409   .     S
C1074  H1076   1.111   .     S
C1074  H1077   1.113   .     S
C1074  H1075   1.109   .     S
O1078  C1079   1.409   .     S
C1079  H1082   1.113   .     S
C1079  H1080   1.111   .     S
C1079  H1081   1.109   .     S
O1083  C1084   1.412   .     S
C1084  H1087   1.110   .     S
C1084  H1085   1.109   .     S
C1084  H1086   1.114   .     S
O1088  C1089   1.412   .     S
C1089  H1090   1.114   .     S
C1089  H1091   1.109   .     S
C1089  H1092   1.110   .     S
C1093  O1138   1.290   .     A
C1093  O1135   1.288   .     A
C1093  C1102   1.450   .     S
C1094  O1136   1.288   .     A
C1094  O1137   1.290   .     A
C1094  C1101   1.450   .     S
C1095  C1120   1.407   .     A
C1095  H1127   1.082   .     S
C1096  H1128   1.082   .     S
C1096  C1119   1.407   .     A
C1096  C366    1.387   1_556 S
C1097  O1157   1.384   .     S
C1097  C1102   1.408   .     A
C1098  O1162   1.384   .     S
C1098  C1101   1.408   .     A
C1098  C1184   1.395   .     S
C1099  O1167   1.386   .     S
C1099  C1101   1.408   .     A
C1099  C1181   1.395   .     S
C1100  C1102   1.408   .     A
C1100  O1172   1.386   .     S
C1103  N1134   1.366   .     A
C1103  H1129   1.081   .     S
C1104  N1133   1.366   .     A
C1104  H1130   1.081   .     S
C1104  C1357   1.415   .     S
C1105  N1134   1.366   .     A
C1105  H1131   1.079   .     S
C1106  N1133   1.366   .     A
C1106  H1132   1.079   .     S
C1106  C1355   1.415   .     S
C1107  O1139   1.293   .     A
C1107  O1142   1.288   .     A
C1107  C1112   1.460   .     S
C1108  O1140   1.293   .     A
C1108  O1141   1.288   .     A
C1108  C1111   1.460   .     S
C1109  C1143   1.453   .     S
C1109  C1119   1.408   .     A
C1109  C1111   1.410   .     A
C1110  C1145   1.453   .     S
C1110  C1120   1.408   .     A
C1110  C1112   1.410   .     A
C1111  C1113   1.407   .     A
C1112  C1114   1.407   .     A
C1113  O1147   1.387   .     S
C1113  C1115   1.403   .     A
C1114  O1152   1.387   .     S
C1114  C1116   1.403   .     A
C1115  C1121   1.402   .     A
C1115  C1117   1.413   .     A
C1116  C1118   1.413   .     A
C1116  C1122   1.402   .     A
C1117  C1119   1.416   .     A
C1117  C362    1.413   1_556 S
C1118  C1120   1.416   .     A
C1121  H1125   1.083   .     S
C1121  C339    1.387   1_556 S
C1122  H1126   1.083   .     S
Cu1123 O1135   1.966   .     S
Cu1123 O1139   1.969   .     S
Cu1123 O1141   1.971   .     S
Cu1123 Cu1124  2.675   .     S
Cu1123 N1133   2.010   .     S
Cu1123 O1137   1.963   .     S
Cu1124 O1140   1.969   .     S
Cu1124 O1136   1.966   .     S
Cu1124 O1142   1.971   .     S
Cu1124 O1138   1.963   .     S
Cu1124 N1134   2.010   .     S
C1143  N1144   1.157   .     T
C1145  N1146   1.157   .     T
O1147  C1148   1.414   .     S
C1148  H1149   1.114   .     S
C1148  H1151   1.109   .     S
C1148  H1150   1.110   .     S
O1152  C1153   1.414   .     S
C1153  H1155   1.114   .     S
C1153  H1156   1.109   .     S
C1153  H1154   1.110   .     S
O1157  C1158   1.409   .     S
C1158  H1160   1.111   .     S
C1158  H1161   1.113   .     S
C1158  H1159   1.109   .     S
O1162  C1163   1.409   .     S
C1163  H1166   1.113   .     S
C1163  H1164   1.111   .     S
C1163  H1165   1.109   .     S
O1167  C1168   1.412   .     S
C1168  H1171   1.110   .     S
C1168  H1169   1.109   .     S
C1168  H1170   1.114   .     S
O1172  C1173   1.412   .     S
C1173  H1174   1.114   .     S
C1173  H1175   1.109   .     S
C1173  H1176   1.110   .     S
C1177  O1222   1.290   .     A
C1177  O1219   1.288   .     A
C1177  C1186   1.450   .     S
C1178  O1220   1.288   .     A
C1178  O1221   1.290   .     A
C1178  C1185   1.450   .     S
C1179  C1204   1.407   .     A
C1179  H1211   1.082   .     S
C1180  H1212   1.082   .     S
C1180  C1203   1.407   .     A
C1180  C450    1.387   1_556 S
C1181  O1241   1.384   .     S
C1181  C1186   1.408   .     A
C1182  O1246   1.384   .     S
C1182  C1185   1.408   .     A
C1182  C1016   1.395   1_655 S
C1183  O1251   1.386   .     S
C1183  C1185   1.408   .     A
C1183  C1013   1.395   1_655 S
C1184  C1186   1.408   .     A
C1184  O1256   1.386   .     S
C1187  N1218   1.366   .     A
C1187  H1213   1.081   .     S
C1188  N1217   1.366   .     A
C1188  H1214   1.081   .     S
C1188  C1441   1.415   .     S
C1189  N1218   1.366   .     A
C1189  H1215   1.079   .     S
C1190  N1217   1.366   .     A
C1190  H1216   1.079   .     S
C1190  C1439   1.415   .     S
C1191  O1223   1.293   .     A
C1191  O1226   1.288   .     A
C1191  C1196   1.460   .     S
C1192  O1224   1.293   .     A
C1192  O1225   1.288   .     A
C1192  C1195   1.460   .     S
C1193  C1227   1.453   .     S
C1193  C1203   1.408   .     A
C1193  C1195   1.410   .     A
C1194  C1229   1.453   .     S
C1194  C1204   1.408   .     A
C1194  C1196   1.410   .     A
C1195  C1197   1.407   .     A
C1196  C1198   1.407   .     A
C1197  O1231   1.387   .     S
C1197  C1199   1.403   .     A
C1198  O1236   1.387   .     S
C1198  C1200   1.403   .     A
C1199  C1205   1.402   .     A
C1199  C1201   1.413   .     A
C1200  C1202   1.413   .     A
C1200  C1206   1.402   .     A
C1201  C1203   1.416   .     A
C1201  C446    1.413   1_556 S
C1202  C1204   1.416   .     A
C1205  H1209   1.083   .     S
C1205  C423    1.387   1_556 S
C1206  H1210   1.083   .     S
Cu1207 O1219   1.966   .     S
Cu1207 O1223   1.969   .     S
Cu1207 O1225   1.971   .     S
Cu1207 Cu1208  2.675   .     S
Cu1207 N1217   2.010   .     S
Cu1207 O1221   1.963   .     S
Cu1208 O1224   1.969   .     S
Cu1208 O1220   1.966   .     S
Cu1208 O1226   1.971   .     S
Cu1208 O1222   1.963   .     S
Cu1208 N1218   2.010   .     S
C1227  N1228   1.157   .     T
C1229  N1230   1.157   .     T
O1231  C1232   1.414   .     S
C1232  H1233   1.114   .     S
C1232  H1235   1.109   .     S
C1232  H1234   1.110   .     S
O1236  C1237   1.414   .     S
C1237  H1239   1.114   .     S
C1237  H1240   1.109   .     S
C1237  H1238   1.110   .     S
O1241  C1242   1.409   .     S
C1242  H1244   1.111   .     S
C1242  H1245   1.113   .     S
C1242  H1243   1.109   .     S
O1246  C1247   1.409   .     S
C1247  H1250   1.113   .     S
C1247  H1248   1.111   .     S
C1247  H1249   1.109   .     S
O1251  C1252   1.412   .     S
C1252  H1255   1.110   .     S
C1252  H1253   1.109   .     S
C1252  H1254   1.114   .     S
O1256  C1257   1.412   .     S
C1257  H1258   1.114   .     S
C1257  H1259   1.109   .     S
C1257  H1260   1.110   .     S
C1261  O1306   1.290   .     A
C1261  O1303   1.288   .     A
C1261  C1270   1.450   .     S
C1262  O1304   1.288   .     A
C1262  O1305   1.290   .     A
C1262  C1269   1.450   .     S
C1263  C1288   1.407   .     A
C1263  H1295   1.082   .     S
C1264  H1296   1.082   .     S
C1264  C1287   1.407   .     A
C1264  C534    1.387   1_556 S
C1265  O1325   1.384   .     S
C1265  C1270   1.408   .     A
C1265  C1435   1.395   1_455 S
C1266  O1330   1.384   .     S
C1266  C1269   1.408   .     A
C1266  C1352   1.395   .     S
C1267  O1335   1.386   .     S
C1267  C1269   1.408   .     A
C1267  C1349   1.395   .     S
C1268  C1270   1.408   .     A
C1268  O1340   1.386   .     S
C1268  C1434   1.395   1_455 S
C1271  N1302   1.366   .     A
C1271  H1297   1.081   .     S
C1272  N1301   1.366   .     A
C1272  H1298   1.081   .     S
C1272  C769    1.415   1_565 S
C1273  N1302   1.366   .     A
C1273  H1299   1.079   .     S
C1274  N1301   1.366   .     A
C1274  H1300   1.079   .     S
C1274  C767    1.415   1_565 S
C1275  O1307   1.293   .     A
C1275  O1310   1.288   .     A
C1275  C1280   1.460   .     S
C1276  O1308   1.293   .     A
C1276  O1309   1.288   .     A
C1276  C1279   1.460   .     S
C1277  C1311   1.453   .     S
C1277  C1287   1.408   .     A
C1277  C1279   1.410   .     A
C1278  C1313   1.453   .     S
C1278  C1288   1.408   .     A
C1278  C1280   1.410   .     A
C1279  C1281   1.407   .     A
C1280  C1282   1.407   .     A
C1281  O1315   1.387   .     S
C1281  C1283   1.403   .     A
C1282  O1320   1.387   .     S
C1282  C1284   1.403   .     A
C1283  C1289   1.402   .     A
C1283  C1285   1.413   .     A
C1284  C1286   1.413   .     A
C1284  C1290   1.402   .     A
C1285  C1287   1.416   .     A
C1285  C530    1.413   1_556 S
C1286  C1288   1.416   .     A
C1289  H1293   1.083   .     S
C1289  C507    1.387   1_556 S
C1290  H1294   1.083   .     S
Cu1291 O1303   1.966   .     S
Cu1291 O1307   1.969   .     S
Cu1291 O1309   1.971   .     S
Cu1291 Cu1292  2.675   .     S
Cu1291 N1301   2.010   .     S
Cu1291 O1305   1.963   .     S
Cu1292 O1308   1.969   .     S
Cu1292 O1304   1.966   .     S
Cu1292 O1310   1.971   .     S
Cu1292 O1306   1.963   .     S
Cu1292 N1302   2.010   .     S
C1311  N1312   1.157   .     T
C1313  N1314   1.157   .     T
O1315  C1316   1.414   .     S
C1316  H1317   1.114   .     S
C1316  H1319   1.109   .     S
C1316  H1318   1.110   .     S
O1320  C1321   1.414   .     S
C1321  H1323   1.114   .     S
C1321  H1324   1.109   .     S
C1321  H1322   1.110   .     S
O1325  C1326   1.409   .     S
C1326  H1328   1.111   .     S
C1326  H1329   1.113   .     S
C1326  H1327   1.109   .     S
O1330  C1331   1.409   .     S
C1331  H1334   1.113   .     S
C1331  H1332   1.111   .     S
C1331  H1333   1.109   .     S
O1335  C1336   1.412   .     S
C1336  H1339   1.110   .     S
C1336  H1337   1.109   .     S
C1336  H1338   1.114   .     S
O1340  C1341   1.412   .     S
C1341  H1342   1.114   .     S
C1341  H1343   1.109   .     S
C1341  H1344   1.110   .     S
C1345  O1390   1.290   .     A
C1345  O1387   1.288   .     A
C1345  C1354   1.450   .     S
C1346  O1388   1.288   .     A
C1346  O1389   1.290   .     A
C1346  C1353   1.450   .     S
C1347  C1372   1.407   .     A
C1347  H1379   1.082   .     S
C1348  H1380   1.082   .     S
C1348  C1371   1.407   .     A
C1348  C618    1.387   1_556 S
C1349  O1409   1.384   .     S
C1349  C1354   1.408   .     A
C1350  O1414   1.384   .     S
C1350  C1353   1.408   .     A
C1350  C1436   1.395   .     S
C1351  O1419   1.386   .     S
C1351  C1353   1.408   .     A
C1351  C1433   1.395   .     S
C1352  C1354   1.408   .     A
C1352  O1424   1.386   .     S
C1355  N1386   1.366   .     A
C1355  H1381   1.081   .     S
C1356  N1385   1.366   .     A
C1356  H1382   1.081   .     S
C1356  C853    1.415   1_565 S
C1357  N1386   1.366   .     A
C1357  H1383   1.079   .     S
C1358  N1385   1.366   .     A
C1358  H1384   1.079   .     S
C1358  C851    1.415   1_565 S
C1359  O1391   1.293   .     A
C1359  O1394   1.288   .     A
C1359  C1364   1.460   .     S
C1360  O1392   1.293   .     A
C1360  O1393   1.288   .     A
C1360  C1363   1.460   .     S
C1361  C1395   1.453   .     S
C1361  C1371   1.408   .     A
C1361  C1363   1.410   .     A
C1362  C1397   1.453   .     S
C1362  C1372   1.408   .     A
C1362  C1364   1.410   .     A
C1363  C1365   1.407   .     A
C1364  C1366   1.407   .     A
C1365  O1399   1.387   .     S
C1365  C1367   1.403   .     A
C1366  O1404   1.387   .     S
C1366  C1368   1.403   .     A
C1367  C1373   1.402   .     A
C1367  C1369   1.413   .     A
C1368  C1370   1.413   .     A
C1368  C1374   1.402   .     A
C1369  C1371   1.416   .     A
C1369  C614    1.413   1_556 S
C1370  C1372   1.416   .     A
C1373  H1377   1.083   .     S
C1373  C591    1.387   1_556 S
C1374  H1378   1.083   .     S
Cu1375 O1387   1.966   .     S
Cu1375 O1391   1.969   .     S
Cu1375 O1393   1.971   .     S
Cu1375 Cu1376  2.675   .     S
Cu1375 N1385   2.010   .     S
Cu1375 O1389   1.963   .     S
Cu1376 O1392   1.969   .     S
Cu1376 O1388   1.966   .     S
Cu1376 O1394   1.971   .     S
Cu1376 O1390   1.963   .     S
Cu1376 N1386   2.010   .     S
C1395  N1396   1.157   .     T
C1397  N1398   1.157   .     T
O1399  C1400   1.414   .     S
C1400  H1401   1.114   .     S
C1400  H1403   1.109   .     S
C1400  H1402   1.110   .     S
O1404  C1405   1.414   .     S
C1405  H1407   1.114   .     S
C1405  H1408   1.109   .     S
C1405  H1406   1.110   .     S
O1409  C1410   1.409   .     S
C1410  H1412   1.111   .     S
C1410  H1413   1.113   .     S
C1410  H1411   1.109   .     S
O1414  C1415   1.409   .     S
C1415  H1418   1.113   .     S
C1415  H1416   1.111   .     S
C1415  H1417   1.109   .     S
O1419  C1420   1.412   .     S
C1420  H1423   1.110   .     S
C1420  H1421   1.109   .     S
C1420  H1422   1.114   .     S
O1424  C1425   1.412   .     S
C1425  H1426   1.114   .     S
C1425  H1427   1.109   .     S
C1425  H1428   1.110   .     S
C1429  O1474   1.290   .     A
C1429  O1471   1.288   .     A
C1429  C1438   1.450   .     S
C1430  O1472   1.288   .     A
C1430  O1473   1.290   .     A
C1430  C1437   1.450   .     S
C1431  C1456   1.407   .     A
C1431  H1463   1.082   .     S
C1432  H1464   1.082   .     S
C1432  C1455   1.407   .     A
C1432  C702    1.387   1_556 S
C1433  O1493   1.384   .     S
C1433  C1438   1.408   .     A
C1434  O1498   1.384   .     S
C1434  C1437   1.408   .     A
C1434  C1268   1.395   1_655 S
C1435  O1503   1.386   .     S
C1435  C1437   1.408   .     A
C1435  C1265   1.395   1_655 S
C1436  C1438   1.408   .     A
C1436  O1508   1.386   .     S
C1439  N1470   1.366   .     A
C1439  H1465   1.081   .     S
C1440  N1469   1.366   .     A
C1440  H1466   1.081   .     S
C1440  C937    1.415   1_565 S
C1441  N1470   1.366   .     A
C1441  H1467   1.079   .     S
C1442  N1469   1.366   .     A
C1442  H1468   1.079   .     S
C1442  C935    1.415   1_565 S
C1443  O1475   1.293   .     A
C1443  O1478   1.288   .     A
C1443  C1448   1.460   .     S
C1444  O1476   1.293   .     A
C1444  O1477   1.288   .     A
C1444  C1447   1.460   .     S
C1445  C1479   1.453   .     S
C1445  C1455   1.408   .     A
C1445  C1447   1.410   .     A
C1446  C1481   1.453   .     S
C1446  C1456   1.408   .     A
C1446  C1448   1.410   .     A
C1447  C1449   1.407   .     A
C1448  C1450   1.407   .     A
C1449  O1483   1.387   .     S
C1449  C1451   1.403   .     A
C1450  O1488   1.387   .     S
C1450  C1452   1.403   .     A
C1451  C1457   1.402   .     A
C1451  C1453   1.413   .     A
C1452  C1454   1.413   .     A
C1452  C1458   1.402   .     A
C1453  C1455   1.416   .     A
C1453  C698    1.413   1_556 S
C1454  C1456   1.416   .     A
C1457  H1461   1.083   .     S
C1457  C675    1.387   1_556 S
C1458  H1462   1.083   .     S
Cu1459 O1471   1.966   .     S
Cu1459 O1475   1.969   .     S
Cu1459 O1477   1.971   .     S
Cu1459 Cu1460  2.675   .     S
Cu1459 N1469   2.010   .     S
Cu1459 O1473   1.963   .     S
Cu1460 O1476   1.969   .     S
Cu1460 O1472   1.966   .     S
Cu1460 O1478   1.971   .     S
Cu1460 O1474   1.963   .     S
Cu1460 N1470   2.010   .     S
C1479  N1480   1.157   .     T
C1481  N1482   1.157   .     T
O1483  C1484   1.414   .     S
C1484  H1485   1.114   .     S
C1484  H1487   1.109   .     S
C1484  H1486   1.110   .     S
O1488  C1489   1.414   .     S
C1489  H1491   1.114   .     S
C1489  H1492   1.109   .     S
C1489  H1490   1.110   .     S
O1493  C1494   1.409   .     S
C1494  H1496   1.111   .     S
C1494  H1497   1.113   .     S
C1494  H1495   1.109   .     S
O1498  C1499   1.409   .     S
C1499  H1502   1.113   .     S
C1499  H1500   1.111   .     S
C1499  H1501   1.109   .     S
O1503  C1504   1.412   .     S
C1504  H1507   1.110   .     S
C1504  H1505   1.109   .     S
C1504  H1506   1.114   .     S
O1508  C1509   1.412   .     S
C1509  H1510   1.114   .     S
C1509  H1511   1.109   .     S
C1509  H1512   1.110   .     S
