data_str_m2_o1_o16_pcu_sym.38
_audit_creation_date              2020-01-03
_audit_creation_method            'Materials Studio'
_symmetry_space_group_name_H-M    'P1'
_symmetry_Int_Tables_number       1
_symmetry_cell_setting            triclinic
loop_
_symmetry_equiv_pos_as_xyz
  x,y,z
_cell_length_a                    28.5818
_cell_length_b                    32.4824
_cell_length_c                    27.1091
_cell_angle_alpha                 90.7996
_cell_angle_beta                  73.4062
_cell_angle_gamma                 90.5248
loop_
_atom_site_label
_atom_site_type_symbol
_atom_site_fract_x
_atom_site_fract_y
_atom_site_fract_z
_atom_site_U_iso_or_equiv
_atom_site_adp_type
_atom_site_occupancy
C1     C     0.16726   0.24596   0.24881   0.00000  Uiso   1.00
C2     C     0.12797   0.15754   0.40628   0.00000  Uiso   1.00
C3     C     0.21235   0.31296   0.22809   0.00000  Uiso   1.00
C4     C     0.14127   0.16352   0.34974   0.00000  Uiso   1.00
C5     C     0.21126   0.02231   0.22933   0.00000  Uiso   1.00
C6     C     0.16688   0.04294   0.24827   0.00000  Uiso   1.00
C7     C     0.12314   0.02099   0.26565   0.00000  Uiso   1.00
C8     C     0.12384   0.31175   0.26533   0.00000  Uiso   1.00
C9     C     0.16823   0.29071   0.24718   0.00000  Uiso   1.00
C10    C     0.30113   0.19379   0.28053   0.00000  Uiso   1.00
C11    C     0.01717   0.19342   0.28060   0.00000  Uiso   1.00
C12    C     0.14615   0.16389   0.48981   0.00000  Uiso   1.00
C13    C     0.03281   0.13993   0.21917   0.00000  Uiso   1.00
C14    C     0.31652   0.13988   0.21925   0.00000  Uiso   1.00
C15    C     0.16661   0.08744   0.24960   0.00000  Uiso   1.00
C16    C     0.19245   0.16778   0.15059   0.00000  Uiso   1.00
C17    C     0.26237   0.19736   0.01657   0.00000  Uiso   1.00
C18    C     0.20652   0.17276   0.09520   0.00000  Uiso   1.00
C19    C     0.07876   0.15089   0.43244   0.00000  Uiso   1.00
C20    C     0.06279   0.15212   0.48575   0.00000  Uiso   1.00
C21    C     0.09484   0.16189   0.01442   0.00000  Uiso   1.00
C22    C     0.25889   0.29331   0.20544   0.00000  Uiso   1.00
C23    C     0.16281   0.16049   0.43513   0.00000  Uiso   1.00
C24    C     0.18186   0.17041   0.01673   0.00000  Uiso   1.00
C25    C     0.22988   0.18304   0.48966   0.00000  Uiso   1.00
C26    C     0.24587   0.17659   0.43691   0.00000  Uiso   1.00
C27    C     0.21394   0.16089   0.41154   0.00000  Uiso   1.00
C28    C     0.17295   0.16163   0.06875   0.00000  Uiso   1.00
C29    C     0.25039   0.19221   0.06956   0.00000  Uiso   1.00
Cl30   Cl    0.26335   0.23059   0.32036   0.00000  Uiso   1.00
Cl31   Cl    0.31631   0.22439   0.48569   0.00000  Uiso   1.00
Cl32   Cl    0.06616   0.17864   0.07816   0.00000  Uiso   1.00
Cu33   Cu    0.11978   0.16666   0.25000   0.00000  Uiso   1.00
Cu34   Cu    0.21355   0.16667   0.25000   0.00000  Uiso   1.00
H35    H     0.27519   0.20326   0.09054   0.00000  Uiso   1.00
H36    H     0.05185   0.14654   0.41162   0.00000  Uiso   1.00
H37    H     0.02416   0.14867   0.00481   0.00000  Uiso   1.00
H38    H     0.23133   0.14834   0.37401   0.00000  Uiso   1.00
H39    H     0.24503   0.03949   0.21474   0.00000  Uiso   1.00
H40    H     0.08858   0.03671   0.28036   0.00000  Uiso   1.00
H41    H     0.08963   0.29529   0.28001   0.00000  Uiso   1.00
H42    H     0.02984   0.21480   0.30502   0.00000  Uiso   1.00
H43    H     0.05793   0.11852   0.19443   0.00000  Uiso   1.00
H44    H     0.30428   0.11844   0.19459   0.00000  Uiso   1.00
H45    H     0.28408   0.17986   0.41578   0.00000  Uiso   1.00
H46    H     0.14120   0.14398   0.08868   0.00000  Uiso   1.00
N47    N     0.04931   0.16666   0.24998   0.00000  Uiso   1.00
N48    N     0.28402   0.16669   0.24999   0.00000  Uiso   1.00
N49    N     0.29616   0.27764   0.18727   0.00000  Uiso   1.00
O50    O     0.12708   0.22678   0.25000   0.00000  Uiso   1.00
O51    O     0.20627   0.22679   0.25000   0.00000  Uiso   1.00
O52    O     0.10775   0.16665   0.32549   0.00000  Uiso   1.00
O53    O     0.18694   0.16666   0.32549   0.00000  Uiso   1.00
O54    O     0.12706   0.10654   0.24999   0.00000  Uiso   1.00
O55    O     0.20625   0.10655   0.24999   0.00000  Uiso   1.00
O56    O     0.14640   0.16667   0.17451   0.00000  Uiso   1.00
O57    O     0.22559   0.16668   0.17451   0.00000  Uiso   1.00
C58    C     0.50059   0.24596   0.24881   0.00000  Uiso   1.00
C59    C     0.46130   0.15754   0.40628   0.00000  Uiso   1.00
C60    C     0.54568   0.31296   0.22809   0.00000  Uiso   1.00
C61    C     0.47460   0.16352   0.34974   0.00000  Uiso   1.00
C62    C     0.54459   0.02231   0.22933   0.00000  Uiso   1.00
C63    C     0.50022   0.04294   0.24827   0.00000  Uiso   1.00
C64    C     0.45648   0.02099   0.26565   0.00000  Uiso   1.00
C65    C     0.45718   0.31175   0.26533   0.00000  Uiso   1.00
C66    C     0.50156   0.29071   0.24718   0.00000  Uiso   1.00
C67    C     0.63446   0.19379   0.28053   0.00000  Uiso   1.00
C68    C     0.35050   0.19342   0.28060   0.00000  Uiso   1.00
C69    C     0.47949   0.16389   0.48981   0.00000  Uiso   1.00
C70    C     0.36614   0.13993   0.21917   0.00000  Uiso   1.00
C71    C     0.64985   0.13988   0.21925   0.00000  Uiso   1.00
C72    C     0.49994   0.08744   0.24960   0.00000  Uiso   1.00
C73    C     0.52578   0.16778   0.15059   0.00000  Uiso   1.00
C74    C     0.59570   0.19736   0.01657   0.00000  Uiso   1.00
C75    C     0.53985   0.17276   0.09520   0.00000  Uiso   1.00
C76    C     0.41209   0.15089   0.43244   0.00000  Uiso   1.00
C77    C     0.39613   0.15212   0.48575   0.00000  Uiso   1.00
C78    C     0.42817   0.16189   0.01442   0.00000  Uiso   1.00
C79    C     0.59222   0.29331   0.20544   0.00000  Uiso   1.00
C80    C     0.49614   0.16049   0.43513   0.00000  Uiso   1.00
C81    C     0.51520   0.17041   0.01673   0.00000  Uiso   1.00
C82    C     0.56321   0.18304   0.48966   0.00000  Uiso   1.00
C83    C     0.57920   0.17659   0.43691   0.00000  Uiso   1.00
C84    C     0.54727   0.16089   0.41154   0.00000  Uiso   1.00
C85    C     0.50629   0.16163   0.06875   0.00000  Uiso   1.00
C86    C     0.58373   0.19221   0.06956   0.00000  Uiso   1.00
Cl87   Cl    0.59668   0.23059   0.32036   0.00000  Uiso   1.00
Cl88   Cl    0.64964   0.22439   0.48569   0.00000  Uiso   1.00
Cl89   Cl    0.39950   0.17864   0.07816   0.00000  Uiso   1.00
Cu90   Cu    0.45311   0.16666   0.25000   0.00000  Uiso   1.00
Cu91   Cu    0.54689   0.16667   0.25000   0.00000  Uiso   1.00
H92    H     0.60852   0.20326   0.09054   0.00000  Uiso   1.00
H93    H     0.38518   0.14654   0.41162   0.00000  Uiso   1.00
H94    H     0.35750   0.14867   0.00481   0.00000  Uiso   1.00
H95    H     0.56466   0.14834   0.37401   0.00000  Uiso   1.00
H96    H     0.57836   0.03949   0.21474   0.00000  Uiso   1.00
H97    H     0.42192   0.03671   0.28036   0.00000  Uiso   1.00
H98    H     0.42297   0.29529   0.28001   0.00000  Uiso   1.00
H99    H     0.36318   0.21480   0.30502   0.00000  Uiso   1.00
H100   H     0.39126   0.11852   0.19443   0.00000  Uiso   1.00
H101   H     0.63762   0.11844   0.19459   0.00000  Uiso   1.00
H102   H     0.61741   0.17986   0.41578   0.00000  Uiso   1.00
H103   H     0.47453   0.14398   0.08868   0.00000  Uiso   1.00
N104   N     0.38265   0.16666   0.24998   0.00000  Uiso   1.00
N105   N     0.61735   0.16669   0.24999   0.00000  Uiso   1.00
N106   N     0.62950   0.27764   0.18727   0.00000  Uiso   1.00
O107   O     0.46042   0.22678   0.25000   0.00000  Uiso   1.00
O108   O     0.53961   0.22679   0.25000   0.00000  Uiso   1.00
O109   O     0.44108   0.16665   0.32549   0.00000  Uiso   1.00
O110   O     0.52027   0.16666   0.32549   0.00000  Uiso   1.00
O111   O     0.46039   0.10654   0.24999   0.00000  Uiso   1.00
O112   O     0.53958   0.10655   0.24999   0.00000  Uiso   1.00
O113   O     0.47973   0.16667   0.17451   0.00000  Uiso   1.00
O114   O     0.55892   0.16668   0.17451   0.00000  Uiso   1.00
C115   C     0.83393   0.24596   0.24881   0.00000  Uiso   1.00
C116   C     0.79463   0.15754   0.40628   0.00000  Uiso   1.00
C117   C     0.87901   0.31296   0.22809   0.00000  Uiso   1.00
C118   C     0.80794   0.16352   0.34974   0.00000  Uiso   1.00
C119   C     0.87792   0.02231   0.22933   0.00000  Uiso   1.00
C120   C     0.83355   0.04294   0.24827   0.00000  Uiso   1.00
C121   C     0.78981   0.02099   0.26565   0.00000  Uiso   1.00
C122   C     0.79051   0.31175   0.26533   0.00000  Uiso   1.00
C123   C     0.83489   0.29071   0.24718   0.00000  Uiso   1.00
C124   C     0.96779   0.19379   0.28053   0.00000  Uiso   1.00
C125   C     0.68384   0.19342   0.28060   0.00000  Uiso   1.00
C126   C     0.81282   0.16389   0.48981   0.00000  Uiso   1.00
C127   C     0.69947   0.13993   0.21917   0.00000  Uiso   1.00
C128   C     0.98319   0.13988   0.21925   0.00000  Uiso   1.00
C129   C     0.83327   0.08744   0.24960   0.00000  Uiso   1.00
C130   C     0.85912   0.16778   0.15059   0.00000  Uiso   1.00
C131   C     0.92904   0.19736   0.01657   0.00000  Uiso   1.00
C132   C     0.87318   0.17276   0.09520   0.00000  Uiso   1.00
C133   C     0.74542   0.15089   0.43244   0.00000  Uiso   1.00
C134   C     0.72946   0.15212   0.48575   0.00000  Uiso   1.00
C135   C     0.76150   0.16189   0.01442   0.00000  Uiso   1.00
C136   C     0.92556   0.29331   0.20544   0.00000  Uiso   1.00
C137   C     0.82947   0.16049   0.43513   0.00000  Uiso   1.00
C138   C     0.84853   0.17041   0.01673   0.00000  Uiso   1.00
C139   C     0.89654   0.18304   0.48966   0.00000  Uiso   1.00
C140   C     0.91254   0.17659   0.43691   0.00000  Uiso   1.00
C141   C     0.88061   0.16089   0.41154   0.00000  Uiso   1.00
C142   C     0.83962   0.16163   0.06875   0.00000  Uiso   1.00
C143   C     0.91706   0.19221   0.06956   0.00000  Uiso   1.00
Cl144  Cl    0.93002   0.23059   0.32036   0.00000  Uiso   1.00
Cl145  Cl    0.98298   0.22439   0.48569   0.00000  Uiso   1.00
Cl146  Cl    0.73283   0.17864   0.07816   0.00000  Uiso   1.00
Cu147  Cu    0.78645   0.16666   0.25000   0.00000  Uiso   1.00
Cu148  Cu    0.88022   0.16667   0.25000   0.00000  Uiso   1.00
H149   H     0.94185   0.20326   0.09054   0.00000  Uiso   1.00
H150   H     0.71852   0.14654   0.41162   0.00000  Uiso   1.00
H151   H     0.69083   0.14867   0.00481   0.00000  Uiso   1.00
H152   H     0.89799   0.14834   0.37401   0.00000  Uiso   1.00
H153   H     0.91169   0.03949   0.21474   0.00000  Uiso   1.00
H154   H     0.75525   0.03671   0.28036   0.00000  Uiso   1.00
H155   H     0.75630   0.29529   0.28001   0.00000  Uiso   1.00
H156   H     0.69651   0.21480   0.30502   0.00000  Uiso   1.00
H157   H     0.72460   0.11852   0.19443   0.00000  Uiso   1.00
H158   H     0.97095   0.11844   0.19459   0.00000  Uiso   1.00
H159   H     0.95074   0.17986   0.41578   0.00000  Uiso   1.00
H160   H     0.80786   0.14398   0.08868   0.00000  Uiso   1.00
N161   N     0.71598   0.16666   0.24998   0.00000  Uiso   1.00
N162   N     0.95069   0.16669   0.24999   0.00000  Uiso   1.00
N163   N     0.96283   0.27764   0.18727   0.00000  Uiso   1.00
O164   O     0.79375   0.22678   0.25000   0.00000  Uiso   1.00
O165   O     0.87294   0.22679   0.25000   0.00000  Uiso   1.00
O166   O     0.77441   0.16665   0.32549   0.00000  Uiso   1.00
O167   O     0.85360   0.16666   0.32549   0.00000  Uiso   1.00
O168   O     0.79373   0.10654   0.24999   0.00000  Uiso   1.00
O169   O     0.87292   0.10655   0.24999   0.00000  Uiso   1.00
O170   O     0.81306   0.16667   0.17451   0.00000  Uiso   1.00
O171   O     0.89225   0.16668   0.17451   0.00000  Uiso   1.00
C172   C     0.16726   0.57929   0.24881   0.00000  Uiso   1.00
C173   C     0.12797   0.49088   0.40628   0.00000  Uiso   1.00
C174   C     0.21235   0.64630   0.22809   0.00000  Uiso   1.00
C175   C     0.14127   0.49686   0.34974   0.00000  Uiso   1.00
C176   C     0.21126   0.35564   0.22933   0.00000  Uiso   1.00
C177   C     0.16688   0.37628   0.24827   0.00000  Uiso   1.00
C178   C     0.12314   0.35432   0.26565   0.00000  Uiso   1.00
C179   C     0.12384   0.64508   0.26533   0.00000  Uiso   1.00
C180   C     0.16823   0.62404   0.24718   0.00000  Uiso   1.00
C181   C     0.30113   0.52712   0.28053   0.00000  Uiso   1.00
C182   C     0.01717   0.52675   0.28060   0.00000  Uiso   1.00
C183   C     0.14615   0.49722   0.48981   0.00000  Uiso   1.00
C184   C     0.03281   0.47326   0.21917   0.00000  Uiso   1.00
C185   C     0.31652   0.47321   0.21925   0.00000  Uiso   1.00
C186   C     0.16661   0.42077   0.24960   0.00000  Uiso   1.00
C187   C     0.19245   0.50111   0.15059   0.00000  Uiso   1.00
C188   C     0.26237   0.53069   0.01657   0.00000  Uiso   1.00
C189   C     0.20652   0.50610   0.09520   0.00000  Uiso   1.00
C190   C     0.07876   0.48422   0.43244   0.00000  Uiso   1.00
C191   C     0.06279   0.48545   0.48575   0.00000  Uiso   1.00
C192   C     0.09484   0.49523   0.01442   0.00000  Uiso   1.00
C193   C     0.25889   0.62665   0.20544   0.00000  Uiso   1.00
C194   C     0.16281   0.49382   0.43513   0.00000  Uiso   1.00
C195   C     0.18186   0.50374   0.01673   0.00000  Uiso   1.00
C196   C     0.22988   0.51637   0.48966   0.00000  Uiso   1.00
C197   C     0.24587   0.50992   0.43691   0.00000  Uiso   1.00
C198   C     0.21394   0.49423   0.41154   0.00000  Uiso   1.00
C199   C     0.17295   0.49496   0.06875   0.00000  Uiso   1.00
C200   C     0.25039   0.52554   0.06956   0.00000  Uiso   1.00
Cl201  Cl    0.26335   0.56392   0.32036   0.00000  Uiso   1.00
Cl202  Cl    0.31631   0.55772   0.48569   0.00000  Uiso   1.00
Cl203  Cl    0.06616   0.51197   0.07816   0.00000  Uiso   1.00
Cu204  Cu    0.11978   0.49999   0.25000   0.00000  Uiso   1.00
Cu205  Cu    0.21355   0.50001   0.25000   0.00000  Uiso   1.00
H206   H     0.27519   0.53659   0.09054   0.00000  Uiso   1.00
H207   H     0.05185   0.47988   0.41162   0.00000  Uiso   1.00
H208   H     0.02416   0.48200   0.00481   0.00000  Uiso   1.00
H209   H     0.23133   0.48168   0.37401   0.00000  Uiso   1.00
H210   H     0.24503   0.37282   0.21474   0.00000  Uiso   1.00
H211   H     0.08858   0.37004   0.28036   0.00000  Uiso   1.00
H212   H     0.08963   0.62862   0.28001   0.00000  Uiso   1.00
H213   H     0.02984   0.54813   0.30502   0.00000  Uiso   1.00
H214   H     0.05793   0.45185   0.19443   0.00000  Uiso   1.00
H215   H     0.30428   0.45178   0.19459   0.00000  Uiso   1.00
H216   H     0.28408   0.51320   0.41578   0.00000  Uiso   1.00
H217   H     0.14120   0.47731   0.08868   0.00000  Uiso   1.00
N218   N     0.04931   0.49999   0.24998   0.00000  Uiso   1.00
N219   N     0.28402   0.50002   0.24999   0.00000  Uiso   1.00
N220   N     0.29616   0.61097   0.18727   0.00000  Uiso   1.00
O221   O     0.12708   0.56011   0.25000   0.00000  Uiso   1.00
O222   O     0.20627   0.56012   0.25000   0.00000  Uiso   1.00
O223   O     0.10775   0.49998   0.32549   0.00000  Uiso   1.00
O224   O     0.18694   0.49999   0.32549   0.00000  Uiso   1.00
O225   O     0.12706   0.43988   0.24999   0.00000  Uiso   1.00
O226   O     0.20625   0.43989   0.24999   0.00000  Uiso   1.00
O227   O     0.14640   0.50001   0.17451   0.00000  Uiso   1.00
O228   O     0.22559   0.50002   0.17451   0.00000  Uiso   1.00
C229   C     0.50059   0.57929   0.24881   0.00000  Uiso   1.00
C230   C     0.46130   0.49088   0.40628   0.00000  Uiso   1.00
C231   C     0.54568   0.64630   0.22809   0.00000  Uiso   1.00
C232   C     0.47460   0.49686   0.34974   0.00000  Uiso   1.00
C233   C     0.54459   0.35564   0.22933   0.00000  Uiso   1.00
C234   C     0.50022   0.37628   0.24827   0.00000  Uiso   1.00
C235   C     0.45648   0.35432   0.26565   0.00000  Uiso   1.00
C236   C     0.45718   0.64508   0.26533   0.00000  Uiso   1.00
C237   C     0.50156   0.62404   0.24718   0.00000  Uiso   1.00
C238   C     0.63446   0.52712   0.28053   0.00000  Uiso   1.00
C239   C     0.35050   0.52675   0.28060   0.00000  Uiso   1.00
C240   C     0.47949   0.49722   0.48981   0.00000  Uiso   1.00
C241   C     0.36614   0.47326   0.21917   0.00000  Uiso   1.00
C242   C     0.64985   0.47321   0.21925   0.00000  Uiso   1.00
C243   C     0.49994   0.42077   0.24960   0.00000  Uiso   1.00
C244   C     0.52578   0.50111   0.15059   0.00000  Uiso   1.00
C245   C     0.59570   0.53069   0.01657   0.00000  Uiso   1.00
C246   C     0.53985   0.50610   0.09520   0.00000  Uiso   1.00
C247   C     0.41209   0.48422   0.43244   0.00000  Uiso   1.00
C248   C     0.39613   0.48545   0.48575   0.00000  Uiso   1.00
C249   C     0.42817   0.49523   0.01442   0.00000  Uiso   1.00
C250   C     0.59222   0.62665   0.20544   0.00000  Uiso   1.00
C251   C     0.49614   0.49382   0.43513   0.00000  Uiso   1.00
C252   C     0.51520   0.50374   0.01673   0.00000  Uiso   1.00
C253   C     0.56321   0.51637   0.48966   0.00000  Uiso   1.00
C254   C     0.57920   0.50992   0.43691   0.00000  Uiso   1.00
C255   C     0.54727   0.49423   0.41154   0.00000  Uiso   1.00
C256   C     0.50629   0.49496   0.06875   0.00000  Uiso   1.00
C257   C     0.58373   0.52554   0.06956   0.00000  Uiso   1.00
Cl258  Cl    0.59668   0.56392   0.32036   0.00000  Uiso   1.00
Cl259  Cl    0.64964   0.55772   0.48569   0.00000  Uiso   1.00
Cl260  Cl    0.39950   0.51197   0.07816   0.00000  Uiso   1.00
Cu261  Cu    0.45311   0.49999   0.25000   0.00000  Uiso   1.00
Cu262  Cu    0.54689   0.50001   0.25000   0.00000  Uiso   1.00
H263   H     0.60852   0.53659   0.09054   0.00000  Uiso   1.00
H264   H     0.38518   0.47988   0.41162   0.00000  Uiso   1.00
H265   H     0.35750   0.48200   0.00481   0.00000  Uiso   1.00
H266   H     0.56466   0.48168   0.37401   0.00000  Uiso   1.00
H267   H     0.57836   0.37282   0.21474   0.00000  Uiso   1.00
H268   H     0.42192   0.37004   0.28036   0.00000  Uiso   1.00
H269   H     0.42297   0.62862   0.28001   0.00000  Uiso   1.00
H270   H     0.36318   0.54813   0.30502   0.00000  Uiso   1.00
H271   H     0.39126   0.45185   0.19443   0.00000  Uiso   1.00
H272   H     0.63762   0.45178   0.19459   0.00000  Uiso   1.00
H273   H     0.61741   0.51320   0.41578   0.00000  Uiso   1.00
H274   H     0.47453   0.47731   0.08868   0.00000  Uiso   1.00
N275   N     0.38265   0.49999   0.24998   0.00000  Uiso   1.00
N276   N     0.61735   0.50002   0.24999   0.00000  Uiso   1.00
N277   N     0.62950   0.61097   0.18727   0.00000  Uiso   1.00
O278   O     0.46042   0.56011   0.25000   0.00000  Uiso   1.00
O279   O     0.53961   0.56012   0.25000   0.00000  Uiso   1.00
O280   O     0.44108   0.49998   0.32549   0.00000  Uiso   1.00
O281   O     0.52027   0.49999   0.32549   0.00000  Uiso   1.00
O282   O     0.46039   0.43988   0.24999   0.00000  Uiso   1.00
O283   O     0.53958   0.43989   0.24999   0.00000  Uiso   1.00
O284   O     0.47973   0.50001   0.17451   0.00000  Uiso   1.00
O285   O     0.55892   0.50002   0.17451   0.00000  Uiso   1.00
C286   C     0.83393   0.57929   0.24881   0.00000  Uiso   1.00
C287   C     0.79463   0.49088   0.40628   0.00000  Uiso   1.00
C288   C     0.87901   0.64630   0.22809   0.00000  Uiso   1.00
C289   C     0.80794   0.49686   0.34974   0.00000  Uiso   1.00
C290   C     0.87792   0.35564   0.22933   0.00000  Uiso   1.00
C291   C     0.83355   0.37628   0.24827   0.00000  Uiso   1.00
C292   C     0.78981   0.35432   0.26565   0.00000  Uiso   1.00
C293   C     0.79051   0.64508   0.26533   0.00000  Uiso   1.00
C294   C     0.83489   0.62404   0.24718   0.00000  Uiso   1.00
C295   C     0.96779   0.52712   0.28053   0.00000  Uiso   1.00
C296   C     0.68384   0.52675   0.28060   0.00000  Uiso   1.00
C297   C     0.81282   0.49722   0.48981   0.00000  Uiso   1.00
C298   C     0.69947   0.47326   0.21917   0.00000  Uiso   1.00
C299   C     0.98319   0.47321   0.21925   0.00000  Uiso   1.00
C300   C     0.83327   0.42077   0.24960   0.00000  Uiso   1.00
C301   C     0.85912   0.50111   0.15059   0.00000  Uiso   1.00
C302   C     0.92904   0.53069   0.01657   0.00000  Uiso   1.00
C303   C     0.87318   0.50610   0.09520   0.00000  Uiso   1.00
C304   C     0.74542   0.48422   0.43244   0.00000  Uiso   1.00
C305   C     0.72946   0.48545   0.48575   0.00000  Uiso   1.00
C306   C     0.76150   0.49523   0.01442   0.00000  Uiso   1.00
C307   C     0.92556   0.62665   0.20544   0.00000  Uiso   1.00
C308   C     0.82947   0.49382   0.43513   0.00000  Uiso   1.00
C309   C     0.84853   0.50374   0.01673   0.00000  Uiso   1.00
C310   C     0.89654   0.51637   0.48966   0.00000  Uiso   1.00
C311   C     0.91254   0.50992   0.43691   0.00000  Uiso   1.00
C312   C     0.88061   0.49423   0.41154   0.00000  Uiso   1.00
C313   C     0.83962   0.49496   0.06875   0.00000  Uiso   1.00
C314   C     0.91706   0.52554   0.06956   0.00000  Uiso   1.00
Cl315  Cl    0.93002   0.56392   0.32036   0.00000  Uiso   1.00
Cl316  Cl    0.98298   0.55772   0.48569   0.00000  Uiso   1.00
Cl317  Cl    0.73283   0.51197   0.07816   0.00000  Uiso   1.00
Cu318  Cu    0.78645   0.49999   0.25000   0.00000  Uiso   1.00
Cu319  Cu    0.88022   0.50001   0.25000   0.00000  Uiso   1.00
H320   H     0.94185   0.53659   0.09054   0.00000  Uiso   1.00
H321   H     0.71852   0.47988   0.41162   0.00000  Uiso   1.00
H322   H     0.69083   0.48200   0.00481   0.00000  Uiso   1.00
H323   H     0.89799   0.48168   0.37401   0.00000  Uiso   1.00
H324   H     0.91169   0.37282   0.21474   0.00000  Uiso   1.00
H325   H     0.75525   0.37004   0.28036   0.00000  Uiso   1.00
H326   H     0.75630   0.62862   0.28001   0.00000  Uiso   1.00
H327   H     0.69651   0.54813   0.30502   0.00000  Uiso   1.00
H328   H     0.72460   0.45185   0.19443   0.00000  Uiso   1.00
H329   H     0.97095   0.45178   0.19459   0.00000  Uiso   1.00
H330   H     0.95074   0.51320   0.41578   0.00000  Uiso   1.00
H331   H     0.80786   0.47731   0.08868   0.00000  Uiso   1.00
N332   N     0.71598   0.49999   0.24998   0.00000  Uiso   1.00
N333   N     0.95069   0.50002   0.24999   0.00000  Uiso   1.00
N334   N     0.96283   0.61097   0.18727   0.00000  Uiso   1.00
O335   O     0.79375   0.56011   0.25000   0.00000  Uiso   1.00
O336   O     0.87294   0.56012   0.25000   0.00000  Uiso   1.00
O337   O     0.77441   0.49998   0.32549   0.00000  Uiso   1.00
O338   O     0.85360   0.49999   0.32549   0.00000  Uiso   1.00
O339   O     0.79373   0.43988   0.24999   0.00000  Uiso   1.00
O340   O     0.87292   0.43989   0.24999   0.00000  Uiso   1.00
O341   O     0.81306   0.50001   0.17451   0.00000  Uiso   1.00
O342   O     0.89225   0.50002   0.17451   0.00000  Uiso   1.00
C343   C     0.16726   0.91263   0.24881   0.00000  Uiso   1.00
C344   C     0.12797   0.82421   0.40628   0.00000  Uiso   1.00
C345   C     0.21235   0.97963   0.22809   0.00000  Uiso   1.00
C346   C     0.14127   0.83019   0.34974   0.00000  Uiso   1.00
C347   C     0.21126   0.68898   0.22933   0.00000  Uiso   1.00
C348   C     0.16688   0.70961   0.24827   0.00000  Uiso   1.00
C349   C     0.12314   0.68765   0.26565   0.00000  Uiso   1.00
C350   C     0.12384   0.97841   0.26533   0.00000  Uiso   1.00
C351   C     0.16823   0.95737   0.24718   0.00000  Uiso   1.00
C352   C     0.30113   0.86046   0.28053   0.00000  Uiso   1.00
C353   C     0.01717   0.86009   0.28060   0.00000  Uiso   1.00
C354   C     0.14615   0.83056   0.48981   0.00000  Uiso   1.00
C355   C     0.03281   0.80659   0.21917   0.00000  Uiso   1.00
C356   C     0.31652   0.80655   0.21925   0.00000  Uiso   1.00
C357   C     0.16661   0.75410   0.24960   0.00000  Uiso   1.00
C358   C     0.19245   0.83445   0.15059   0.00000  Uiso   1.00
C359   C     0.26237   0.86403   0.01657   0.00000  Uiso   1.00
C360   C     0.20652   0.83943   0.09520   0.00000  Uiso   1.00
C361   C     0.07876   0.81756   0.43244   0.00000  Uiso   1.00
C362   C     0.06279   0.81878   0.48575   0.00000  Uiso   1.00
C363   C     0.09484   0.82856   0.01442   0.00000  Uiso   1.00
C364   C     0.25889   0.95998   0.20544   0.00000  Uiso   1.00
C365   C     0.16281   0.82715   0.43513   0.00000  Uiso   1.00
C366   C     0.18186   0.83707   0.01673   0.00000  Uiso   1.00
C367   C     0.22988   0.84970   0.48966   0.00000  Uiso   1.00
C368   C     0.24587   0.84325   0.43691   0.00000  Uiso   1.00
C369   C     0.21394   0.82756   0.41154   0.00000  Uiso   1.00
C370   C     0.17295   0.82829   0.06875   0.00000  Uiso   1.00
C371   C     0.25039   0.85888   0.06956   0.00000  Uiso   1.00
Cl372  Cl    0.26335   0.89725   0.32036   0.00000  Uiso   1.00
Cl373  Cl    0.31631   0.89106   0.48569   0.00000  Uiso   1.00
Cl374  Cl    0.06616   0.84531   0.07816   0.00000  Uiso   1.00
Cu375  Cu    0.11978   0.83333   0.25000   0.00000  Uiso   1.00
Cu376  Cu    0.21355   0.83334   0.25000   0.00000  Uiso   1.00
H377   H     0.27519   0.86993   0.09054   0.00000  Uiso   1.00
H378   H     0.05185   0.81321   0.41162   0.00000  Uiso   1.00
H379   H     0.02416   0.81533   0.00481   0.00000  Uiso   1.00
H380   H     0.23133   0.81501   0.37401   0.00000  Uiso   1.00
H381   H     0.24503   0.70616   0.21474   0.00000  Uiso   1.00
H382   H     0.08858   0.70337   0.28036   0.00000  Uiso   1.00
H383   H     0.08963   0.96196   0.28001   0.00000  Uiso   1.00
H384   H     0.02984   0.88146   0.30502   0.00000  Uiso   1.00
H385   H     0.05793   0.78518   0.19443   0.00000  Uiso   1.00
H386   H     0.30428   0.78511   0.19459   0.00000  Uiso   1.00
H387   H     0.28408   0.84653   0.41578   0.00000  Uiso   1.00
H388   H     0.14120   0.81064   0.08868   0.00000  Uiso   1.00
N389   N     0.04931   0.83332   0.24998   0.00000  Uiso   1.00
N390   N     0.28402   0.83335   0.24999   0.00000  Uiso   1.00
N391   N     0.29616   0.94431   0.18727   0.00000  Uiso   1.00
O392   O     0.12708   0.89345   0.25000   0.00000  Uiso   1.00
O393   O     0.20627   0.89346   0.25000   0.00000  Uiso   1.00
O394   O     0.10775   0.83332   0.32549   0.00000  Uiso   1.00
O395   O     0.18694   0.83333   0.32549   0.00000  Uiso   1.00
O396   O     0.12706   0.77321   0.24999   0.00000  Uiso   1.00
O397   O     0.20625   0.77322   0.24999   0.00000  Uiso   1.00
O398   O     0.14640   0.83334   0.17451   0.00000  Uiso   1.00
O399   O     0.22559   0.83335   0.17451   0.00000  Uiso   1.00
C400   C     0.50059   0.91263   0.24881   0.00000  Uiso   1.00
C401   C     0.46130   0.82421   0.40628   0.00000  Uiso   1.00
C402   C     0.54568   0.97963   0.22809   0.00000  Uiso   1.00
C403   C     0.47460   0.83019   0.34974   0.00000  Uiso   1.00
C404   C     0.54459   0.68898   0.22933   0.00000  Uiso   1.00
C405   C     0.50022   0.70961   0.24827   0.00000  Uiso   1.00
C406   C     0.45648   0.68765   0.26565   0.00000  Uiso   1.00
C407   C     0.45718   0.97841   0.26533   0.00000  Uiso   1.00
C408   C     0.50156   0.95737   0.24718   0.00000  Uiso   1.00
C409   C     0.63446   0.86046   0.28053   0.00000  Uiso   1.00
C410   C     0.35050   0.86009   0.28060   0.00000  Uiso   1.00
C411   C     0.47949   0.83056   0.48981   0.00000  Uiso   1.00
C412   C     0.36614   0.80659   0.21917   0.00000  Uiso   1.00
C413   C     0.64985   0.80655   0.21925   0.00000  Uiso   1.00
C414   C     0.49994   0.75410   0.24960   0.00000  Uiso   1.00
C415   C     0.52578   0.83445   0.15059   0.00000  Uiso   1.00
C416   C     0.59570   0.86403   0.01657   0.00000  Uiso   1.00
C417   C     0.53985   0.83943   0.09520   0.00000  Uiso   1.00
C418   C     0.41209   0.81756   0.43244   0.00000  Uiso   1.00
C419   C     0.39613   0.81878   0.48575   0.00000  Uiso   1.00
C420   C     0.42817   0.82856   0.01442   0.00000  Uiso   1.00
C421   C     0.59222   0.95998   0.20544   0.00000  Uiso   1.00
C422   C     0.49614   0.82715   0.43513   0.00000  Uiso   1.00
C423   C     0.51520   0.83707   0.01673   0.00000  Uiso   1.00
C424   C     0.56321   0.84970   0.48966   0.00000  Uiso   1.00
C425   C     0.57920   0.84325   0.43691   0.00000  Uiso   1.00
C426   C     0.54727   0.82756   0.41154   0.00000  Uiso   1.00
C427   C     0.50629   0.82829   0.06875   0.00000  Uiso   1.00
C428   C     0.58373   0.85888   0.06956   0.00000  Uiso   1.00
Cl429  Cl    0.59668   0.89725   0.32036   0.00000  Uiso   1.00
Cl430  Cl    0.64964   0.89106   0.48569   0.00000  Uiso   1.00
Cl431  Cl    0.39950   0.84531   0.07816   0.00000  Uiso   1.00
Cu432  Cu    0.45311   0.83333   0.25000   0.00000  Uiso   1.00
Cu433  Cu    0.54689   0.83334   0.25000   0.00000  Uiso   1.00
H434   H     0.60852   0.86993   0.09054   0.00000  Uiso   1.00
H435   H     0.38518   0.81321   0.41162   0.00000  Uiso   1.00
H436   H     0.35750   0.81533   0.00481   0.00000  Uiso   1.00
H437   H     0.56466   0.81501   0.37401   0.00000  Uiso   1.00
H438   H     0.57836   0.70616   0.21474   0.00000  Uiso   1.00
H439   H     0.42192   0.70337   0.28036   0.00000  Uiso   1.00
H440   H     0.42297   0.96196   0.28001   0.00000  Uiso   1.00
H441   H     0.36318   0.88146   0.30502   0.00000  Uiso   1.00
H442   H     0.39126   0.78518   0.19443   0.00000  Uiso   1.00
H443   H     0.63762   0.78511   0.19459   0.00000  Uiso   1.00
H444   H     0.61741   0.84653   0.41578   0.00000  Uiso   1.00
H445   H     0.47453   0.81064   0.08868   0.00000  Uiso   1.00
N446   N     0.38265   0.83332   0.24998   0.00000  Uiso   1.00
N447   N     0.61735   0.83335   0.24999   0.00000  Uiso   1.00
N448   N     0.62950   0.94431   0.18727   0.00000  Uiso   1.00
O449   O     0.46042   0.89345   0.25000   0.00000  Uiso   1.00
O450   O     0.53961   0.89346   0.25000   0.00000  Uiso   1.00
O451   O     0.44108   0.83332   0.32549   0.00000  Uiso   1.00
O452   O     0.52027   0.83333   0.32549   0.00000  Uiso   1.00
O453   O     0.46039   0.77321   0.24999   0.00000  Uiso   1.00
O454   O     0.53958   0.77322   0.24999   0.00000  Uiso   1.00
O455   O     0.47973   0.83334   0.17451   0.00000  Uiso   1.00
O456   O     0.55892   0.83335   0.17451   0.00000  Uiso   1.00
C457   C     0.83393   0.91263   0.24881   0.00000  Uiso   1.00
C458   C     0.79463   0.82421   0.40628   0.00000  Uiso   1.00
C459   C     0.87901   0.97963   0.22809   0.00000  Uiso   1.00
C460   C     0.80794   0.83019   0.34974   0.00000  Uiso   1.00
C461   C     0.87792   0.68898   0.22933   0.00000  Uiso   1.00
C462   C     0.83355   0.70961   0.24827   0.00000  Uiso   1.00
C463   C     0.78981   0.68765   0.26565   0.00000  Uiso   1.00
C464   C     0.79051   0.97841   0.26533   0.00000  Uiso   1.00
C465   C     0.83489   0.95737   0.24718   0.00000  Uiso   1.00
C466   C     0.96779   0.86046   0.28053   0.00000  Uiso   1.00
C467   C     0.68384   0.86009   0.28060   0.00000  Uiso   1.00
C468   C     0.81282   0.83056   0.48981   0.00000  Uiso   1.00
C469   C     0.69947   0.80659   0.21917   0.00000  Uiso   1.00
C470   C     0.98319   0.80655   0.21925   0.00000  Uiso   1.00
C471   C     0.83327   0.75410   0.24960   0.00000  Uiso   1.00
C472   C     0.85912   0.83445   0.15059   0.00000  Uiso   1.00
C473   C     0.92904   0.86403   0.01657   0.00000  Uiso   1.00
C474   C     0.87318   0.83943   0.09520   0.00000  Uiso   1.00
C475   C     0.74542   0.81756   0.43244   0.00000  Uiso   1.00
C476   C     0.72946   0.81878   0.48575   0.00000  Uiso   1.00
C477   C     0.76150   0.82856   0.01442   0.00000  Uiso   1.00
C478   C     0.92556   0.95998   0.20544   0.00000  Uiso   1.00
C479   C     0.82947   0.82715   0.43513   0.00000  Uiso   1.00
C480   C     0.84853   0.83707   0.01673   0.00000  Uiso   1.00
C481   C     0.89654   0.84970   0.48966   0.00000  Uiso   1.00
C482   C     0.91254   0.84325   0.43691   0.00000  Uiso   1.00
C483   C     0.88061   0.82756   0.41154   0.00000  Uiso   1.00
C484   C     0.83962   0.82829   0.06875   0.00000  Uiso   1.00
C485   C     0.91706   0.85888   0.06956   0.00000  Uiso   1.00
Cl486  Cl    0.93002   0.89725   0.32036   0.00000  Uiso   1.00
Cl487  Cl    0.98298   0.89106   0.48569   0.00000  Uiso   1.00
Cl488  Cl    0.73283   0.84531   0.07816   0.00000  Uiso   1.00
Cu489  Cu    0.78645   0.83333   0.25000   0.00000  Uiso   1.00
Cu490  Cu    0.88022   0.83334   0.25000   0.00000  Uiso   1.00
H491   H     0.94185   0.86993   0.09054   0.00000  Uiso   1.00
H492   H     0.71852   0.81321   0.41162   0.00000  Uiso   1.00
H493   H     0.69083   0.81533   0.00481   0.00000  Uiso   1.00
H494   H     0.89799   0.81501   0.37401   0.00000  Uiso   1.00
H495   H     0.91169   0.70616   0.21474   0.00000  Uiso   1.00
H496   H     0.75525   0.70337   0.28036   0.00000  Uiso   1.00
H497   H     0.75630   0.96196   0.28001   0.00000  Uiso   1.00
H498   H     0.69651   0.88146   0.30502   0.00000  Uiso   1.00
H499   H     0.72460   0.78518   0.19443   0.00000  Uiso   1.00
H500   H     0.97095   0.78511   0.19459   0.00000  Uiso   1.00
H501   H     0.95074   0.84653   0.41578   0.00000  Uiso   1.00
H502   H     0.80786   0.81064   0.08868   0.00000  Uiso   1.00
N503   N     0.71598   0.83332   0.24998   0.00000  Uiso   1.00
N504   N     0.95069   0.83335   0.24999   0.00000  Uiso   1.00
N505   N     0.96283   0.94431   0.18727   0.00000  Uiso   1.00
O506   O     0.79375   0.89345   0.25000   0.00000  Uiso   1.00
O507   O     0.87294   0.89346   0.25000   0.00000  Uiso   1.00
O508   O     0.77441   0.83332   0.32549   0.00000  Uiso   1.00
O509   O     0.85360   0.83333   0.32549   0.00000  Uiso   1.00
O510   O     0.79373   0.77321   0.24999   0.00000  Uiso   1.00
O511   O     0.87292   0.77322   0.24999   0.00000  Uiso   1.00
O512   O     0.81306   0.83334   0.17451   0.00000  Uiso   1.00
O513   O     0.89225   0.83335   0.17451   0.00000  Uiso   1.00
C514   C     0.16726   0.24596   0.74881   0.00000  Uiso   1.00
C515   C     0.12797   0.15754   0.90628   0.00000  Uiso   1.00
C516   C     0.21235   0.31296   0.72809   0.00000  Uiso   1.00
C517   C     0.14127   0.16352   0.84974   0.00000  Uiso   1.00
C518   C     0.21126   0.02231   0.72933   0.00000  Uiso   1.00
C519   C     0.16688   0.04294   0.74827   0.00000  Uiso   1.00
C520   C     0.12314   0.02099   0.76565   0.00000  Uiso   1.00
C521   C     0.12384   0.31175   0.76533   0.00000  Uiso   1.00
C522   C     0.16823   0.29071   0.74718   0.00000  Uiso   1.00
C523   C     0.30113   0.19379   0.78053   0.00000  Uiso   1.00
C524   C     0.01717   0.19342   0.78060   0.00000  Uiso   1.00
C525   C     0.14615   0.16389   0.98981   0.00000  Uiso   1.00
C526   C     0.03281   0.13993   0.71917   0.00000  Uiso   1.00
C527   C     0.31652   0.13988   0.71925   0.00000  Uiso   1.00
C528   C     0.16661   0.08744   0.74960   0.00000  Uiso   1.00
C529   C     0.19245   0.16778   0.65059   0.00000  Uiso   1.00
C530   C     0.26237   0.19736   0.51657   0.00000  Uiso   1.00
C531   C     0.20652   0.17276   0.59520   0.00000  Uiso   1.00
C532   C     0.07876   0.15089   0.93244   0.00000  Uiso   1.00
C533   C     0.06279   0.15212   0.98575   0.00000  Uiso   1.00
C534   C     0.09484   0.16189   0.51442   0.00000  Uiso   1.00
C535   C     0.25889   0.29331   0.70544   0.00000  Uiso   1.00
C536   C     0.16281   0.16049   0.93513   0.00000  Uiso   1.00
C537   C     0.18186   0.17041   0.51673   0.00000  Uiso   1.00
C538   C     0.22988   0.18304   0.98966   0.00000  Uiso   1.00
C539   C     0.24587   0.17659   0.93691   0.00000  Uiso   1.00
C540   C     0.21394   0.16089   0.91154   0.00000  Uiso   1.00
C541   C     0.17295   0.16163   0.56875   0.00000  Uiso   1.00
C542   C     0.25039   0.19221   0.56956   0.00000  Uiso   1.00
Cl543  Cl    0.26335   0.23059   0.82036   0.00000  Uiso   1.00
Cl544  Cl    0.31631   0.22439   0.98569   0.00000  Uiso   1.00
Cl545  Cl    0.06616   0.17864   0.57816   0.00000  Uiso   1.00
Cu546  Cu    0.11978   0.16666   0.75000   0.00000  Uiso   1.00
Cu547  Cu    0.21355   0.16667   0.75000   0.00000  Uiso   1.00
H548   H     0.27519   0.20326   0.59054   0.00000  Uiso   1.00
H549   H     0.05185   0.14654   0.91162   0.00000  Uiso   1.00
H550   H     0.02416   0.14867   0.50481   0.00000  Uiso   1.00
H551   H     0.23133   0.14834   0.87401   0.00000  Uiso   1.00
H552   H     0.24503   0.03949   0.71474   0.00000  Uiso   1.00
H553   H     0.08858   0.03671   0.78036   0.00000  Uiso   1.00
H554   H     0.08963   0.29529   0.78001   0.00000  Uiso   1.00
H555   H     0.02984   0.21480   0.80502   0.00000  Uiso   1.00
H556   H     0.05793   0.11852   0.69443   0.00000  Uiso   1.00
H557   H     0.30428   0.11844   0.69459   0.00000  Uiso   1.00
H558   H     0.28408   0.17986   0.91578   0.00000  Uiso   1.00
H559   H     0.14120   0.14398   0.58868   0.00000  Uiso   1.00
N560   N     0.04931   0.16666   0.74998   0.00000  Uiso   1.00
N561   N     0.28402   0.16669   0.74999   0.00000  Uiso   1.00
N562   N     0.29616   0.27764   0.68727   0.00000  Uiso   1.00
O563   O     0.12708   0.22678   0.75000   0.00000  Uiso   1.00
O564   O     0.20627   0.22679   0.75000   0.00000  Uiso   1.00
O565   O     0.10775   0.16665   0.82549   0.00000  Uiso   1.00
O566   O     0.18694   0.16666   0.82549   0.00000  Uiso   1.00
O567   O     0.12706   0.10654   0.74999   0.00000  Uiso   1.00
O568   O     0.20625   0.10655   0.74999   0.00000  Uiso   1.00
O569   O     0.14640   0.16667   0.67451   0.00000  Uiso   1.00
O570   O     0.22559   0.16668   0.67451   0.00000  Uiso   1.00
C571   C     0.50059   0.24596   0.74881   0.00000  Uiso   1.00
C572   C     0.46130   0.15754   0.90628   0.00000  Uiso   1.00
C573   C     0.54568   0.31296   0.72809   0.00000  Uiso   1.00
C574   C     0.47460   0.16352   0.84974   0.00000  Uiso   1.00
C575   C     0.54459   0.02231   0.72933   0.00000  Uiso   1.00
C576   C     0.50022   0.04294   0.74827   0.00000  Uiso   1.00
C577   C     0.45648   0.02099   0.76565   0.00000  Uiso   1.00
C578   C     0.45718   0.31175   0.76533   0.00000  Uiso   1.00
C579   C     0.50156   0.29071   0.74718   0.00000  Uiso   1.00
C580   C     0.63446   0.19379   0.78053   0.00000  Uiso   1.00
C581   C     0.35050   0.19342   0.78060   0.00000  Uiso   1.00
C582   C     0.47949   0.16389   0.98981   0.00000  Uiso   1.00
C583   C     0.36614   0.13993   0.71917   0.00000  Uiso   1.00
C584   C     0.64985   0.13988   0.71925   0.00000  Uiso   1.00
C585   C     0.49994   0.08744   0.74960   0.00000  Uiso   1.00
C586   C     0.52578   0.16778   0.65059   0.00000  Uiso   1.00
C587   C     0.59570   0.19736   0.51657   0.00000  Uiso   1.00
C588   C     0.53985   0.17276   0.59520   0.00000  Uiso   1.00
C589   C     0.41209   0.15089   0.93244   0.00000  Uiso   1.00
C590   C     0.39613   0.15212   0.98575   0.00000  Uiso   1.00
C591   C     0.42817   0.16189   0.51442   0.00000  Uiso   1.00
C592   C     0.59222   0.29331   0.70544   0.00000  Uiso   1.00
C593   C     0.49614   0.16049   0.93513   0.00000  Uiso   1.00
C594   C     0.51520   0.17041   0.51673   0.00000  Uiso   1.00
C595   C     0.56321   0.18304   0.98966   0.00000  Uiso   1.00
C596   C     0.57920   0.17659   0.93691   0.00000  Uiso   1.00
C597   C     0.54727   0.16089   0.91154   0.00000  Uiso   1.00
C598   C     0.50629   0.16163   0.56875   0.00000  Uiso   1.00
C599   C     0.58373   0.19221   0.56956   0.00000  Uiso   1.00
Cl600  Cl    0.59668   0.23059   0.82036   0.00000  Uiso   1.00
Cl601  Cl    0.64964   0.22439   0.98569   0.00000  Uiso   1.00
Cl602  Cl    0.39950   0.17864   0.57816   0.00000  Uiso   1.00
Cu603  Cu    0.45311   0.16666   0.75000   0.00000  Uiso   1.00
Cu604  Cu    0.54689   0.16667   0.75000   0.00000  Uiso   1.00
H605   H     0.60852   0.20326   0.59054   0.00000  Uiso   1.00
H606   H     0.38518   0.14654   0.91162   0.00000  Uiso   1.00
H607   H     0.35750   0.14867   0.50481   0.00000  Uiso   1.00
H608   H     0.56466   0.14834   0.87401   0.00000  Uiso   1.00
H609   H     0.57836   0.03949   0.71474   0.00000  Uiso   1.00
H610   H     0.42192   0.03671   0.78036   0.00000  Uiso   1.00
H611   H     0.42297   0.29529   0.78001   0.00000  Uiso   1.00
H612   H     0.36318   0.21480   0.80502   0.00000  Uiso   1.00
H613   H     0.39126   0.11852   0.69443   0.00000  Uiso   1.00
H614   H     0.63762   0.11844   0.69459   0.00000  Uiso   1.00
H615   H     0.61741   0.17986   0.91578   0.00000  Uiso   1.00
H616   H     0.47453   0.14398   0.58868   0.00000  Uiso   1.00
N617   N     0.38265   0.16666   0.74998   0.00000  Uiso   1.00
N618   N     0.61735   0.16669   0.74999   0.00000  Uiso   1.00
N619   N     0.62950   0.27764   0.68727   0.00000  Uiso   1.00
O620   O     0.46042   0.22678   0.75000   0.00000  Uiso   1.00
O621   O     0.53961   0.22679   0.75000   0.00000  Uiso   1.00
O622   O     0.44108   0.16665   0.82549   0.00000  Uiso   1.00
O623   O     0.52027   0.16666   0.82549   0.00000  Uiso   1.00
O624   O     0.46039   0.10654   0.74999   0.00000  Uiso   1.00
O625   O     0.53958   0.10655   0.74999   0.00000  Uiso   1.00
O626   O     0.47973   0.16667   0.67451   0.00000  Uiso   1.00
O627   O     0.55892   0.16668   0.67451   0.00000  Uiso   1.00
C628   C     0.83393   0.24596   0.74881   0.00000  Uiso   1.00
C629   C     0.79463   0.15754   0.90628   0.00000  Uiso   1.00
C630   C     0.87901   0.31296   0.72809   0.00000  Uiso   1.00
C631   C     0.80794   0.16352   0.84974   0.00000  Uiso   1.00
C632   C     0.87792   0.02231   0.72933   0.00000  Uiso   1.00
C633   C     0.83355   0.04294   0.74827   0.00000  Uiso   1.00
C634   C     0.78981   0.02099   0.76565   0.00000  Uiso   1.00
C635   C     0.79051   0.31175   0.76533   0.00000  Uiso   1.00
C636   C     0.83489   0.29071   0.74718   0.00000  Uiso   1.00
C637   C     0.96779   0.19379   0.78053   0.00000  Uiso   1.00
C638   C     0.68384   0.19342   0.78060   0.00000  Uiso   1.00
C639   C     0.81282   0.16389   0.98981   0.00000  Uiso   1.00
C640   C     0.69947   0.13993   0.71917   0.00000  Uiso   1.00
C641   C     0.98319   0.13988   0.71925   0.00000  Uiso   1.00
C642   C     0.83327   0.08744   0.74960   0.00000  Uiso   1.00
C643   C     0.85912   0.16778   0.65059   0.00000  Uiso   1.00
C644   C     0.92904   0.19736   0.51657   0.00000  Uiso   1.00
C645   C     0.87318   0.17276   0.59520   0.00000  Uiso   1.00
C646   C     0.74542   0.15089   0.93244   0.00000  Uiso   1.00
C647   C     0.72946   0.15212   0.98575   0.00000  Uiso   1.00
C648   C     0.76150   0.16189   0.51442   0.00000  Uiso   1.00
C649   C     0.92556   0.29331   0.70544   0.00000  Uiso   1.00
C650   C     0.82947   0.16049   0.93513   0.00000  Uiso   1.00
C651   C     0.84853   0.17041   0.51673   0.00000  Uiso   1.00
C652   C     0.89654   0.18304   0.98966   0.00000  Uiso   1.00
C653   C     0.91254   0.17659   0.93691   0.00000  Uiso   1.00
C654   C     0.88061   0.16089   0.91154   0.00000  Uiso   1.00
C655   C     0.83962   0.16163   0.56875   0.00000  Uiso   1.00
C656   C     0.91706   0.19221   0.56956   0.00000  Uiso   1.00
Cl657  Cl    0.93002   0.23059   0.82036   0.00000  Uiso   1.00
Cl658  Cl    0.98298   0.22439   0.98569   0.00000  Uiso   1.00
Cl659  Cl    0.73283   0.17864   0.57816   0.00000  Uiso   1.00
Cu660  Cu    0.78645   0.16666   0.75000   0.00000  Uiso   1.00
Cu661  Cu    0.88022   0.16667   0.75000   0.00000  Uiso   1.00
H662   H     0.94185   0.20326   0.59054   0.00000  Uiso   1.00
H663   H     0.71852   0.14654   0.91162   0.00000  Uiso   1.00
H664   H     0.69083   0.14867   0.50481   0.00000  Uiso   1.00
H665   H     0.89799   0.14834   0.87401   0.00000  Uiso   1.00
H666   H     0.91169   0.03949   0.71474   0.00000  Uiso   1.00
H667   H     0.75525   0.03671   0.78036   0.00000  Uiso   1.00
H668   H     0.75630   0.29529   0.78001   0.00000  Uiso   1.00
H669   H     0.69651   0.21480   0.80502   0.00000  Uiso   1.00
H670   H     0.72460   0.11852   0.69443   0.00000  Uiso   1.00
H671   H     0.97095   0.11844   0.69459   0.00000  Uiso   1.00
H672   H     0.95074   0.17986   0.91578   0.00000  Uiso   1.00
H673   H     0.80786   0.14398   0.58868   0.00000  Uiso   1.00
N674   N     0.71598   0.16666   0.74998   0.00000  Uiso   1.00
N675   N     0.95069   0.16669   0.74999   0.00000  Uiso   1.00
N676   N     0.96283   0.27764   0.68727   0.00000  Uiso   1.00
O677   O     0.79375   0.22678   0.75000   0.00000  Uiso   1.00
O678   O     0.87294   0.22679   0.75000   0.00000  Uiso   1.00
O679   O     0.77441   0.16665   0.82549   0.00000  Uiso   1.00
O680   O     0.85360   0.16666   0.82549   0.00000  Uiso   1.00
O681   O     0.79373   0.10654   0.74999   0.00000  Uiso   1.00
O682   O     0.87292   0.10655   0.74999   0.00000  Uiso   1.00
O683   O     0.81306   0.16667   0.67451   0.00000  Uiso   1.00
O684   O     0.89225   0.16668   0.67451   0.00000  Uiso   1.00
C685   C     0.16726   0.57929   0.74881   0.00000  Uiso   1.00
C686   C     0.12797   0.49088   0.90628   0.00000  Uiso   1.00
C687   C     0.21235   0.64630   0.72809   0.00000  Uiso   1.00
C688   C     0.14127   0.49686   0.84974   0.00000  Uiso   1.00
C689   C     0.21126   0.35564   0.72933   0.00000  Uiso   1.00
C690   C     0.16688   0.37628   0.74827   0.00000  Uiso   1.00
C691   C     0.12314   0.35432   0.76565   0.00000  Uiso   1.00
C692   C     0.12384   0.64508   0.76533   0.00000  Uiso   1.00
C693   C     0.16823   0.62404   0.74718   0.00000  Uiso   1.00
C694   C     0.30113   0.52712   0.78053   0.00000  Uiso   1.00
C695   C     0.01717   0.52675   0.78060   0.00000  Uiso   1.00
C696   C     0.14615   0.49722   0.98981   0.00000  Uiso   1.00
C697   C     0.03281   0.47326   0.71917   0.00000  Uiso   1.00
C698   C     0.31652   0.47321   0.71925   0.00000  Uiso   1.00
C699   C     0.16661   0.42077   0.74960   0.00000  Uiso   1.00
C700   C     0.19245   0.50111   0.65059   0.00000  Uiso   1.00
C701   C     0.26237   0.53069   0.51657   0.00000  Uiso   1.00
C702   C     0.20652   0.50610   0.59520   0.00000  Uiso   1.00
C703   C     0.07876   0.48422   0.93244   0.00000  Uiso   1.00
C704   C     0.06279   0.48545   0.98575   0.00000  Uiso   1.00
C705   C     0.09484   0.49523   0.51442   0.00000  Uiso   1.00
C706   C     0.25889   0.62665   0.70544   0.00000  Uiso   1.00
C707   C     0.16281   0.49382   0.93513   0.00000  Uiso   1.00
C708   C     0.18186   0.50374   0.51673   0.00000  Uiso   1.00
C709   C     0.22988   0.51637   0.98966   0.00000  Uiso   1.00
C710   C     0.24587   0.50992   0.93691   0.00000  Uiso   1.00
C711   C     0.21394   0.49423   0.91154   0.00000  Uiso   1.00
C712   C     0.17295   0.49496   0.56875   0.00000  Uiso   1.00
C713   C     0.25039   0.52554   0.56956   0.00000  Uiso   1.00
Cl714  Cl    0.26335   0.56392   0.82036   0.00000  Uiso   1.00
Cl715  Cl    0.31631   0.55772   0.98569   0.00000  Uiso   1.00
Cl716  Cl    0.06616   0.51197   0.57816   0.00000  Uiso   1.00
Cu717  Cu    0.11978   0.49999   0.75000   0.00000  Uiso   1.00
Cu718  Cu    0.21355   0.50001   0.75000   0.00000  Uiso   1.00
H719   H     0.27519   0.53659   0.59054   0.00000  Uiso   1.00
H720   H     0.05185   0.47988   0.91162   0.00000  Uiso   1.00
H721   H     0.02416   0.48200   0.50481   0.00000  Uiso   1.00
H722   H     0.23133   0.48168   0.87401   0.00000  Uiso   1.00
H723   H     0.24503   0.37282   0.71474   0.00000  Uiso   1.00
H724   H     0.08858   0.37004   0.78036   0.00000  Uiso   1.00
H725   H     0.08963   0.62862   0.78001   0.00000  Uiso   1.00
H726   H     0.02984   0.54813   0.80502   0.00000  Uiso   1.00
H727   H     0.05793   0.45185   0.69443   0.00000  Uiso   1.00
H728   H     0.30428   0.45178   0.69459   0.00000  Uiso   1.00
H729   H     0.28408   0.51320   0.91578   0.00000  Uiso   1.00
H730   H     0.14120   0.47731   0.58868   0.00000  Uiso   1.00
N731   N     0.04931   0.49999   0.74998   0.00000  Uiso   1.00
N732   N     0.28402   0.50002   0.74999   0.00000  Uiso   1.00
N733   N     0.29616   0.61097   0.68727   0.00000  Uiso   1.00
O734   O     0.12708   0.56011   0.75000   0.00000  Uiso   1.00
O735   O     0.20627   0.56012   0.75000   0.00000  Uiso   1.00
O736   O     0.10775   0.49998   0.82549   0.00000  Uiso   1.00
O737   O     0.18694   0.49999   0.82549   0.00000  Uiso   1.00
O738   O     0.12706   0.43988   0.74999   0.00000  Uiso   1.00
O739   O     0.20625   0.43989   0.74999   0.00000  Uiso   1.00
O740   O     0.14640   0.50001   0.67451   0.00000  Uiso   1.00
O741   O     0.22559   0.50002   0.67451   0.00000  Uiso   1.00
C742   C     0.50059   0.57929   0.74881   0.00000  Uiso   1.00
C743   C     0.46130   0.49088   0.90628   0.00000  Uiso   1.00
C744   C     0.54568   0.64630   0.72809   0.00000  Uiso   1.00
C745   C     0.47460   0.49686   0.84974   0.00000  Uiso   1.00
C746   C     0.54459   0.35564   0.72933   0.00000  Uiso   1.00
C747   C     0.50022   0.37628   0.74827   0.00000  Uiso   1.00
C748   C     0.45648   0.35432   0.76565   0.00000  Uiso   1.00
C749   C     0.45718   0.64508   0.76533   0.00000  Uiso   1.00
C750   C     0.50156   0.62404   0.74718   0.00000  Uiso   1.00
C751   C     0.63446   0.52712   0.78053   0.00000  Uiso   1.00
C752   C     0.35050   0.52675   0.78060   0.00000  Uiso   1.00
C753   C     0.47949   0.49722   0.98981   0.00000  Uiso   1.00
C754   C     0.36614   0.47326   0.71917   0.00000  Uiso   1.00
C755   C     0.64985   0.47321   0.71925   0.00000  Uiso   1.00
C756   C     0.49994   0.42077   0.74960   0.00000  Uiso   1.00
C757   C     0.52578   0.50111   0.65059   0.00000  Uiso   1.00
C758   C     0.59570   0.53069   0.51657   0.00000  Uiso   1.00
C759   C     0.53985   0.50610   0.59520   0.00000  Uiso   1.00
C760   C     0.41209   0.48422   0.93244   0.00000  Uiso   1.00
C761   C     0.39613   0.48545   0.98575   0.00000  Uiso   1.00
C762   C     0.42817   0.49523   0.51442   0.00000  Uiso   1.00
C763   C     0.59222   0.62665   0.70544   0.00000  Uiso   1.00
C764   C     0.49614   0.49382   0.93513   0.00000  Uiso   1.00
C765   C     0.51520   0.50374   0.51673   0.00000  Uiso   1.00
C766   C     0.56321   0.51637   0.98966   0.00000  Uiso   1.00
C767   C     0.57920   0.50992   0.93691   0.00000  Uiso   1.00
C768   C     0.54727   0.49423   0.91154   0.00000  Uiso   1.00
C769   C     0.50629   0.49496   0.56875   0.00000  Uiso   1.00
C770   C     0.58373   0.52554   0.56956   0.00000  Uiso   1.00
Cl771  Cl    0.59668   0.56392   0.82036   0.00000  Uiso   1.00
Cl772  Cl    0.64964   0.55772   0.98569   0.00000  Uiso   1.00
Cl773  Cl    0.39950   0.51197   0.57816   0.00000  Uiso   1.00
Cu774  Cu    0.45311   0.49999   0.75000   0.00000  Uiso   1.00
Cu775  Cu    0.54689   0.50001   0.75000   0.00000  Uiso   1.00
H776   H     0.60852   0.53659   0.59054   0.00000  Uiso   1.00
H777   H     0.38518   0.47988   0.91162   0.00000  Uiso   1.00
H778   H     0.35750   0.48200   0.50481   0.00000  Uiso   1.00
H779   H     0.56466   0.48168   0.87401   0.00000  Uiso   1.00
H780   H     0.57836   0.37282   0.71474   0.00000  Uiso   1.00
H781   H     0.42192   0.37004   0.78036   0.00000  Uiso   1.00
H782   H     0.42297   0.62862   0.78001   0.00000  Uiso   1.00
H783   H     0.36318   0.54813   0.80502   0.00000  Uiso   1.00
H784   H     0.39126   0.45185   0.69443   0.00000  Uiso   1.00
H785   H     0.63762   0.45178   0.69459   0.00000  Uiso   1.00
H786   H     0.61741   0.51320   0.91578   0.00000  Uiso   1.00
H787   H     0.47453   0.47731   0.58868   0.00000  Uiso   1.00
N788   N     0.38265   0.49999   0.74998   0.00000  Uiso   1.00
N789   N     0.61735   0.50002   0.74999   0.00000  Uiso   1.00
N790   N     0.62950   0.61097   0.68727   0.00000  Uiso   1.00
O791   O     0.46042   0.56011   0.75000   0.00000  Uiso   1.00
O792   O     0.53961   0.56012   0.75000   0.00000  Uiso   1.00
O793   O     0.44108   0.49998   0.82549   0.00000  Uiso   1.00
O794   O     0.52027   0.49999   0.82549   0.00000  Uiso   1.00
O795   O     0.46039   0.43988   0.74999   0.00000  Uiso   1.00
O796   O     0.53958   0.43989   0.74999   0.00000  Uiso   1.00
O797   O     0.47973   0.50001   0.67451   0.00000  Uiso   1.00
O798   O     0.55892   0.50002   0.67451   0.00000  Uiso   1.00
C799   C     0.83393   0.57929   0.74881   0.00000  Uiso   1.00
C800   C     0.79463   0.49088   0.90628   0.00000  Uiso   1.00
C801   C     0.87901   0.64630   0.72809   0.00000  Uiso   1.00
C802   C     0.80794   0.49686   0.84974   0.00000  Uiso   1.00
C803   C     0.87792   0.35564   0.72933   0.00000  Uiso   1.00
C804   C     0.83355   0.37628   0.74827   0.00000  Uiso   1.00
C805   C     0.78981   0.35432   0.76565   0.00000  Uiso   1.00
C806   C     0.79051   0.64508   0.76533   0.00000  Uiso   1.00
C807   C     0.83489   0.62404   0.74718   0.00000  Uiso   1.00
C808   C     0.96779   0.52712   0.78053   0.00000  Uiso   1.00
C809   C     0.68384   0.52675   0.78060   0.00000  Uiso   1.00
C810   C     0.81282   0.49722   0.98981   0.00000  Uiso   1.00
C811   C     0.69947   0.47326   0.71917   0.00000  Uiso   1.00
C812   C     0.98319   0.47321   0.71925   0.00000  Uiso   1.00
C813   C     0.83327   0.42077   0.74960   0.00000  Uiso   1.00
C814   C     0.85912   0.50111   0.65059   0.00000  Uiso   1.00
C815   C     0.92904   0.53069   0.51657   0.00000  Uiso   1.00
C816   C     0.87318   0.50610   0.59520   0.00000  Uiso   1.00
C817   C     0.74542   0.48422   0.93244   0.00000  Uiso   1.00
C818   C     0.72946   0.48545   0.98575   0.00000  Uiso   1.00
C819   C     0.76150   0.49523   0.51442   0.00000  Uiso   1.00
C820   C     0.92556   0.62665   0.70544   0.00000  Uiso   1.00
C821   C     0.82947   0.49382   0.93513   0.00000  Uiso   1.00
C822   C     0.84853   0.50374   0.51673   0.00000  Uiso   1.00
C823   C     0.89654   0.51637   0.98966   0.00000  Uiso   1.00
C824   C     0.91254   0.50992   0.93691   0.00000  Uiso   1.00
C825   C     0.88061   0.49423   0.91154   0.00000  Uiso   1.00
C826   C     0.83962   0.49496   0.56875   0.00000  Uiso   1.00
C827   C     0.91706   0.52554   0.56956   0.00000  Uiso   1.00
Cl828  Cl    0.93002   0.56392   0.82036   0.00000  Uiso   1.00
Cl829  Cl    0.98298   0.55772   0.98569   0.00000  Uiso   1.00
Cl830  Cl    0.73283   0.51197   0.57816   0.00000  Uiso   1.00
Cu831  Cu    0.78645   0.49999   0.75000   0.00000  Uiso   1.00
Cu832  Cu    0.88022   0.50001   0.75000   0.00000  Uiso   1.00
H833   H     0.94185   0.53659   0.59054   0.00000  Uiso   1.00
H834   H     0.71852   0.47988   0.91162   0.00000  Uiso   1.00
H835   H     0.69083   0.48200   0.50481   0.00000  Uiso   1.00
H836   H     0.89799   0.48168   0.87401   0.00000  Uiso   1.00
H837   H     0.91169   0.37282   0.71474   0.00000  Uiso   1.00
H838   H     0.75525   0.37004   0.78036   0.00000  Uiso   1.00
H839   H     0.75630   0.62862   0.78001   0.00000  Uiso   1.00
H840   H     0.69651   0.54813   0.80502   0.00000  Uiso   1.00
H841   H     0.72460   0.45185   0.69443   0.00000  Uiso   1.00
H842   H     0.97095   0.45178   0.69459   0.00000  Uiso   1.00
H843   H     0.95074   0.51320   0.91578   0.00000  Uiso   1.00
H844   H     0.80786   0.47731   0.58868   0.00000  Uiso   1.00
N845   N     0.71598   0.49999   0.74998   0.00000  Uiso   1.00
N846   N     0.95069   0.50002   0.74999   0.00000  Uiso   1.00
N847   N     0.96283   0.61097   0.68727   0.00000  Uiso   1.00
O848   O     0.79375   0.56011   0.75000   0.00000  Uiso   1.00
O849   O     0.87294   0.56012   0.75000   0.00000  Uiso   1.00
O850   O     0.77441   0.49998   0.82549   0.00000  Uiso   1.00
O851   O     0.85360   0.49999   0.82549   0.00000  Uiso   1.00
O852   O     0.79373   0.43988   0.74999   0.00000  Uiso   1.00
O853   O     0.87292   0.43989   0.74999   0.00000  Uiso   1.00
O854   O     0.81306   0.50001   0.67451   0.00000  Uiso   1.00
O855   O     0.89225   0.50002   0.67451   0.00000  Uiso   1.00
C856   C     0.16726   0.91263   0.74881   0.00000  Uiso   1.00
C857   C     0.12797   0.82421   0.90628   0.00000  Uiso   1.00
C858   C     0.21235   0.97963   0.72809   0.00000  Uiso   1.00
C859   C     0.14127   0.83019   0.84974   0.00000  Uiso   1.00
C860   C     0.21126   0.68898   0.72933   0.00000  Uiso   1.00
C861   C     0.16688   0.70961   0.74827   0.00000  Uiso   1.00
C862   C     0.12314   0.68765   0.76565   0.00000  Uiso   1.00
C863   C     0.12384   0.97841   0.76533   0.00000  Uiso   1.00
C864   C     0.16823   0.95737   0.74718   0.00000  Uiso   1.00
C865   C     0.30113   0.86046   0.78053   0.00000  Uiso   1.00
C866   C     0.01717   0.86009   0.78060   0.00000  Uiso   1.00
C867   C     0.14615   0.83056   0.98981   0.00000  Uiso   1.00
C868   C     0.03281   0.80659   0.71917   0.00000  Uiso   1.00
C869   C     0.31652   0.80655   0.71925   0.00000  Uiso   1.00
C870   C     0.16661   0.75410   0.74960   0.00000  Uiso   1.00
C871   C     0.19245   0.83445   0.65059   0.00000  Uiso   1.00
C872   C     0.26237   0.86403   0.51657   0.00000  Uiso   1.00
C873   C     0.20652   0.83943   0.59520   0.00000  Uiso   1.00
C874   C     0.07876   0.81756   0.93244   0.00000  Uiso   1.00
C875   C     0.06279   0.81878   0.98575   0.00000  Uiso   1.00
C876   C     0.09484   0.82856   0.51442   0.00000  Uiso   1.00
C877   C     0.25889   0.95998   0.70544   0.00000  Uiso   1.00
C878   C     0.16281   0.82715   0.93513   0.00000  Uiso   1.00
C879   C     0.18186   0.83707   0.51673   0.00000  Uiso   1.00
C880   C     0.22988   0.84970   0.98966   0.00000  Uiso   1.00
C881   C     0.24587   0.84325   0.93691   0.00000  Uiso   1.00
C882   C     0.21394   0.82756   0.91154   0.00000  Uiso   1.00
C883   C     0.17295   0.82829   0.56875   0.00000  Uiso   1.00
C884   C     0.25039   0.85888   0.56956   0.00000  Uiso   1.00
Cl885  Cl    0.26335   0.89725   0.82036   0.00000  Uiso   1.00
Cl886  Cl    0.31631   0.89106   0.98569   0.00000  Uiso   1.00
Cl887  Cl    0.06616   0.84531   0.57816   0.00000  Uiso   1.00
Cu888  Cu    0.11978   0.83333   0.75000   0.00000  Uiso   1.00
Cu889  Cu    0.21355   0.83334   0.75000   0.00000  Uiso   1.00
H890   H     0.27519   0.86993   0.59054   0.00000  Uiso   1.00
H891   H     0.05185   0.81321   0.91162   0.00000  Uiso   1.00
H892   H     0.02416   0.81533   0.50481   0.00000  Uiso   1.00
H893   H     0.23133   0.81501   0.87401   0.00000  Uiso   1.00
H894   H     0.24503   0.70616   0.71474   0.00000  Uiso   1.00
H895   H     0.08858   0.70337   0.78036   0.00000  Uiso   1.00
H896   H     0.08963   0.96196   0.78001   0.00000  Uiso   1.00
H897   H     0.02984   0.88146   0.80502   0.00000  Uiso   1.00
H898   H     0.05793   0.78518   0.69443   0.00000  Uiso   1.00
H899   H     0.30428   0.78511   0.69459   0.00000  Uiso   1.00
H900   H     0.28408   0.84653   0.91578   0.00000  Uiso   1.00
H901   H     0.14120   0.81064   0.58868   0.00000  Uiso   1.00
N902   N     0.04931   0.83332   0.74998   0.00000  Uiso   1.00
N903   N     0.28402   0.83335   0.74999   0.00000  Uiso   1.00
N904   N     0.29616   0.94431   0.68727   0.00000  Uiso   1.00
O905   O     0.12708   0.89345   0.75000   0.00000  Uiso   1.00
O906   O     0.20627   0.89346   0.75000   0.00000  Uiso   1.00
O907   O     0.10775   0.83332   0.82549   0.00000  Uiso   1.00
O908   O     0.18694   0.83333   0.82549   0.00000  Uiso   1.00
O909   O     0.12706   0.77321   0.74999   0.00000  Uiso   1.00
O910   O     0.20625   0.77322   0.74999   0.00000  Uiso   1.00
O911   O     0.14640   0.83334   0.67451   0.00000  Uiso   1.00
O912   O     0.22559   0.83335   0.67451   0.00000  Uiso   1.00
C913   C     0.50059   0.91263   0.74881   0.00000  Uiso   1.00
C914   C     0.46130   0.82421   0.90628   0.00000  Uiso   1.00
C915   C     0.54568   0.97963   0.72809   0.00000  Uiso   1.00
C916   C     0.47460   0.83019   0.84974   0.00000  Uiso   1.00
C917   C     0.54459   0.68898   0.72933   0.00000  Uiso   1.00
C918   C     0.50022   0.70961   0.74827   0.00000  Uiso   1.00
C919   C     0.45648   0.68765   0.76565   0.00000  Uiso   1.00
C920   C     0.45718   0.97841   0.76533   0.00000  Uiso   1.00
C921   C     0.50156   0.95737   0.74718   0.00000  Uiso   1.00
C922   C     0.63446   0.86046   0.78053   0.00000  Uiso   1.00
C923   C     0.35050   0.86009   0.78060   0.00000  Uiso   1.00
C924   C     0.47949   0.83056   0.98981   0.00000  Uiso   1.00
C925   C     0.36614   0.80659   0.71917   0.00000  Uiso   1.00
C926   C     0.64985   0.80655   0.71925   0.00000  Uiso   1.00
C927   C     0.49994   0.75410   0.74960   0.00000  Uiso   1.00
C928   C     0.52578   0.83445   0.65059   0.00000  Uiso   1.00
C929   C     0.59570   0.86403   0.51657   0.00000  Uiso   1.00
C930   C     0.53985   0.83943   0.59520   0.00000  Uiso   1.00
C931   C     0.41209   0.81756   0.93244   0.00000  Uiso   1.00
C932   C     0.39613   0.81878   0.98575   0.00000  Uiso   1.00
C933   C     0.42817   0.82856   0.51442   0.00000  Uiso   1.00
C934   C     0.59222   0.95998   0.70544   0.00000  Uiso   1.00
C935   C     0.49614   0.82715   0.93513   0.00000  Uiso   1.00
C936   C     0.51520   0.83707   0.51673   0.00000  Uiso   1.00
C937   C     0.56321   0.84970   0.98966   0.00000  Uiso   1.00
C938   C     0.57920   0.84325   0.93691   0.00000  Uiso   1.00
C939   C     0.54727   0.82756   0.91154   0.00000  Uiso   1.00
C940   C     0.50629   0.82829   0.56875   0.00000  Uiso   1.00
C941   C     0.58373   0.85888   0.56956   0.00000  Uiso   1.00
Cl942  Cl    0.59668   0.89725   0.82036   0.00000  Uiso   1.00
Cl943  Cl    0.64964   0.89106   0.98569   0.00000  Uiso   1.00
Cl944  Cl    0.39950   0.84531   0.57816   0.00000  Uiso   1.00
Cu945  Cu    0.45311   0.83333   0.75000   0.00000  Uiso   1.00
Cu946  Cu    0.54689   0.83334   0.75000   0.00000  Uiso   1.00
H947   H     0.60852   0.86993   0.59054   0.00000  Uiso   1.00
H948   H     0.38518   0.81321   0.91162   0.00000  Uiso   1.00
H949   H     0.35750   0.81533   0.50481   0.00000  Uiso   1.00
H950   H     0.56466   0.81501   0.87401   0.00000  Uiso   1.00
H951   H     0.57836   0.70616   0.71474   0.00000  Uiso   1.00
H952   H     0.42192   0.70337   0.78036   0.00000  Uiso   1.00
H953   H     0.42297   0.96196   0.78001   0.00000  Uiso   1.00
H954   H     0.36318   0.88146   0.80502   0.00000  Uiso   1.00
H955   H     0.39126   0.78518   0.69443   0.00000  Uiso   1.00
H956   H     0.63762   0.78511   0.69459   0.00000  Uiso   1.00
H957   H     0.61741   0.84653   0.91578   0.00000  Uiso   1.00
H958   H     0.47453   0.81064   0.58868   0.00000  Uiso   1.00
N959   N     0.38265   0.83332   0.74998   0.00000  Uiso   1.00
N960   N     0.61735   0.83335   0.74999   0.00000  Uiso   1.00
N961   N     0.62950   0.94431   0.68727   0.00000  Uiso   1.00
O962   O     0.46042   0.89345   0.75000   0.00000  Uiso   1.00
O963   O     0.53961   0.89346   0.75000   0.00000  Uiso   1.00
O964   O     0.44108   0.83332   0.82549   0.00000  Uiso   1.00
O965   O     0.52027   0.83333   0.82549   0.00000  Uiso   1.00
O966   O     0.46039   0.77321   0.74999   0.00000  Uiso   1.00
O967   O     0.53958   0.77322   0.74999   0.00000  Uiso   1.00
O968   O     0.47973   0.83334   0.67451   0.00000  Uiso   1.00
O969   O     0.55892   0.83335   0.67451   0.00000  Uiso   1.00
C970   C     0.83393   0.91263   0.74881   0.00000  Uiso   1.00
C971   C     0.79463   0.82421   0.90628   0.00000  Uiso   1.00
C972   C     0.87901   0.97963   0.72809   0.00000  Uiso   1.00
C973   C     0.80794   0.83019   0.84974   0.00000  Uiso   1.00
C974   C     0.87792   0.68898   0.72933   0.00000  Uiso   1.00
C975   C     0.83355   0.70961   0.74827   0.00000  Uiso   1.00
C976   C     0.78981   0.68765   0.76565   0.00000  Uiso   1.00
C977   C     0.79051   0.97841   0.76533   0.00000  Uiso   1.00
C978   C     0.83489   0.95737   0.74718   0.00000  Uiso   1.00
C979   C     0.96779   0.86046   0.78053   0.00000  Uiso   1.00
C980   C     0.68384   0.86009   0.78060   0.00000  Uiso   1.00
C981   C     0.81282   0.83056   0.98981   0.00000  Uiso   1.00
C982   C     0.69947   0.80659   0.71917   0.00000  Uiso   1.00
C983   C     0.98319   0.80655   0.71925   0.00000  Uiso   1.00
C984   C     0.83327   0.75410   0.74960   0.00000  Uiso   1.00
C985   C     0.85912   0.83445   0.65059   0.00000  Uiso   1.00
C986   C     0.92904   0.86403   0.51657   0.00000  Uiso   1.00
C987   C     0.87318   0.83943   0.59520   0.00000  Uiso   1.00
C988   C     0.74542   0.81756   0.93244   0.00000  Uiso   1.00
C989   C     0.72946   0.81878   0.98575   0.00000  Uiso   1.00
C990   C     0.76150   0.82856   0.51442   0.00000  Uiso   1.00
C991   C     0.92556   0.95998   0.70544   0.00000  Uiso   1.00
C992   C     0.82947   0.82715   0.93513   0.00000  Uiso   1.00
C993   C     0.84853   0.83707   0.51673   0.00000  Uiso   1.00
C994   C     0.89654   0.84970   0.98966   0.00000  Uiso   1.00
C995   C     0.91254   0.84325   0.93691   0.00000  Uiso   1.00
C996   C     0.88061   0.82756   0.91154   0.00000  Uiso   1.00
C997   C     0.83962   0.82829   0.56875   0.00000  Uiso   1.00
C998   C     0.91706   0.85888   0.56956   0.00000  Uiso   1.00
Cl999  Cl    0.93002   0.89725   0.82036   0.00000  Uiso   1.00
Cl1000 Cl    0.98298   0.89106   0.98569   0.00000  Uiso   1.00
Cl1001 Cl    0.73283   0.84531   0.57816   0.00000  Uiso   1.00
Cu1002 Cu    0.78645   0.83333   0.75000   0.00000  Uiso   1.00
Cu1003 Cu    0.88022   0.83334   0.75000   0.00000  Uiso   1.00
H1004  H     0.94185   0.86993   0.59054   0.00000  Uiso   1.00
H1005  H     0.71852   0.81321   0.91162   0.00000  Uiso   1.00
H1006  H     0.69083   0.81533   0.50481   0.00000  Uiso   1.00
H1007  H     0.89799   0.81501   0.87401   0.00000  Uiso   1.00
H1008  H     0.91169   0.70616   0.71474   0.00000  Uiso   1.00
H1009  H     0.75525   0.70337   0.78036   0.00000  Uiso   1.00
H1010  H     0.75630   0.96196   0.78001   0.00000  Uiso   1.00
H1011  H     0.69651   0.88146   0.80502   0.00000  Uiso   1.00
H1012  H     0.72460   0.78518   0.69443   0.00000  Uiso   1.00
H1013  H     0.97095   0.78511   0.69459   0.00000  Uiso   1.00
H1014  H     0.95074   0.84653   0.91578   0.00000  Uiso   1.00
H1015  H     0.80786   0.81064   0.58868   0.00000  Uiso   1.00
N1016  N     0.71598   0.83332   0.74998   0.00000  Uiso   1.00
N1017  N     0.95069   0.83335   0.74999   0.00000  Uiso   1.00
N1018  N     0.96283   0.94431   0.68727   0.00000  Uiso   1.00
O1019  O     0.79375   0.89345   0.75000   0.00000  Uiso   1.00
O1020  O     0.87294   0.89346   0.75000   0.00000  Uiso   1.00
O1021  O     0.77441   0.83332   0.82549   0.00000  Uiso   1.00
O1022  O     0.85360   0.83333   0.82549   0.00000  Uiso   1.00
O1023  O     0.79373   0.77321   0.74999   0.00000  Uiso   1.00
O1024  O     0.87292   0.77322   0.74999   0.00000  Uiso   1.00
O1025  O     0.81306   0.83334   0.67451   0.00000  Uiso   1.00
O1026  O     0.89225   0.83335   0.67451   0.00000  Uiso   1.00
loop_
_geom_bond_atom_site_label_1
_geom_bond_atom_site_label_2
_geom_bond_distance
_geom_bond_site_symmetry_2
_ccdc_geom_bond_type
C1     O50     1.294   .     A
C1     O51     1.291   .     A
C1     C9      1.455   .     S
C2     C4      1.485   .     S
C2     C23     1.433   .     A
C2     C19     1.399   .     A
C3     C9      1.415   .     A
C3     C22     1.446   .     S
C3     C176    1.387   .     S
C4     O53     1.287   .     A
C4     O52     1.313   .     A
C5     H39     1.085   .     S
C5     C6      1.398   .     A
C5     C345    1.387   1_545 S
C6     C7      1.397   .     A
C6     C15     1.445   .     S
C7     H40     1.083   .     S
C7     C350    1.383   1_545 S
C8     H41     1.084   .     S
C8     C9      1.403   .     A
C8     C178    1.383   .     S
C10    N48     1.379   .     A
C10    Cl30    1.756   .     S
C10    C68     1.412   .     S
C11    N47     1.359   .     A
C11    H42     1.082   .     S
C11    C124    1.412   1_455 S
C12    C23     1.424   .     A
C12    C534    1.429   .     S
C12    C537    1.427   .     S
C13    H43     1.082   .     S
C13    N47     1.368   .     A
C13    C128    1.418   1_455 S
C14    H44     1.082   .     S
C14    N48     1.367   .     A
C14    C70     1.418   .     S
C15    O54     1.292   .     A
C15    O55     1.290   .     A
C16    O56     1.291   .     A
C16    O57     1.293   .     A
C16    C18     1.450   .     S
C17    C29     1.391   .     A
C17    C538    1.407   1_554 S
C17    Cl544   1.763   1_554 S
C18    C29     1.398   .     A
C18    C28     1.395   .     A
C19    C20     1.386   .     A
C19    H36     1.083   .     S
C20    C534    1.392   .     S
C20    H550    1.083   .     S
C21    Cl32    1.768   .     S
C21    C533    1.392   1_554 S
C21    C525    1.429   1_554 S
C22    N49     1.158   .     T
C23    C27     1.418   .     A
C24    C28     1.393   .     A
C24    C525    1.427   1_554 S
C24    C538    1.419   1_554 S
C25    C26     1.385   .     A
C25    C530    1.407   .     S
C25    C537    1.419   .     S
C26    C27     1.380   .     A
C26    H45     1.084   .     S
C27    H38     1.073   .     S
C28    H46     1.079   .     S
C29    H35     1.084   .     S
Cl31   C530    1.763   .     S
Cu33   O56     1.969   .     S
Cu33   Cu34    2.680   .     S
Cu33   O52     1.976   .     S
Cu33   O54     1.966   .     S
Cu33   N47     2.014   .     S
Cu33   O50     1.962   .     S
Cu34   O57     1.976   .     S
Cu34   O55     1.962   .     S
Cu34   N48     2.014   .     S
Cu34   O53     1.969   .     S
Cu34   O51     1.966   .     S
H37    C533    1.083   1_554 S
C58    O107    1.294   .     A
C58    O108    1.291   .     A
C58    C66     1.455   .     S
C59    C61     1.485   .     S
C59    C80     1.433   .     A
C59    C76     1.399   .     A
C60    C66     1.415   .     A
C60    C79     1.446   .     S
C60    C233    1.387   .     S
C61    O110    1.287   .     A
C61    O109    1.313   .     A
C62    H96     1.085   .     S
C62    C63     1.398   .     A
C62    C402    1.387   1_545 S
C63    C64     1.397   .     A
C63    C72     1.445   .     S
C64    H97     1.083   .     S
C64    C407    1.383   1_545 S
C65    H98     1.084   .     S
C65    C66     1.403   .     A
C65    C235    1.383   .     S
C67    N105    1.379   .     A
C67    Cl87    1.756   .     S
C67    C125    1.412   .     S
C68    N104    1.359   .     A
C68    H99     1.082   .     S
C69    C80     1.424   .     A
C69    C591    1.429   .     S
C69    C594    1.427   .     S
C70    H100    1.082   .     S
C70    N104    1.368   .     A
C71    H101    1.082   .     S
C71    N105    1.367   .     A
C71    C127    1.418   .     S
C72    O111    1.292   .     A
C72    O112    1.290   .     A
C73    O113    1.291   .     A
C73    O114    1.293   .     A
C73    C75     1.450   .     S
C74    C86     1.391   .     A
C74    C595    1.407   1_554 S
C74    Cl601   1.763   1_554 S
C75    C86     1.398   .     A
C75    C85     1.395   .     A
C76    C77     1.386   .     A
C76    H93     1.083   .     S
C77    C591    1.392   .     S
C77    H607    1.083   .     S
C78    Cl89    1.768   .     S
C78    C590    1.392   1_554 S
C78    C582    1.429   1_554 S
C79    N106    1.158   .     T
C80    C84     1.418   .     A
C81    C85     1.393   .     A
C81    C582    1.427   1_554 S
C81    C595    1.419   1_554 S
C82    C83     1.385   .     A
C82    C587    1.407   .     S
C82    C594    1.419   .     S
C83    C84     1.380   .     A
C83    H102    1.084   .     S
C84    H95     1.073   .     S
C85    H103    1.079   .     S
C86    H92     1.084   .     S
Cl88   C587    1.763   .     S
Cu90   O113    1.969   .     S
Cu90   Cu91    2.680   .     S
Cu90   O109    1.976   .     S
Cu90   O111    1.966   .     S
Cu90   N104    2.014   .     S
Cu90   O107    1.962   .     S
Cu91   O114    1.976   .     S
Cu91   O112    1.962   .     S
Cu91   N105    2.014   .     S
Cu91   O110    1.969   .     S
Cu91   O108    1.966   .     S
H94    C590    1.083   1_554 S
C115   O164    1.294   .     A
C115   O165    1.291   .     A
C115   C123    1.455   .     S
C116   C118    1.485   .     S
C116   C137    1.433   .     A
C116   C133    1.399   .     A
C117   C123    1.415   .     A
C117   C136    1.446   .     S
C117   C290    1.387   .     S
C118   O167    1.287   .     A
C118   O166    1.313   .     A
C119   H153    1.085   .     S
C119   C120    1.398   .     A
C119   C459    1.387   1_545 S
C120   C121    1.397   .     A
C120   C129    1.445   .     S
C121   H154    1.083   .     S
C121   C464    1.383   1_545 S
C122   H155    1.084   .     S
C122   C123    1.403   .     A
C122   C292    1.383   .     S
C124   N162    1.379   .     A
C124   Cl144   1.756   .     S
C124   C11     1.412   1_655 S
C125   N161    1.359   .     A
C125   H156    1.082   .     S
C126   C137    1.424   .     A
C126   C648    1.429   .     S
C126   C651    1.427   .     S
C127   H157    1.082   .     S
C127   N161    1.368   .     A
C128   H158    1.082   .     S
C128   N162    1.367   .     A
C128   C13     1.418   1_655 S
C129   O168    1.292   .     A
C129   O169    1.290   .     A
C130   O170    1.291   .     A
C130   O171    1.293   .     A
C130   C132    1.450   .     S
C131   C143    1.391   .     A
C131   C652    1.407   1_554 S
C131   Cl658   1.763   1_554 S
C132   C143    1.398   .     A
C132   C142    1.395   .     A
C133   C134    1.386   .     A
C133   H150    1.083   .     S
C134   C648    1.392   .     S
C134   H664    1.083   .     S
C135   Cl146   1.768   .     S
C135   C647    1.392   1_554 S
C135   C639    1.429   1_554 S
C136   N163    1.158   .     T
C137   C141    1.418   .     A
C138   C142    1.393   .     A
C138   C639    1.427   1_554 S
C138   C652    1.419   1_554 S
C139   C140    1.385   .     A
C139   C644    1.407   .     S
C139   C651    1.419   .     S
C140   C141    1.380   .     A
C140   H159    1.084   .     S
C141   H152    1.073   .     S
C142   H160    1.079   .     S
C143   H149    1.084   .     S
Cl145  C644    1.763   .     S
Cu147  O170    1.969   .     S
Cu147  Cu148   2.680   .     S
Cu147  O166    1.976   .     S
Cu147  O168    1.966   .     S
Cu147  N161    2.014   .     S
Cu147  O164    1.962   .     S
Cu148  O171    1.976   .     S
Cu148  O169    1.962   .     S
Cu148  N162    2.014   .     S
Cu148  O167    1.969   .     S
Cu148  O165    1.966   .     S
H151   C647    1.083   1_554 S
C172   O221    1.294   .     A
C172   O222    1.291   .     A
C172   C180    1.455   .     S
C173   C175    1.485   .     S
C173   C194    1.433   .     A
C173   C190    1.399   .     A
C174   C180    1.415   .     A
C174   C193    1.446   .     S
C174   C347    1.387   .     S
C175   O224    1.287   .     A
C175   O223    1.313   .     A
C176   H210    1.085   .     S
C176   C177    1.398   .     A
C177   C178    1.397   .     A
C177   C186    1.445   .     S
C178   H211    1.083   .     S
C179   H212    1.084   .     S
C179   C180    1.403   .     A
C179   C349    1.383   .     S
C181   N219    1.379   .     A
C181   Cl201   1.756   .     S
C181   C239    1.412   .     S
C182   N218    1.359   .     A
C182   H213    1.082   .     S
C182   C295    1.412   1_455 S
C183   C194    1.424   .     A
C183   C705    1.429   .     S
C183   C708    1.427   .     S
C184   H214    1.082   .     S
C184   N218    1.368   .     A
C184   C299    1.418   1_455 S
C185   H215    1.082   .     S
C185   N219    1.367   .     A
C185   C241    1.418   .     S
C186   O225    1.292   .     A
C186   O226    1.290   .     A
C187   O227    1.291   .     A
C187   O228    1.293   .     A
C187   C189    1.450   .     S
C188   C200    1.391   .     A
C188   C709    1.407   1_554 S
C188   Cl715   1.763   1_554 S
C189   C200    1.398   .     A
C189   C199    1.395   .     A
C190   C191    1.386   .     A
C190   H207    1.083   .     S
C191   C705    1.392   .     S
C191   H721    1.083   .     S
C192   Cl203   1.768   .     S
C192   C704    1.392   1_554 S
C192   C696    1.429   1_554 S
C193   N220    1.158   .     T
C194   C198    1.418   .     A
C195   C199    1.393   .     A
C195   C696    1.427   1_554 S
C195   C709    1.419   1_554 S
C196   C197    1.385   .     A
C196   C701    1.407   .     S
C196   C708    1.419   .     S
C197   C198    1.380   .     A
C197   H216    1.084   .     S
C198   H209    1.073   .     S
C199   H217    1.079   .     S
C200   H206    1.084   .     S
Cl202  C701    1.763   .     S
Cu204  O227    1.969   .     S
Cu204  Cu205   2.680   .     S
Cu204  O223    1.976   .     S
Cu204  O225    1.966   .     S
Cu204  N218    2.014   .     S
Cu204  O221    1.962   .     S
Cu205  O228    1.976   .     S
Cu205  O226    1.962   .     S
Cu205  N219    2.014   .     S
Cu205  O224    1.969   .     S
Cu205  O222    1.966   .     S
H208   C704    1.083   1_554 S
C229   O278    1.294   .     A
C229   O279    1.291   .     A
C229   C237    1.455   .     S
C230   C232    1.485   .     S
C230   C251    1.433   .     A
C230   C247    1.399   .     A
C231   C237    1.415   .     A
C231   C250    1.446   .     S
C231   C404    1.387   .     S
C232   O281    1.287   .     A
C232   O280    1.313   .     A
C233   H267    1.085   .     S
C233   C234    1.398   .     A
C234   C235    1.397   .     A
C234   C243    1.445   .     S
C235   H268    1.083   .     S
C236   H269    1.084   .     S
C236   C237    1.403   .     A
C236   C406    1.383   .     S
C238   N276    1.379   .     A
C238   Cl258   1.756   .     S
C238   C296    1.412   .     S
C239   N275    1.359   .     A
C239   H270    1.082   .     S
C240   C251    1.424   .     A
C240   C762    1.429   .     S
C240   C765    1.427   .     S
C241   H271    1.082   .     S
C241   N275    1.368   .     A
C242   H272    1.082   .     S
C242   N276    1.367   .     A
C242   C298    1.418   .     S
C243   O282    1.292   .     A
C243   O283    1.290   .     A
C244   O284    1.291   .     A
C244   O285    1.293   .     A
C244   C246    1.450   .     S
C245   C257    1.391   .     A
C245   C766    1.407   1_554 S
C245   Cl772   1.763   1_554 S
C246   C257    1.398   .     A
C246   C256    1.395   .     A
C247   C248    1.386   .     A
C247   H264    1.083   .     S
C248   C762    1.392   .     S
C248   H778    1.083   .     S
C249   Cl260   1.768   .     S
C249   C761    1.392   1_554 S
C249   C753    1.429   1_554 S
C250   N277    1.158   .     T
C251   C255    1.418   .     A
C252   C256    1.393   .     A
C252   C753    1.427   1_554 S
C252   C766    1.419   1_554 S
C253   C254    1.385   .     A
C253   C758    1.407   .     S
C253   C765    1.419   .     S
C254   C255    1.380   .     A
C254   H273    1.084   .     S
C255   H266    1.073   .     S
C256   H274    1.079   .     S
C257   H263    1.084   .     S
Cl259  C758    1.763   .     S
Cu261  O284    1.969   .     S
Cu261  Cu262   2.680   .     S
Cu261  O280    1.976   .     S
Cu261  O282    1.966   .     S
Cu261  N275    2.014   .     S
Cu261  O278    1.962   .     S
Cu262  O285    1.976   .     S
Cu262  O283    1.962   .     S
Cu262  N276    2.014   .     S
Cu262  O281    1.969   .     S
Cu262  O279    1.966   .     S
H265   C761    1.083   1_554 S
C286   O335    1.294   .     A
C286   O336    1.291   .     A
C286   C294    1.455   .     S
C287   C289    1.485   .     S
C287   C308    1.433   .     A
C287   C304    1.399   .     A
C288   C294    1.415   .     A
C288   C307    1.446   .     S
C288   C461    1.387   .     S
C289   O338    1.287   .     A
C289   O337    1.313   .     A
C290   H324    1.085   .     S
C290   C291    1.398   .     A
C291   C292    1.397   .     A
C291   C300    1.445   .     S
C292   H325    1.083   .     S
C293   H326    1.084   .     S
C293   C294    1.403   .     A
C293   C463    1.383   .     S
C295   N333    1.379   .     A
C295   Cl315   1.756   .     S
C295   C182    1.412   1_655 S
C296   N332    1.359   .     A
C296   H327    1.082   .     S
C297   C308    1.424   .     A
C297   C819    1.429   .     S
C297   C822    1.427   .     S
C298   H328    1.082   .     S
C298   N332    1.368   .     A
C299   H329    1.082   .     S
C299   N333    1.367   .     A
C299   C184    1.418   1_655 S
C300   O339    1.292   .     A
C300   O340    1.290   .     A
C301   O341    1.291   .     A
C301   O342    1.293   .     A
C301   C303    1.450   .     S
C302   C314    1.391   .     A
C302   C823    1.407   1_554 S
C302   Cl829   1.763   1_554 S
C303   C314    1.398   .     A
C303   C313    1.395   .     A
C304   C305    1.386   .     A
C304   H321    1.083   .     S
C305   C819    1.392   .     S
C305   H835    1.083   .     S
C306   Cl317   1.768   .     S
C306   C818    1.392   1_554 S
C306   C810    1.429   1_554 S
C307   N334    1.158   .     T
C308   C312    1.418   .     A
C309   C313    1.393   .     A
C309   C810    1.427   1_554 S
C309   C823    1.419   1_554 S
C310   C311    1.385   .     A
C310   C815    1.407   .     S
C310   C822    1.419   .     S
C311   C312    1.380   .     A
C311   H330    1.084   .     S
C312   H323    1.073   .     S
C313   H331    1.079   .     S
C314   H320    1.084   .     S
Cl316  C815    1.763   .     S
Cu318  O341    1.969   .     S
Cu318  Cu319   2.680   .     S
Cu318  O337    1.976   .     S
Cu318  O339    1.966   .     S
Cu318  N332    2.014   .     S
Cu318  O335    1.962   .     S
Cu319  O342    1.976   .     S
Cu319  O340    1.962   .     S
Cu319  N333    2.014   .     S
Cu319  O338    1.969   .     S
Cu319  O336    1.966   .     S
H322   C818    1.083   1_554 S
C343   O392    1.294   .     A
C343   O393    1.291   .     A
C343   C351    1.455   .     S
C344   C346    1.485   .     S
C344   C365    1.433   .     A
C344   C361    1.399   .     A
C345   C351    1.415   .     A
C345   C364    1.446   .     S
C345   C5      1.387   1_565 S
C346   O395    1.287   .     A
C346   O394    1.313   .     A
C347   H381    1.085   .     S
C347   C348    1.398   .     A
C348   C349    1.397   .     A
C348   C357    1.445   .     S
C349   H382    1.083   .     S
C350   H383    1.084   .     S
C350   C351    1.403   .     A
C350   C7      1.383   1_565 S
C352   N390    1.379   .     A
C352   Cl372   1.756   .     S
C352   C410    1.412   .     S
C353   N389    1.359   .     A
C353   H384    1.082   .     S
C353   C466    1.412   1_455 S
C354   C365    1.424   .     A
C354   C876    1.429   .     S
C354   C879    1.427   .     S
C355   H385    1.082   .     S
C355   N389    1.368   .     A
C355   C470    1.418   1_455 S
C356   H386    1.082   .     S
C356   N390    1.367   .     A
C356   C412    1.418   .     S
C357   O396    1.292   .     A
C357   O397    1.290   .     A
C358   O398    1.291   .     A
C358   O399    1.293   .     A
C358   C360    1.450   .     S
C359   C371    1.391   .     A
C359   C880    1.407   1_554 S
C359   Cl886   1.763   1_554 S
C360   C371    1.398   .     A
C360   C370    1.395   .     A
C361   C362    1.386   .     A
C361   H378    1.083   .     S
C362   C876    1.392   .     S
C362   H892    1.083   .     S
C363   Cl374   1.768   .     S
C363   C875    1.392   1_554 S
C363   C867    1.429   1_554 S
C364   N391    1.158   .     T
C365   C369    1.418   .     A
C366   C370    1.393   .     A
C366   C867    1.427   1_554 S
C366   C880    1.419   1_554 S
C367   C368    1.385   .     A
C367   C872    1.407   .     S
C367   C879    1.419   .     S
C368   C369    1.380   .     A
C368   H387    1.084   .     S
C369   H380    1.073   .     S
C370   H388    1.079   .     S
C371   H377    1.084   .     S
Cl373  C872    1.763   .     S
Cu375  O398    1.969   .     S
Cu375  Cu376   2.680   .     S
Cu375  O394    1.976   .     S
Cu375  O396    1.966   .     S
Cu375  N389    2.014   .     S
Cu375  O392    1.962   .     S
Cu376  O399    1.976   .     S
Cu376  O397    1.962   .     S
Cu376  N390    2.014   .     S
Cu376  O395    1.969   .     S
Cu376  O393    1.966   .     S
H379   C875    1.083   1_554 S
C400   O449    1.294   .     A
C400   O450    1.291   .     A
C400   C408    1.455   .     S
C401   C403    1.485   .     S
C401   C422    1.433   .     A
C401   C418    1.399   .     A
C402   C408    1.415   .     A
C402   C421    1.446   .     S
C402   C62     1.387   1_565 S
C403   O452    1.287   .     A
C403   O451    1.313   .     A
C404   H438    1.085   .     S
C404   C405    1.398   .     A
C405   C406    1.397   .     A
C405   C414    1.445   .     S
C406   H439    1.083   .     S
C407   H440    1.084   .     S
C407   C408    1.403   .     A
C407   C64     1.383   1_565 S
C409   N447    1.379   .     A
C409   Cl429   1.756   .     S
C409   C467    1.412   .     S
C410   N446    1.359   .     A
C410   H441    1.082   .     S
C411   C422    1.424   .     A
C411   C933    1.429   .     S
C411   C936    1.427   .     S
C412   H442    1.082   .     S
C412   N446    1.368   .     A
C413   H443    1.082   .     S
C413   N447    1.367   .     A
C413   C469    1.418   .     S
C414   O453    1.292   .     A
C414   O454    1.290   .     A
C415   O455    1.291   .     A
C415   O456    1.293   .     A
C415   C417    1.450   .     S
C416   C428    1.391   .     A
C416   C937    1.407   1_554 S
C416   Cl943   1.763   1_554 S
C417   C428    1.398   .     A
C417   C427    1.395   .     A
C418   C419    1.386   .     A
C418   H435    1.083   .     S
C419   C933    1.392   .     S
C419   H949    1.083   .     S
C420   Cl431   1.768   .     S
C420   C932    1.392   1_554 S
C420   C924    1.429   1_554 S
C421   N448    1.158   .     T
C422   C426    1.418   .     A
C423   C427    1.393   .     A
C423   C924    1.427   1_554 S
C423   C937    1.419   1_554 S
C424   C425    1.385   .     A
C424   C929    1.407   .     S
C424   C936    1.419   .     S
C425   C426    1.380   .     A
C425   H444    1.084   .     S
C426   H437    1.073   .     S
C427   H445    1.079   .     S
C428   H434    1.084   .     S
Cl430  C929    1.763   .     S
Cu432  O455    1.969   .     S
Cu432  Cu433   2.680   .     S
Cu432  O451    1.976   .     S
Cu432  O453    1.966   .     S
Cu432  N446    2.014   .     S
Cu432  O449    1.962   .     S
Cu433  O456    1.976   .     S
Cu433  O454    1.962   .     S
Cu433  N447    2.014   .     S
Cu433  O452    1.969   .     S
Cu433  O450    1.966   .     S
H436   C932    1.083   1_554 S
C457   O506    1.294   .     A
C457   O507    1.291   .     A
C457   C465    1.455   .     S
C458   C460    1.485   .     S
C458   C479    1.433   .     A
C458   C475    1.399   .     A
C459   C465    1.415   .     A
C459   C478    1.446   .     S
C459   C119    1.387   1_565 S
C460   O509    1.287   .     A
C460   O508    1.313   .     A
C461   H495    1.085   .     S
C461   C462    1.398   .     A
C462   C463    1.397   .     A
C462   C471    1.445   .     S
C463   H496    1.083   .     S
C464   H497    1.084   .     S
C464   C465    1.403   .     A
C464   C121    1.383   1_565 S
C466   N504    1.379   .     A
C466   Cl486   1.756   .     S
C466   C353    1.412   1_655 S
C467   N503    1.359   .     A
C467   H498    1.082   .     S
C468   C479    1.424   .     A
C468   C990    1.429   .     S
C468   C993    1.427   .     S
C469   H499    1.082   .     S
C469   N503    1.368   .     A
C470   H500    1.082   .     S
C470   N504    1.367   .     A
C470   C355    1.418   1_655 S
C471   O510    1.292   .     A
C471   O511    1.290   .     A
C472   O512    1.291   .     A
C472   O513    1.293   .     A
C472   C474    1.450   .     S
C473   C485    1.391   .     A
C473   C994    1.407   1_554 S
C473   Cl1000  1.763   1_554 S
C474   C485    1.398   .     A
C474   C484    1.395   .     A
C475   C476    1.386   .     A
C475   H492    1.083   .     S
C476   C990    1.392   .     S
C476   H1006   1.083   .     S
C477   Cl488   1.768   .     S
C477   C989    1.392   1_554 S
C477   C981    1.429   1_554 S
C478   N505    1.158   .     T
C479   C483    1.418   .     A
C480   C484    1.393   .     A
C480   C981    1.427   1_554 S
C480   C994    1.419   1_554 S
C481   C482    1.385   .     A
C481   C986    1.407   .     S
C481   C993    1.419   .     S
C482   C483    1.380   .     A
C482   H501    1.084   .     S
C483   H494    1.073   .     S
C484   H502    1.079   .     S
C485   H491    1.084   .     S
Cl487  C986    1.763   .     S
Cu489  O512    1.969   .     S
Cu489  Cu490   2.680   .     S
Cu489  O508    1.976   .     S
Cu489  O510    1.966   .     S
Cu489  N503    2.014   .     S
Cu489  O506    1.962   .     S
Cu490  O513    1.976   .     S
Cu490  O511    1.962   .     S
Cu490  N504    2.014   .     S
Cu490  O509    1.969   .     S
Cu490  O507    1.966   .     S
H493   C989    1.083   1_554 S
C514   O563    1.294   .     A
C514   O564    1.291   .     A
C514   C522    1.455   .     S
C515   C517    1.485   .     S
C515   C536    1.433   .     A
C515   C532    1.399   .     A
C516   C522    1.415   .     A
C516   C535    1.446   .     S
C516   C689    1.387   .     S
C517   O566    1.287   .     A
C517   O565    1.313   .     A
C518   H552    1.085   .     S
C518   C519    1.398   .     A
C518   C858    1.387   1_545 S
C519   C520    1.397   .     A
C519   C528    1.445   .     S
C520   H553    1.083   .     S
C520   C863    1.383   1_545 S
C521   H554    1.084   .     S
C521   C522    1.403   .     A
C521   C691    1.383   .     S
C523   N561    1.379   .     A
C523   Cl543   1.756   .     S
C523   C581    1.412   .     S
C524   N560    1.359   .     A
C524   H555    1.082   .     S
C524   C637    1.412   1_455 S
C525   C536    1.424   .     A
C525   C21     1.429   1_556 S
C525   C24     1.427   1_556 S
C526   H556    1.082   .     S
C526   N560    1.368   .     A
C526   C641    1.418   1_455 S
C527   H557    1.082   .     S
C527   N561    1.367   .     A
C527   C583    1.418   .     S
C528   O567    1.292   .     A
C528   O568    1.290   .     A
C529   O569    1.291   .     A
C529   O570    1.293   .     A
C529   C531    1.450   .     S
C530   C542    1.391   .     A
C531   C542    1.398   .     A
C531   C541    1.395   .     A
C532   C533    1.386   .     A
C532   H549    1.083   .     S
C533   C21     1.392   1_556 S
C533   H37     1.083   1_556 S
C534   Cl545   1.768   .     S
C535   N562    1.158   .     T
C536   C540    1.418   .     A
C537   C541    1.393   .     A
C538   C539    1.385   .     A
C538   C17     1.407   1_556 S
C538   C24     1.419   1_556 S
C539   C540    1.380   .     A
C539   H558    1.084   .     S
C540   H551    1.073   .     S
C541   H559    1.079   .     S
C542   H548    1.084   .     S
Cl544  C17     1.763   1_556 S
Cu546  O569    1.969   .     S
Cu546  Cu547   2.680   .     S
Cu546  O565    1.976   .     S
Cu546  O567    1.966   .     S
Cu546  N560    2.014   .     S
Cu546  O563    1.962   .     S
Cu547  O570    1.976   .     S
Cu547  O568    1.962   .     S
Cu547  N561    2.014   .     S
Cu547  O566    1.969   .     S
Cu547  O564    1.966   .     S
C571   O620    1.294   .     A
C571   O621    1.291   .     A
C571   C579    1.455   .     S
C572   C574    1.485   .     S
C572   C593    1.433   .     A
C572   C589    1.399   .     A
C573   C579    1.415   .     A
C573   C592    1.446   .     S
C573   C746    1.387   .     S
C574   O623    1.287   .     A
C574   O622    1.313   .     A
C575   H609    1.085   .     S
C575   C576    1.398   .     A
C575   C915    1.387   1_545 S
C576   C577    1.397   .     A
C576   C585    1.445   .     S
C577   H610    1.083   .     S
C577   C920    1.383   1_545 S
C578   H611    1.084   .     S
C578   C579    1.403   .     A
C578   C748    1.383   .     S
C580   N618    1.379   .     A
C580   Cl600   1.756   .     S
C580   C638    1.412   .     S
C581   N617    1.359   .     A
C581   H612    1.082   .     S
C582   C593    1.424   .     A
C582   C78     1.429   1_556 S
C582   C81     1.427   1_556 S
C583   H613    1.082   .     S
C583   N617    1.368   .     A
C584   H614    1.082   .     S
C584   N618    1.367   .     A
C584   C640    1.418   .     S
C585   O624    1.292   .     A
C585   O625    1.290   .     A
C586   O626    1.291   .     A
C586   O627    1.293   .     A
C586   C588    1.450   .     S
C587   C599    1.391   .     A
C588   C599    1.398   .     A
C588   C598    1.395   .     A
C589   C590    1.386   .     A
C589   H606    1.083   .     S
C590   C78     1.392   1_556 S
C590   H94     1.083   1_556 S
C591   Cl602   1.768   .     S
C592   N619    1.158   .     T
C593   C597    1.418   .     A
C594   C598    1.393   .     A
C595   C596    1.385   .     A
C595   C74     1.407   1_556 S
C595   C81     1.419   1_556 S
C596   C597    1.380   .     A
C596   H615    1.084   .     S
C597   H608    1.073   .     S
C598   H616    1.079   .     S
C599   H605    1.084   .     S
Cl601  C74     1.763   1_556 S
Cu603  O626    1.969   .     S
Cu603  Cu604   2.680   .     S
Cu603  O622    1.976   .     S
Cu603  O624    1.966   .     S
Cu603  N617    2.014   .     S
Cu603  O620    1.962   .     S
Cu604  O627    1.976   .     S
Cu604  O625    1.962   .     S
Cu604  N618    2.014   .     S
Cu604  O623    1.969   .     S
Cu604  O621    1.966   .     S
C628   O677    1.294   .     A
C628   O678    1.291   .     A
C628   C636    1.455   .     S
C629   C631    1.485   .     S
C629   C650    1.433   .     A
C629   C646    1.399   .     A
C630   C636    1.415   .     A
C630   C649    1.446   .     S
C630   C803    1.387   .     S
C631   O680    1.287   .     A
C631   O679    1.313   .     A
C632   H666    1.085   .     S
C632   C633    1.398   .     A
C632   C972    1.387   1_545 S
C633   C634    1.397   .     A
C633   C642    1.445   .     S
C634   H667    1.083   .     S
C634   C977    1.383   1_545 S
C635   H668    1.084   .     S
C635   C636    1.403   .     A
C635   C805    1.383   .     S
C637   N675    1.379   .     A
C637   Cl657   1.756   .     S
C637   C524    1.412   1_655 S
C638   N674    1.359   .     A
C638   H669    1.082   .     S
C639   C650    1.424   .     A
C639   C135    1.429   1_556 S
C639   C138    1.427   1_556 S
C640   H670    1.082   .     S
C640   N674    1.368   .     A
C641   H671    1.082   .     S
C641   N675    1.367   .     A
C641   C526    1.418   1_655 S
C642   O681    1.292   .     A
C642   O682    1.290   .     A
C643   O683    1.291   .     A
C643   O684    1.293   .     A
C643   C645    1.450   .     S
C644   C656    1.391   .     A
C645   C656    1.398   .     A
C645   C655    1.395   .     A
C646   C647    1.386   .     A
C646   H663    1.083   .     S
C647   C135    1.392   1_556 S
C647   H151    1.083   1_556 S
C648   Cl659   1.768   .     S
C649   N676    1.158   .     T
C650   C654    1.418   .     A
C651   C655    1.393   .     A
C652   C653    1.385   .     A
C652   C131    1.407   1_556 S
C652   C138    1.419   1_556 S
C653   C654    1.380   .     A
C653   H672    1.084   .     S
C654   H665    1.073   .     S
C655   H673    1.079   .     S
C656   H662    1.084   .     S
Cl658  C131    1.763   1_556 S
Cu660  O683    1.969   .     S
Cu660  Cu661   2.680   .     S
Cu660  O679    1.976   .     S
Cu660  O681    1.966   .     S
Cu660  N674    2.014   .     S
Cu660  O677    1.962   .     S
Cu661  O684    1.976   .     S
Cu661  O682    1.962   .     S
Cu661  N675    2.014   .     S
Cu661  O680    1.969   .     S
Cu661  O678    1.966   .     S
C685   O734    1.294   .     A
C685   O735    1.291   .     A
C685   C693    1.455   .     S
C686   C688    1.485   .     S
C686   C707    1.433   .     A
C686   C703    1.399   .     A
C687   C693    1.415   .     A
C687   C706    1.446   .     S
C687   C860    1.387   .     S
C688   O737    1.287   .     A
C688   O736    1.313   .     A
C689   H723    1.085   .     S
C689   C690    1.398   .     A
C690   C691    1.397   .     A
C690   C699    1.445   .     S
C691   H724    1.083   .     S
C692   H725    1.084   .     S
C692   C693    1.403   .     A
C692   C862    1.383   .     S
C694   N732    1.379   .     A
C694   Cl714   1.756   .     S
C694   C752    1.412   .     S
C695   N731    1.359   .     A
C695   H726    1.082   .     S
C695   C808    1.412   1_455 S
C696   C707    1.424   .     A
C696   C192    1.429   1_556 S
C696   C195    1.427   1_556 S
C697   H727    1.082   .     S
C697   N731    1.368   .     A
C697   C812    1.418   1_455 S
C698   H728    1.082   .     S
C698   N732    1.367   .     A
C698   C754    1.418   .     S
C699   O738    1.292   .     A
C699   O739    1.290   .     A
C700   O740    1.291   .     A
C700   O741    1.293   .     A
C700   C702    1.450   .     S
C701   C713    1.391   .     A
C702   C713    1.398   .     A
C702   C712    1.395   .     A
C703   C704    1.386   .     A
C703   H720    1.083   .     S
C704   C192    1.392   1_556 S
C704   H208    1.083   1_556 S
C705   Cl716   1.768   .     S
C706   N733    1.158   .     T
C707   C711    1.418   .     A
C708   C712    1.393   .     A
C709   C710    1.385   .     A
C709   C188    1.407   1_556 S
C709   C195    1.419   1_556 S
C710   C711    1.380   .     A
C710   H729    1.084   .     S
C711   H722    1.073   .     S
C712   H730    1.079   .     S
C713   H719    1.084   .     S
Cl715  C188    1.763   1_556 S
Cu717  O740    1.969   .     S
Cu717  Cu718   2.680   .     S
Cu717  O736    1.976   .     S
Cu717  O738    1.966   .     S
Cu717  N731    2.014   .     S
Cu717  O734    1.962   .     S
Cu718  O741    1.976   .     S
Cu718  O739    1.962   .     S
Cu718  N732    2.014   .     S
Cu718  O737    1.969   .     S
Cu718  O735    1.966   .     S
C742   O791    1.294   .     A
C742   O792    1.291   .     A
C742   C750    1.455   .     S
C743   C745    1.485   .     S
C743   C764    1.433   .     A
C743   C760    1.399   .     A
C744   C750    1.415   .     A
C744   C763    1.446   .     S
C744   C917    1.387   .     S
C745   O794    1.287   .     A
C745   O793    1.313   .     A
C746   H780    1.085   .     S
C746   C747    1.398   .     A
C747   C748    1.397   .     A
C747   C756    1.445   .     S
C748   H781    1.083   .     S
C749   H782    1.084   .     S
C749   C750    1.403   .     A
C749   C919    1.383   .     S
C751   N789    1.379   .     A
C751   Cl771   1.756   .     S
C751   C809    1.412   .     S
C752   N788    1.359   .     A
C752   H783    1.082   .     S
C753   C764    1.424   .     A
C753   C249    1.429   1_556 S
C753   C252    1.427   1_556 S
C754   H784    1.082   .     S
C754   N788    1.368   .     A
C755   H785    1.082   .     S
C755   N789    1.367   .     A
C755   C811    1.418   .     S
C756   O795    1.292   .     A
C756   O796    1.290   .     A
C757   O797    1.291   .     A
C757   O798    1.293   .     A
C757   C759    1.450   .     S
C758   C770    1.391   .     A
C759   C770    1.398   .     A
C759   C769    1.395   .     A
C760   C761    1.386   .     A
C760   H777    1.083   .     S
C761   C249    1.392   1_556 S
C761   H265    1.083   1_556 S
C762   Cl773   1.768   .     S
C763   N790    1.158   .     T
C764   C768    1.418   .     A
C765   C769    1.393   .     A
C766   C767    1.385   .     A
C766   C245    1.407   1_556 S
C766   C252    1.419   1_556 S
C767   C768    1.380   .     A
C767   H786    1.084   .     S
C768   H779    1.073   .     S
C769   H787    1.079   .     S
C770   H776    1.084   .     S
Cl772  C245    1.763   1_556 S
Cu774  O797    1.969   .     S
Cu774  Cu775   2.680   .     S
Cu774  O793    1.976   .     S
Cu774  O795    1.966   .     S
Cu774  N788    2.014   .     S
Cu774  O791    1.962   .     S
Cu775  O798    1.976   .     S
Cu775  O796    1.962   .     S
Cu775  N789    2.014   .     S
Cu775  O794    1.969   .     S
Cu775  O792    1.966   .     S
C799   O848    1.294   .     A
C799   O849    1.291   .     A
C799   C807    1.455   .     S
C800   C802    1.485   .     S
C800   C821    1.433   .     A
C800   C817    1.399   .     A
C801   C807    1.415   .     A
C801   C820    1.446   .     S
C801   C974    1.387   .     S
C802   O851    1.287   .     A
C802   O850    1.313   .     A
C803   H837    1.085   .     S
C803   C804    1.398   .     A
C804   C805    1.397   .     A
C804   C813    1.445   .     S
C805   H838    1.083   .     S
C806   H839    1.084   .     S
C806   C807    1.403   .     A
C806   C976    1.383   .     S
C808   N846    1.379   .     A
C808   Cl828   1.756   .     S
C808   C695    1.412   1_655 S
C809   N845    1.359   .     A
C809   H840    1.082   .     S
C810   C821    1.424   .     A
C810   C306    1.429   1_556 S
C810   C309    1.427   1_556 S
C811   H841    1.082   .     S
C811   N845    1.368   .     A
C812   H842    1.082   .     S
C812   N846    1.367   .     A
C812   C697    1.418   1_655 S
C813   O852    1.292   .     A
C813   O853    1.290   .     A
C814   O854    1.291   .     A
C814   O855    1.293   .     A
C814   C816    1.450   .     S
C815   C827    1.391   .     A
C816   C827    1.398   .     A
C816   C826    1.395   .     A
C817   C818    1.386   .     A
C817   H834    1.083   .     S
C818   C306    1.392   1_556 S
C818   H322    1.083   1_556 S
C819   Cl830   1.768   .     S
C820   N847    1.158   .     T
C821   C825    1.418   .     A
C822   C826    1.393   .     A
C823   C824    1.385   .     A
C823   C302    1.407   1_556 S
C823   C309    1.419   1_556 S
C824   C825    1.380   .     A
C824   H843    1.084   .     S
C825   H836    1.073   .     S
C826   H844    1.079   .     S
C827   H833    1.084   .     S
Cl829  C302    1.763   1_556 S
Cu831  O854    1.969   .     S
Cu831  Cu832   2.680   .     S
Cu831  O850    1.976   .     S
Cu831  O852    1.966   .     S
Cu831  N845    2.014   .     S
Cu831  O848    1.962   .     S
Cu832  O855    1.976   .     S
Cu832  O853    1.962   .     S
Cu832  N846    2.014   .     S
Cu832  O851    1.969   .     S
Cu832  O849    1.966   .     S
C856   O905    1.294   .     A
C856   O906    1.291   .     A
C856   C864    1.455   .     S
C857   C859    1.485   .     S
C857   C878    1.433   .     A
C857   C874    1.399   .     A
C858   C864    1.415   .     A
C858   C877    1.446   .     S
C858   C518    1.387   1_565 S
C859   O908    1.287   .     A
C859   O907    1.313   .     A
C860   H894    1.085   .     S
C860   C861    1.398   .     A
C861   C862    1.397   .     A
C861   C870    1.445   .     S
C862   H895    1.083   .     S
C863   H896    1.084   .     S
C863   C864    1.403   .     A
C863   C520    1.383   1_565 S
C865   N903    1.379   .     A
C865   Cl885   1.756   .     S
C865   C923    1.412   .     S
C866   N902    1.359   .     A
C866   H897    1.082   .     S
C866   C979    1.412   1_455 S
C867   C878    1.424   .     A
C867   C363    1.429   1_556 S
C867   C366    1.427   1_556 S
C868   H898    1.082   .     S
C868   N902    1.368   .     A
C868   C983    1.418   1_455 S
C869   H899    1.082   .     S
C869   N903    1.367   .     A
C869   C925    1.418   .     S
C870   O909    1.292   .     A
C870   O910    1.290   .     A
C871   O911    1.291   .     A
C871   O912    1.293   .     A
C871   C873    1.450   .     S
C872   C884    1.391   .     A
C873   C884    1.398   .     A
C873   C883    1.395   .     A
C874   C875    1.386   .     A
C874   H891    1.083   .     S
C875   C363    1.392   1_556 S
C875   H379    1.083   1_556 S
C876   Cl887   1.768   .     S
C877   N904    1.158   .     T
C878   C882    1.418   .     A
C879   C883    1.393   .     A
C880   C881    1.385   .     A
C880   C359    1.407   1_556 S
C880   C366    1.419   1_556 S
C881   C882    1.380   .     A
C881   H900    1.084   .     S
C882   H893    1.073   .     S
C883   H901    1.079   .     S
C884   H890    1.084   .     S
Cl886  C359    1.763   1_556 S
Cu888  O911    1.969   .     S
Cu888  Cu889   2.680   .     S
Cu888  O907    1.976   .     S
Cu888  O909    1.966   .     S
Cu888  N902    2.014   .     S
Cu888  O905    1.962   .     S
Cu889  O912    1.976   .     S
Cu889  O910    1.962   .     S
Cu889  N903    2.014   .     S
Cu889  O908    1.969   .     S
Cu889  O906    1.966   .     S
C913   O962    1.294   .     A
C913   O963    1.291   .     A
C913   C921    1.455   .     S
C914   C916    1.485   .     S
C914   C935    1.433   .     A
C914   C931    1.399   .     A
C915   C921    1.415   .     A
C915   C934    1.446   .     S
C915   C575    1.387   1_565 S
C916   O965    1.287   .     A
C916   O964    1.313   .     A
C917   H951    1.085   .     S
C917   C918    1.398   .     A
C918   C919    1.397   .     A
C918   C927    1.445   .     S
C919   H952    1.083   .     S
C920   H953    1.084   .     S
C920   C921    1.403   .     A
C920   C577    1.383   1_565 S
C922   N960    1.379   .     A
C922   Cl942   1.756   .     S
C922   C980    1.412   .     S
C923   N959    1.359   .     A
C923   H954    1.082   .     S
C924   C935    1.424   .     A
C924   C420    1.429   1_556 S
C924   C423    1.427   1_556 S
C925   H955    1.082   .     S
C925   N959    1.368   .     A
C926   H956    1.082   .     S
C926   N960    1.367   .     A
C926   C982    1.418   .     S
C927   O966    1.292   .     A
C927   O967    1.290   .     A
C928   O968    1.291   .     A
C928   O969    1.293   .     A
C928   C930    1.450   .     S
C929   C941    1.391   .     A
C930   C941    1.398   .     A
C930   C940    1.395   .     A
C931   C932    1.386   .     A
C931   H948    1.083   .     S
C932   C420    1.392   1_556 S
C932   H436    1.083   1_556 S
C933   Cl944   1.768   .     S
C934   N961    1.158   .     T
C935   C939    1.418   .     A
C936   C940    1.393   .     A
C937   C938    1.385   .     A
C937   C416    1.407   1_556 S
C937   C423    1.419   1_556 S
C938   C939    1.380   .     A
C938   H957    1.084   .     S
C939   H950    1.073   .     S
C940   H958    1.079   .     S
C941   H947    1.084   .     S
Cl943  C416    1.763   1_556 S
Cu945  O968    1.969   .     S
Cu945  Cu946   2.680   .     S
Cu945  O964    1.976   .     S
Cu945  O966    1.966   .     S
Cu945  N959    2.014   .     S
Cu945  O962    1.962   .     S
Cu946  O969    1.976   .     S
Cu946  O967    1.962   .     S
Cu946  N960    2.014   .     S
Cu946  O965    1.969   .     S
Cu946  O963    1.966   .     S
C970   O1019   1.294   .     A
C970   O1020   1.291   .     A
C970   C978    1.455   .     S
C971   C973    1.485   .     S
C971   C992    1.433   .     A
C971   C988    1.399   .     A
C972   C978    1.415   .     A
C972   C991    1.446   .     S
C972   C632    1.387   1_565 S
C973   O1022   1.287   .     A
C973   O1021   1.313   .     A
C974   H1008   1.085   .     S
C974   C975    1.398   .     A
C975   C976    1.397   .     A
C975   C984    1.445   .     S
C976   H1009   1.083   .     S
C977   H1010   1.084   .     S
C977   C978    1.403   .     A
C977   C634    1.383   1_565 S
C979   N1017   1.379   .     A
C979   Cl999   1.756   .     S
C979   C866    1.412   1_655 S
C980   N1016   1.359   .     A
C980   H1011   1.082   .     S
C981   C992    1.424   .     A
C981   C477    1.429   1_556 S
C981   C480    1.427   1_556 S
C982   H1012   1.082   .     S
C982   N1016   1.368   .     A
C983   H1013   1.082   .     S
C983   N1017   1.367   .     A
C983   C868    1.418   1_655 S
C984   O1023   1.292   .     A
C984   O1024   1.290   .     A
C985   O1025   1.291   .     A
C985   O1026   1.293   .     A
C985   C987    1.450   .     S
C986   C998    1.391   .     A
C987   C998    1.398   .     A
C987   C997    1.395   .     A
C988   C989    1.386   .     A
C988   H1005   1.083   .     S
C989   C477    1.392   1_556 S
C989   H493    1.083   1_556 S
C990   Cl1001  1.768   .     S
C991   N1018   1.158   .     T
C992   C996    1.418   .     A
C993   C997    1.393   .     A
C994   C995    1.385   .     A
C994   C473    1.407   1_556 S
C994   C480    1.419   1_556 S
C995   C996    1.380   .     A
C995   H1014   1.084   .     S
C996   H1007   1.073   .     S
C997   H1015   1.079   .     S
C998   H1004   1.084   .     S
Cl1000 C473    1.763   1_556 S
Cu1002 O1025   1.969   .     S
Cu1002 Cu1003  2.680   .     S
Cu1002 O1021   1.976   .     S
Cu1002 O1023   1.966   .     S
Cu1002 N1016   2.014   .     S
Cu1002 O1019   1.962   .     S
Cu1003 O1026   1.976   .     S
Cu1003 O1024   1.962   .     S
Cu1003 N1017   2.014   .     S
Cu1003 O1022   1.969   .     S
Cu1003 O1020   1.966   .     S
