data_str_m2_o1_o17_pcu_sym.89
_audit_creation_date              2020-01-03
_audit_creation_method            'Materials Studio'
_symmetry_space_group_name_H-M    'P1'
_symmetry_Int_Tables_number       1
_symmetry_cell_setting            triclinic
loop_
_symmetry_equiv_pos_as_xyz
  x,y,z
_cell_length_a                    32.6320
_cell_length_b                    28.9614
_cell_length_c                    30.1505
_cell_angle_alpha                 90.2559
_cell_angle_beta                  93.6463
_cell_angle_gamma                 90.9620
loop_
_atom_site_label
_atom_site_type_symbol
_atom_site_fract_x
_atom_site_fract_y
_atom_site_fract_z
_atom_site_U_iso_or_equiv
_atom_site_adp_type
_atom_site_occupancy
C1     C     0.08751   0.16636   0.24928   0.00000  Uiso   1.00
C2     C     0.04284   0.16608   0.24971   0.00000  Uiso   1.00
C3     C     0.14690   0.02379   0.21608   0.00000  Uiso   1.00
C4     C     0.18643   0.30955   0.28392   0.00000  Uiso   1.00
C5     C     0.18661   0.02504   0.28386   0.00000  Uiso   1.00
C6     C     0.14673   0.30829   0.21614   0.00000  Uiso   1.00
C7     C     0.16689   0.16672   0.16476   0.00000  Uiso   1.00
C8     C     0.16644   0.16662   0.33524   0.00000  Uiso   1.00
C9     C     0.20410   0.17237   0.40889   0.00000  Uiso   1.00
C10    C     0.12923   0.16096   0.09111   0.00000  Uiso   1.00
C11    C     0.16658   0.16581   0.38344   0.00000  Uiso   1.00
C12    C     0.24583   0.16697   0.25072   0.00000  Uiso   1.00
C13    C     0.16675   0.16753   0.11656   0.00000  Uiso   1.00
C14    C     0.12955   0.15746   0.40410   0.00000  Uiso   1.00
C15    C     0.20378   0.17587   0.09591   0.00000  Uiso   1.00
C16    C     0.12987   0.15827   0.45059   0.00000  Uiso   1.00
C17    C     0.20346   0.17507   0.04941   0.00000  Uiso   1.00
C18    C     0.16688   0.16650   0.47654   0.00000  Uiso   1.00
C19    C     0.16645   0.16684   0.02346   0.00000  Uiso   1.00
C20    C     0.20428   0.17398   0.45570   0.00000  Uiso   1.00
C21    C     0.12905   0.15935   0.04430   0.00000  Uiso   1.00
C22    C     0.09322   0.15068   0.47145   0.00000  Uiso   1.00
C23    C     0.09223   0.15112   0.01774   0.00000  Uiso   1.00
C24    C     0.24011   0.18266   0.02855   0.00000  Uiso   1.00
C25    C     0.24110   0.18221   0.48226   0.00000  Uiso   1.00
C26    C     0.01859   0.13787   0.21981   0.00000  Uiso   1.00
C27    C     0.31474   0.19546   0.28019   0.00000  Uiso   1.00
C28    C     0.30921   0.13830   0.22019   0.00000  Uiso   1.00
C29    C     0.02412   0.19504   0.27981   0.00000  Uiso   1.00
C30    C     0.29050   0.16725   0.25029   0.00000  Uiso   1.00
Cl31   Cl    0.04064   0.10355   0.17956   0.00000  Uiso   1.00
Cl32   Cl    0.29270   0.22978   0.32043   0.00000  Uiso   1.00
Cl33   Cl    0.27948   0.10330   0.18135   0.00000  Uiso   1.00
Cl34   Cl    0.05385   0.23003   0.31865   0.00000  Uiso   1.00
Cu35   Cu    0.16667   0.21355   0.25000   0.00000  Uiso   1.00
Cu36   Cu    0.16667   0.11978   0.25000   0.00000  Uiso   1.00
H37    H     0.06477   0.14431   0.45171   0.00000  Uiso   1.00
H38    H     0.21768   0.25966   0.30762   0.00000  Uiso   1.00
H39    H     0.22063   0.07526   0.30731   0.00000  Uiso   1.00
H40    H     0.11270   0.25808   0.19269   0.00000  Uiso   1.00
H41    H     0.26856   0.18902   0.04829   0.00000  Uiso   1.00
H42    H     0.23877   0.16190   0.35918   0.00000  Uiso   1.00
H43    H     0.09456   0.17144   0.14082   0.00000  Uiso   1.00
H44    H     0.09655   0.14368   0.34837   0.00000  Uiso   1.00
H45    H     0.23678   0.18965   0.15163   0.00000  Uiso   1.00
H46    H     0.03300   0.13833   0.01396   0.00000  Uiso   1.00
H47    H     0.30034   0.19500   0.48605   0.00000  Uiso   1.00
H48    H     0.11565   0.07368   0.19238   0.00000  Uiso   1.00
N49    N     0.16667   0.28402   0.25000   0.00000  Uiso   1.00
N50    N     0.16667   0.04931   0.25000   0.00000  Uiso   1.00
O51    O     0.10655   0.20625   0.25000   0.00000  Uiso   1.00
O52    O     0.09240   0.15649   0.11118   0.00000  Uiso   1.00
O53    O     0.09250   0.14841   0.38022   0.00000  Uiso   1.00
O54    O     0.24084   0.18492   0.11978   0.00000  Uiso   1.00
O55    O     0.05551   0.14327   0.03725   0.00000  Uiso   1.00
O56    O     0.27782   0.19006   0.46275   0.00000  Uiso   1.00
O57    O     0.12543   0.04435   0.18120   0.00000  Uiso   1.00
O58    O     0.20790   0.28898   0.31880   0.00000  Uiso   1.00
O59    O     0.20834   0.04684   0.31871   0.00000  Uiso   1.00
O60    O     0.12500   0.28649   0.18129   0.00000  Uiso   1.00
O61    O     0.22679   0.12709   0.25000   0.00000  Uiso   1.00
O62    O     0.22679   0.20625   0.25000   0.00000  Uiso   1.00
O63    O     0.10655   0.12709   0.25000   0.00000  Uiso   1.00
O64    O     0.16666   0.20627   0.18513   0.00000  Uiso   1.00
O65    O     0.16668   0.12707   0.31487   0.00000  Uiso   1.00
O66    O     0.16668   0.20627   0.31487   0.00000  Uiso   1.00
O67    O     0.16666   0.12707   0.18513   0.00000  Uiso   1.00
O68    O     0.24093   0.17685   0.38882   0.00000  Uiso   1.00
C69    C     0.42084   0.16636   0.24928   0.00000  Uiso   1.00
C70    C     0.37617   0.16608   0.24971   0.00000  Uiso   1.00
C71    C     0.48024   0.02379   0.21608   0.00000  Uiso   1.00
C72    C     0.51976   0.30955   0.28392   0.00000  Uiso   1.00
C73    C     0.51994   0.02504   0.28386   0.00000  Uiso   1.00
C74    C     0.48006   0.30829   0.21614   0.00000  Uiso   1.00
C75    C     0.50022   0.16672   0.16476   0.00000  Uiso   1.00
C76    C     0.49978   0.16662   0.33524   0.00000  Uiso   1.00
C77    C     0.53744   0.17237   0.40889   0.00000  Uiso   1.00
C78    C     0.46256   0.16096   0.09111   0.00000  Uiso   1.00
C79    C     0.49991   0.16581   0.38344   0.00000  Uiso   1.00
C80    C     0.57916   0.16697   0.25072   0.00000  Uiso   1.00
C81    C     0.50009   0.16753   0.11656   0.00000  Uiso   1.00
C82    C     0.46288   0.15746   0.40410   0.00000  Uiso   1.00
C83    C     0.53712   0.17587   0.09591   0.00000  Uiso   1.00
C84    C     0.46320   0.15827   0.45059   0.00000  Uiso   1.00
C85    C     0.53680   0.17507   0.04941   0.00000  Uiso   1.00
C86    C     0.50022   0.16650   0.47654   0.00000  Uiso   1.00
C87    C     0.49978   0.16684   0.02346   0.00000  Uiso   1.00
C88    C     0.53761   0.17398   0.45570   0.00000  Uiso   1.00
C89    C     0.46239   0.15935   0.04430   0.00000  Uiso   1.00
C90    C     0.42656   0.15068   0.47145   0.00000  Uiso   1.00
C91    C     0.42556   0.15112   0.01774   0.00000  Uiso   1.00
C92    C     0.57344   0.18266   0.02855   0.00000  Uiso   1.00
C93    C     0.57444   0.18221   0.48226   0.00000  Uiso   1.00
C94    C     0.35192   0.13787   0.21981   0.00000  Uiso   1.00
C95    C     0.64808   0.19546   0.28019   0.00000  Uiso   1.00
C96    C     0.64255   0.13830   0.22019   0.00000  Uiso   1.00
C97    C     0.35745   0.19504   0.27981   0.00000  Uiso   1.00
C98    C     0.62383   0.16725   0.25029   0.00000  Uiso   1.00
Cl99   Cl    0.37397   0.10355   0.17956   0.00000  Uiso   1.00
Cl100  Cl    0.62603   0.22978   0.32043   0.00000  Uiso   1.00
Cl101  Cl    0.61282   0.10330   0.18135   0.00000  Uiso   1.00
Cl102  Cl    0.38718   0.23003   0.31865   0.00000  Uiso   1.00
Cu103  Cu    0.50000   0.21355   0.25000   0.00000  Uiso   1.00
Cu104  Cu    0.50000   0.11978   0.25000   0.00000  Uiso   1.00
H105   H     0.39810   0.14431   0.45171   0.00000  Uiso   1.00
H106   H     0.55101   0.25966   0.30762   0.00000  Uiso   1.00
H107   H     0.55396   0.07526   0.30731   0.00000  Uiso   1.00
H108   H     0.44604   0.25808   0.19269   0.00000  Uiso   1.00
H109   H     0.60190   0.18902   0.04829   0.00000  Uiso   1.00
H110   H     0.57210   0.16190   0.35918   0.00000  Uiso   1.00
H111   H     0.42790   0.17144   0.14082   0.00000  Uiso   1.00
H112   H     0.42989   0.14368   0.34837   0.00000  Uiso   1.00
H113   H     0.57011   0.18965   0.15163   0.00000  Uiso   1.00
H114   H     0.36633   0.13833   0.01396   0.00000  Uiso   1.00
H115   H     0.63367   0.19500   0.48605   0.00000  Uiso   1.00
H116   H     0.44899   0.07368   0.19238   0.00000  Uiso   1.00
N117   N     0.50000   0.28402   0.25000   0.00000  Uiso   1.00
N118   N     0.50000   0.04931   0.25000   0.00000  Uiso   1.00
O119   O     0.43988   0.20625   0.25000   0.00000  Uiso   1.00
O120   O     0.42574   0.15649   0.11118   0.00000  Uiso   1.00
O121   O     0.42583   0.14841   0.38022   0.00000  Uiso   1.00
O122   O     0.57417   0.18492   0.11978   0.00000  Uiso   1.00
O123   O     0.38884   0.14327   0.03725   0.00000  Uiso   1.00
O124   O     0.61116   0.19006   0.46275   0.00000  Uiso   1.00
O125   O     0.45876   0.04435   0.18120   0.00000  Uiso   1.00
O126   O     0.54124   0.28898   0.31880   0.00000  Uiso   1.00
O127   O     0.54167   0.04684   0.31871   0.00000  Uiso   1.00
O128   O     0.45833   0.28649   0.18129   0.00000  Uiso   1.00
O129   O     0.56012   0.12709   0.25000   0.00000  Uiso   1.00
O130   O     0.56012   0.20625   0.25000   0.00000  Uiso   1.00
O131   O     0.43988   0.12709   0.25000   0.00000  Uiso   1.00
O132   O     0.49999   0.20627   0.18513   0.00000  Uiso   1.00
O133   O     0.50001   0.12707   0.31487   0.00000  Uiso   1.00
O134   O     0.50001   0.20627   0.31487   0.00000  Uiso   1.00
O135   O     0.49999   0.12707   0.18513   0.00000  Uiso   1.00
O136   O     0.57426   0.17685   0.38882   0.00000  Uiso   1.00
C137   C     0.75417   0.16636   0.24928   0.00000  Uiso   1.00
C138   C     0.70950   0.16608   0.24971   0.00000  Uiso   1.00
C139   C     0.81357   0.02379   0.21608   0.00000  Uiso   1.00
C140   C     0.85310   0.30955   0.28392   0.00000  Uiso   1.00
C141   C     0.85327   0.02504   0.28386   0.00000  Uiso   1.00
C142   C     0.81339   0.30829   0.21614   0.00000  Uiso   1.00
C143   C     0.83356   0.16672   0.16476   0.00000  Uiso   1.00
C144   C     0.83311   0.16662   0.33524   0.00000  Uiso   1.00
C145   C     0.87077   0.17237   0.40889   0.00000  Uiso   1.00
C146   C     0.79590   0.16096   0.09111   0.00000  Uiso   1.00
C147   C     0.83324   0.16581   0.38344   0.00000  Uiso   1.00
C148   C     0.91249   0.16697   0.25072   0.00000  Uiso   1.00
C149   C     0.83342   0.16753   0.11656   0.00000  Uiso   1.00
C150   C     0.79622   0.15746   0.40410   0.00000  Uiso   1.00
C151   C     0.87045   0.17587   0.09591   0.00000  Uiso   1.00
C152   C     0.79654   0.15827   0.45059   0.00000  Uiso   1.00
C153   C     0.87013   0.17507   0.04941   0.00000  Uiso   1.00
C154   C     0.83355   0.16650   0.47654   0.00000  Uiso   1.00
C155   C     0.83312   0.16684   0.02346   0.00000  Uiso   1.00
C156   C     0.87095   0.17398   0.45570   0.00000  Uiso   1.00
C157   C     0.79572   0.15935   0.04430   0.00000  Uiso   1.00
C158   C     0.75989   0.15068   0.47145   0.00000  Uiso   1.00
C159   C     0.75890   0.15112   0.01774   0.00000  Uiso   1.00
C160   C     0.90678   0.18266   0.02855   0.00000  Uiso   1.00
C161   C     0.90777   0.18221   0.48226   0.00000  Uiso   1.00
C162   C     0.68526   0.13787   0.21981   0.00000  Uiso   1.00
C163   C     0.98141   0.19546   0.28019   0.00000  Uiso   1.00
C164   C     0.97588   0.13830   0.22019   0.00000  Uiso   1.00
C165   C     0.69078   0.19504   0.27981   0.00000  Uiso   1.00
C166   C     0.95716   0.16725   0.25029   0.00000  Uiso   1.00
Cl167  Cl    0.70730   0.10355   0.17956   0.00000  Uiso   1.00
Cl168  Cl    0.95936   0.22978   0.32043   0.00000  Uiso   1.00
Cl169  Cl    0.94615   0.10330   0.18135   0.00000  Uiso   1.00
Cl170  Cl    0.72052   0.23003   0.31865   0.00000  Uiso   1.00
Cu171  Cu    0.83333   0.21355   0.25000   0.00000  Uiso   1.00
Cu172  Cu    0.83333   0.11978   0.25000   0.00000  Uiso   1.00
H173   H     0.73144   0.14431   0.45171   0.00000  Uiso   1.00
H174   H     0.88435   0.25966   0.30762   0.00000  Uiso   1.00
H175   H     0.88730   0.07526   0.30731   0.00000  Uiso   1.00
H176   H     0.77937   0.25808   0.19269   0.00000  Uiso   1.00
H177   H     0.93523   0.18902   0.04829   0.00000  Uiso   1.00
H178   H     0.90544   0.16190   0.35918   0.00000  Uiso   1.00
H179   H     0.76123   0.17144   0.14082   0.00000  Uiso   1.00
H180   H     0.76322   0.14368   0.34837   0.00000  Uiso   1.00
H181   H     0.90344   0.18965   0.15163   0.00000  Uiso   1.00
H182   H     0.69966   0.13833   0.01396   0.00000  Uiso   1.00
H183   H     0.96700   0.19500   0.48605   0.00000  Uiso   1.00
H184   H     0.78232   0.07368   0.19238   0.00000  Uiso   1.00
N185   N     0.83333   0.28402   0.25000   0.00000  Uiso   1.00
N186   N     0.83333   0.04931   0.25000   0.00000  Uiso   1.00
O187   O     0.77321   0.20625   0.25000   0.00000  Uiso   1.00
O188   O     0.75907   0.15649   0.11118   0.00000  Uiso   1.00
O189   O     0.75916   0.14841   0.38022   0.00000  Uiso   1.00
O190   O     0.90750   0.18492   0.11978   0.00000  Uiso   1.00
O191   O     0.72218   0.14327   0.03725   0.00000  Uiso   1.00
O192   O     0.94449   0.19006   0.46275   0.00000  Uiso   1.00
O193   O     0.79210   0.04435   0.18120   0.00000  Uiso   1.00
O194   O     0.87457   0.28898   0.31880   0.00000  Uiso   1.00
O195   O     0.87500   0.04684   0.31871   0.00000  Uiso   1.00
O196   O     0.79166   0.28649   0.18129   0.00000  Uiso   1.00
O197   O     0.89345   0.12709   0.25000   0.00000  Uiso   1.00
O198   O     0.89345   0.20625   0.25000   0.00000  Uiso   1.00
O199   O     0.77321   0.12709   0.25000   0.00000  Uiso   1.00
O200   O     0.83332   0.20627   0.18513   0.00000  Uiso   1.00
O201   O     0.83334   0.12707   0.31487   0.00000  Uiso   1.00
O202   O     0.83334   0.20627   0.31487   0.00000  Uiso   1.00
O203   O     0.83332   0.12707   0.18513   0.00000  Uiso   1.00
O204   O     0.90760   0.17685   0.38882   0.00000  Uiso   1.00
C205   C     0.08751   0.49970   0.24928   0.00000  Uiso   1.00
C206   C     0.04284   0.49942   0.24971   0.00000  Uiso   1.00
C207   C     0.14690   0.35712   0.21608   0.00000  Uiso   1.00
C208   C     0.18643   0.64288   0.28392   0.00000  Uiso   1.00
C209   C     0.18661   0.35838   0.28386   0.00000  Uiso   1.00
C210   C     0.14673   0.64162   0.21614   0.00000  Uiso   1.00
C211   C     0.16689   0.50005   0.16476   0.00000  Uiso   1.00
C212   C     0.16644   0.49995   0.33524   0.00000  Uiso   1.00
C213   C     0.20410   0.50571   0.40889   0.00000  Uiso   1.00
C214   C     0.12923   0.49430   0.09111   0.00000  Uiso   1.00
C215   C     0.16658   0.49914   0.38344   0.00000  Uiso   1.00
C216   C     0.24583   0.50030   0.25072   0.00000  Uiso   1.00
C217   C     0.16675   0.50086   0.11656   0.00000  Uiso   1.00
C218   C     0.12955   0.49079   0.40410   0.00000  Uiso   1.00
C219   C     0.20378   0.50921   0.09591   0.00000  Uiso   1.00
C220   C     0.12987   0.49160   0.45059   0.00000  Uiso   1.00
C221   C     0.20346   0.50840   0.04941   0.00000  Uiso   1.00
C222   C     0.16688   0.49983   0.47654   0.00000  Uiso   1.00
C223   C     0.16645   0.50017   0.02346   0.00000  Uiso   1.00
C224   C     0.20428   0.50732   0.45570   0.00000  Uiso   1.00
C225   C     0.12905   0.49268   0.04430   0.00000  Uiso   1.00
C226   C     0.09322   0.48401   0.47145   0.00000  Uiso   1.00
C227   C     0.09223   0.48445   0.01774   0.00000  Uiso   1.00
C228   C     0.24011   0.51599   0.02855   0.00000  Uiso   1.00
C229   C     0.24110   0.51554   0.48226   0.00000  Uiso   1.00
C230   C     0.01859   0.47120   0.21981   0.00000  Uiso   1.00
C231   C     0.31474   0.52880   0.28019   0.00000  Uiso   1.00
C232   C     0.30921   0.47163   0.22019   0.00000  Uiso   1.00
C233   C     0.02412   0.52837   0.27981   0.00000  Uiso   1.00
C234   C     0.29050   0.50058   0.25029   0.00000  Uiso   1.00
Cl235  Cl    0.04064   0.43688   0.17956   0.00000  Uiso   1.00
Cl236  Cl    0.29270   0.56312   0.32043   0.00000  Uiso   1.00
Cl237  Cl    0.27948   0.43663   0.18135   0.00000  Uiso   1.00
Cl238  Cl    0.05385   0.56337   0.31865   0.00000  Uiso   1.00
Cu239  Cu    0.16667   0.54689   0.25000   0.00000  Uiso   1.00
Cu240  Cu    0.16667   0.45311   0.25000   0.00000  Uiso   1.00
H241   H     0.06477   0.47765   0.45171   0.00000  Uiso   1.00
H242   H     0.21768   0.59299   0.30762   0.00000  Uiso   1.00
H243   H     0.22063   0.40859   0.30731   0.00000  Uiso   1.00
H244   H     0.11270   0.59141   0.19269   0.00000  Uiso   1.00
H245   H     0.26856   0.52235   0.04829   0.00000  Uiso   1.00
H246   H     0.23877   0.49523   0.35918   0.00000  Uiso   1.00
H247   H     0.09456   0.50477   0.14082   0.00000  Uiso   1.00
H248   H     0.09655   0.47702   0.34837   0.00000  Uiso   1.00
H249   H     0.23678   0.52299   0.15163   0.00000  Uiso   1.00
H250   H     0.03300   0.47166   0.01396   0.00000  Uiso   1.00
H251   H     0.30034   0.52833   0.48605   0.00000  Uiso   1.00
H252   H     0.11565   0.40701   0.19238   0.00000  Uiso   1.00
N253   N     0.16667   0.61736   0.25000   0.00000  Uiso   1.00
N254   N     0.16667   0.38264   0.25000   0.00000  Uiso   1.00
O255   O     0.10655   0.53958   0.25000   0.00000  Uiso   1.00
O256   O     0.09240   0.48983   0.11118   0.00000  Uiso   1.00
O257   O     0.09250   0.48174   0.38022   0.00000  Uiso   1.00
O258   O     0.24084   0.51825   0.11978   0.00000  Uiso   1.00
O259   O     0.05551   0.47660   0.03725   0.00000  Uiso   1.00
O260   O     0.27782   0.52339   0.46275   0.00000  Uiso   1.00
O261   O     0.12543   0.37768   0.18120   0.00000  Uiso   1.00
O262   O     0.20790   0.62232   0.31880   0.00000  Uiso   1.00
O263   O     0.20834   0.38018   0.31871   0.00000  Uiso   1.00
O264   O     0.12500   0.61982   0.18129   0.00000  Uiso   1.00
O265   O     0.22679   0.46042   0.25000   0.00000  Uiso   1.00
O266   O     0.22679   0.53958   0.25000   0.00000  Uiso   1.00
O267   O     0.10655   0.46042   0.25000   0.00000  Uiso   1.00
O268   O     0.16666   0.53960   0.18513   0.00000  Uiso   1.00
O269   O     0.16668   0.46040   0.31487   0.00000  Uiso   1.00
O270   O     0.16668   0.53960   0.31487   0.00000  Uiso   1.00
O271   O     0.16666   0.46040   0.18513   0.00000  Uiso   1.00
O272   O     0.24093   0.51018   0.38882   0.00000  Uiso   1.00
C273   C     0.42084   0.49970   0.24928   0.00000  Uiso   1.00
C274   C     0.37617   0.49942   0.24971   0.00000  Uiso   1.00
C275   C     0.48024   0.35712   0.21608   0.00000  Uiso   1.00
C276   C     0.51976   0.64288   0.28392   0.00000  Uiso   1.00
C277   C     0.51994   0.35838   0.28386   0.00000  Uiso   1.00
C278   C     0.48006   0.64162   0.21614   0.00000  Uiso   1.00
C279   C     0.50022   0.50005   0.16476   0.00000  Uiso   1.00
C280   C     0.49978   0.49995   0.33524   0.00000  Uiso   1.00
C281   C     0.53744   0.50571   0.40889   0.00000  Uiso   1.00
C282   C     0.46256   0.49430   0.09111   0.00000  Uiso   1.00
C283   C     0.49991   0.49914   0.38344   0.00000  Uiso   1.00
C284   C     0.57916   0.50030   0.25072   0.00000  Uiso   1.00
C285   C     0.50009   0.50086   0.11656   0.00000  Uiso   1.00
C286   C     0.46288   0.49079   0.40410   0.00000  Uiso   1.00
C287   C     0.53712   0.50921   0.09591   0.00000  Uiso   1.00
C288   C     0.46320   0.49160   0.45059   0.00000  Uiso   1.00
C289   C     0.53680   0.50840   0.04941   0.00000  Uiso   1.00
C290   C     0.50022   0.49983   0.47654   0.00000  Uiso   1.00
C291   C     0.49978   0.50017   0.02346   0.00000  Uiso   1.00
C292   C     0.53761   0.50732   0.45570   0.00000  Uiso   1.00
C293   C     0.46239   0.49268   0.04430   0.00000  Uiso   1.00
C294   C     0.42656   0.48401   0.47145   0.00000  Uiso   1.00
C295   C     0.42556   0.48445   0.01774   0.00000  Uiso   1.00
C296   C     0.57344   0.51599   0.02855   0.00000  Uiso   1.00
C297   C     0.57444   0.51554   0.48226   0.00000  Uiso   1.00
C298   C     0.35192   0.47120   0.21981   0.00000  Uiso   1.00
C299   C     0.64808   0.52880   0.28019   0.00000  Uiso   1.00
C300   C     0.64255   0.47163   0.22019   0.00000  Uiso   1.00
C301   C     0.35745   0.52837   0.27981   0.00000  Uiso   1.00
C302   C     0.62383   0.50058   0.25029   0.00000  Uiso   1.00
Cl303  Cl    0.37397   0.43688   0.17956   0.00000  Uiso   1.00
Cl304  Cl    0.62603   0.56312   0.32043   0.00000  Uiso   1.00
Cl305  Cl    0.61282   0.43663   0.18135   0.00000  Uiso   1.00
Cl306  Cl    0.38718   0.56337   0.31865   0.00000  Uiso   1.00
Cu307  Cu    0.50000   0.54689   0.25000   0.00000  Uiso   1.00
Cu308  Cu    0.50000   0.45311   0.25000   0.00000  Uiso   1.00
H309   H     0.39810   0.47765   0.45171   0.00000  Uiso   1.00
H310   H     0.55101   0.59299   0.30762   0.00000  Uiso   1.00
H311   H     0.55396   0.40859   0.30731   0.00000  Uiso   1.00
H312   H     0.44604   0.59141   0.19269   0.00000  Uiso   1.00
H313   H     0.60190   0.52235   0.04829   0.00000  Uiso   1.00
H314   H     0.57210   0.49523   0.35918   0.00000  Uiso   1.00
H315   H     0.42790   0.50477   0.14082   0.00000  Uiso   1.00
H316   H     0.42989   0.47702   0.34837   0.00000  Uiso   1.00
H317   H     0.57011   0.52299   0.15163   0.00000  Uiso   1.00
H318   H     0.36633   0.47166   0.01396   0.00000  Uiso   1.00
H319   H     0.63367   0.52833   0.48605   0.00000  Uiso   1.00
H320   H     0.44899   0.40701   0.19238   0.00000  Uiso   1.00
N321   N     0.50000   0.61736   0.25000   0.00000  Uiso   1.00
N322   N     0.50000   0.38264   0.25000   0.00000  Uiso   1.00
O323   O     0.43988   0.53958   0.25000   0.00000  Uiso   1.00
O324   O     0.42574   0.48983   0.11118   0.00000  Uiso   1.00
O325   O     0.42583   0.48174   0.38022   0.00000  Uiso   1.00
O326   O     0.57417   0.51825   0.11978   0.00000  Uiso   1.00
O327   O     0.38884   0.47660   0.03725   0.00000  Uiso   1.00
O328   O     0.61116   0.52339   0.46275   0.00000  Uiso   1.00
O329   O     0.45876   0.37768   0.18120   0.00000  Uiso   1.00
O330   O     0.54124   0.62232   0.31880   0.00000  Uiso   1.00
O331   O     0.54167   0.38018   0.31871   0.00000  Uiso   1.00
O332   O     0.45833   0.61982   0.18129   0.00000  Uiso   1.00
O333   O     0.56012   0.46042   0.25000   0.00000  Uiso   1.00
O334   O     0.56012   0.53958   0.25000   0.00000  Uiso   1.00
O335   O     0.43988   0.46042   0.25000   0.00000  Uiso   1.00
O336   O     0.49999   0.53960   0.18513   0.00000  Uiso   1.00
O337   O     0.50001   0.46040   0.31487   0.00000  Uiso   1.00
O338   O     0.50001   0.53960   0.31487   0.00000  Uiso   1.00
O339   O     0.49999   0.46040   0.18513   0.00000  Uiso   1.00
O340   O     0.57426   0.51018   0.38882   0.00000  Uiso   1.00
C341   C     0.75417   0.49970   0.24928   0.00000  Uiso   1.00
C342   C     0.70950   0.49942   0.24971   0.00000  Uiso   1.00
C343   C     0.81357   0.35712   0.21608   0.00000  Uiso   1.00
C344   C     0.85310   0.64288   0.28392   0.00000  Uiso   1.00
C345   C     0.85327   0.35838   0.28386   0.00000  Uiso   1.00
C346   C     0.81339   0.64162   0.21614   0.00000  Uiso   1.00
C347   C     0.83356   0.50005   0.16476   0.00000  Uiso   1.00
C348   C     0.83311   0.49995   0.33524   0.00000  Uiso   1.00
C349   C     0.87077   0.50571   0.40889   0.00000  Uiso   1.00
C350   C     0.79590   0.49430   0.09111   0.00000  Uiso   1.00
C351   C     0.83324   0.49914   0.38344   0.00000  Uiso   1.00
C352   C     0.91249   0.50030   0.25072   0.00000  Uiso   1.00
C353   C     0.83342   0.50086   0.11656   0.00000  Uiso   1.00
C354   C     0.79622   0.49079   0.40410   0.00000  Uiso   1.00
C355   C     0.87045   0.50921   0.09591   0.00000  Uiso   1.00
C356   C     0.79654   0.49160   0.45059   0.00000  Uiso   1.00
C357   C     0.87013   0.50840   0.04941   0.00000  Uiso   1.00
C358   C     0.83355   0.49983   0.47654   0.00000  Uiso   1.00
C359   C     0.83312   0.50017   0.02346   0.00000  Uiso   1.00
C360   C     0.87095   0.50732   0.45570   0.00000  Uiso   1.00
C361   C     0.79572   0.49268   0.04430   0.00000  Uiso   1.00
C362   C     0.75989   0.48401   0.47145   0.00000  Uiso   1.00
C363   C     0.75890   0.48445   0.01774   0.00000  Uiso   1.00
C364   C     0.90678   0.51599   0.02855   0.00000  Uiso   1.00
C365   C     0.90777   0.51554   0.48226   0.00000  Uiso   1.00
C366   C     0.68526   0.47120   0.21981   0.00000  Uiso   1.00
C367   C     0.98141   0.52880   0.28019   0.00000  Uiso   1.00
C368   C     0.97588   0.47163   0.22019   0.00000  Uiso   1.00
C369   C     0.69078   0.52837   0.27981   0.00000  Uiso   1.00
C370   C     0.95716   0.50058   0.25029   0.00000  Uiso   1.00
Cl371  Cl    0.70730   0.43688   0.17956   0.00000  Uiso   1.00
Cl372  Cl    0.95936   0.56312   0.32043   0.00000  Uiso   1.00
Cl373  Cl    0.94615   0.43663   0.18135   0.00000  Uiso   1.00
Cl374  Cl    0.72052   0.56337   0.31865   0.00000  Uiso   1.00
Cu375  Cu    0.83333   0.54689   0.25000   0.00000  Uiso   1.00
Cu376  Cu    0.83333   0.45311   0.25000   0.00000  Uiso   1.00
H377   H     0.73144   0.47765   0.45171   0.00000  Uiso   1.00
H378   H     0.88435   0.59299   0.30762   0.00000  Uiso   1.00
H379   H     0.88730   0.40859   0.30731   0.00000  Uiso   1.00
H380   H     0.77937   0.59141   0.19269   0.00000  Uiso   1.00
H381   H     0.93523   0.52235   0.04829   0.00000  Uiso   1.00
H382   H     0.90544   0.49523   0.35918   0.00000  Uiso   1.00
H383   H     0.76123   0.50477   0.14082   0.00000  Uiso   1.00
H384   H     0.76322   0.47702   0.34837   0.00000  Uiso   1.00
H385   H     0.90344   0.52299   0.15163   0.00000  Uiso   1.00
H386   H     0.69966   0.47166   0.01396   0.00000  Uiso   1.00
H387   H     0.96700   0.52833   0.48605   0.00000  Uiso   1.00
H388   H     0.78232   0.40701   0.19238   0.00000  Uiso   1.00
N389   N     0.83333   0.61736   0.25000   0.00000  Uiso   1.00
N390   N     0.83333   0.38264   0.25000   0.00000  Uiso   1.00
O391   O     0.77321   0.53958   0.25000   0.00000  Uiso   1.00
O392   O     0.75907   0.48983   0.11118   0.00000  Uiso   1.00
O393   O     0.75916   0.48174   0.38022   0.00000  Uiso   1.00
O394   O     0.90750   0.51825   0.11978   0.00000  Uiso   1.00
O395   O     0.72218   0.47660   0.03725   0.00000  Uiso   1.00
O396   O     0.94449   0.52339   0.46275   0.00000  Uiso   1.00
O397   O     0.79210   0.37768   0.18120   0.00000  Uiso   1.00
O398   O     0.87457   0.62232   0.31880   0.00000  Uiso   1.00
O399   O     0.87500   0.38018   0.31871   0.00000  Uiso   1.00
O400   O     0.79166   0.61982   0.18129   0.00000  Uiso   1.00
O401   O     0.89345   0.46042   0.25000   0.00000  Uiso   1.00
O402   O     0.89345   0.53958   0.25000   0.00000  Uiso   1.00
O403   O     0.77321   0.46042   0.25000   0.00000  Uiso   1.00
O404   O     0.83332   0.53960   0.18513   0.00000  Uiso   1.00
O405   O     0.83334   0.46040   0.31487   0.00000  Uiso   1.00
O406   O     0.83334   0.53960   0.31487   0.00000  Uiso   1.00
O407   O     0.83332   0.46040   0.18513   0.00000  Uiso   1.00
O408   O     0.90760   0.51018   0.38882   0.00000  Uiso   1.00
C409   C     0.08751   0.83303   0.24928   0.00000  Uiso   1.00
C410   C     0.04284   0.83275   0.24971   0.00000  Uiso   1.00
C411   C     0.14690   0.69045   0.21608   0.00000  Uiso   1.00
C412   C     0.18643   0.97621   0.28392   0.00000  Uiso   1.00
C413   C     0.18661   0.69171   0.28386   0.00000  Uiso   1.00
C414   C     0.14673   0.97496   0.21614   0.00000  Uiso   1.00
C415   C     0.16689   0.83338   0.16476   0.00000  Uiso   1.00
C416   C     0.16644   0.83328   0.33524   0.00000  Uiso   1.00
C417   C     0.20410   0.83904   0.40889   0.00000  Uiso   1.00
C418   C     0.12923   0.82763   0.09111   0.00000  Uiso   1.00
C419   C     0.16658   0.83247   0.38344   0.00000  Uiso   1.00
C420   C     0.24583   0.83364   0.25072   0.00000  Uiso   1.00
C421   C     0.16675   0.83419   0.11656   0.00000  Uiso   1.00
C422   C     0.12955   0.82413   0.40410   0.00000  Uiso   1.00
C423   C     0.20378   0.84254   0.09591   0.00000  Uiso   1.00
C424   C     0.12987   0.82493   0.45059   0.00000  Uiso   1.00
C425   C     0.20346   0.84173   0.04941   0.00000  Uiso   1.00
C426   C     0.16688   0.83316   0.47654   0.00000  Uiso   1.00
C427   C     0.16645   0.83350   0.02346   0.00000  Uiso   1.00
C428   C     0.20428   0.84065   0.45570   0.00000  Uiso   1.00
C429   C     0.12905   0.82602   0.04430   0.00000  Uiso   1.00
C430   C     0.09322   0.81734   0.47145   0.00000  Uiso   1.00
C431   C     0.09223   0.81779   0.01774   0.00000  Uiso   1.00
C432   C     0.24011   0.84932   0.02855   0.00000  Uiso   1.00
C433   C     0.24110   0.84888   0.48226   0.00000  Uiso   1.00
C434   C     0.01859   0.80454   0.21981   0.00000  Uiso   1.00
C435   C     0.31474   0.86213   0.28019   0.00000  Uiso   1.00
C436   C     0.30921   0.80496   0.22019   0.00000  Uiso   1.00
C437   C     0.02412   0.86170   0.27981   0.00000  Uiso   1.00
C438   C     0.29050   0.83392   0.25029   0.00000  Uiso   1.00
Cl439  Cl    0.04064   0.77022   0.17956   0.00000  Uiso   1.00
Cl440  Cl    0.29270   0.89645   0.32043   0.00000  Uiso   1.00
Cl441  Cl    0.27948   0.76997   0.18135   0.00000  Uiso   1.00
Cl442  Cl    0.05385   0.89670   0.31865   0.00000  Uiso   1.00
Cu443  Cu    0.16667   0.88022   0.25000   0.00000  Uiso   1.00
Cu444  Cu    0.16667   0.78645   0.25000   0.00000  Uiso   1.00
H445   H     0.06477   0.81098   0.45171   0.00000  Uiso   1.00
H446   H     0.21768   0.92632   0.30762   0.00000  Uiso   1.00
H447   H     0.22063   0.74192   0.30731   0.00000  Uiso   1.00
H448   H     0.11270   0.92474   0.19269   0.00000  Uiso   1.00
H449   H     0.26856   0.85568   0.04829   0.00000  Uiso   1.00
H450   H     0.23877   0.82857   0.35918   0.00000  Uiso   1.00
H451   H     0.09456   0.83811   0.14082   0.00000  Uiso   1.00
H452   H     0.09655   0.81035   0.34837   0.00000  Uiso   1.00
H453   H     0.23678   0.85632   0.15163   0.00000  Uiso   1.00
H454   H     0.03300   0.80500   0.01396   0.00000  Uiso   1.00
H455   H     0.30034   0.86167   0.48605   0.00000  Uiso   1.00
H456   H     0.11565   0.74034   0.19238   0.00000  Uiso   1.00
N457   N     0.16667   0.95069   0.25000   0.00000  Uiso   1.00
N458   N     0.16667   0.71598   0.25000   0.00000  Uiso   1.00
O459   O     0.10655   0.87291   0.25000   0.00000  Uiso   1.00
O460   O     0.09240   0.82316   0.11118   0.00000  Uiso   1.00
O461   O     0.09250   0.81508   0.38022   0.00000  Uiso   1.00
O462   O     0.24084   0.85159   0.11978   0.00000  Uiso   1.00
O463   O     0.05551   0.80994   0.03725   0.00000  Uiso   1.00
O464   O     0.27782   0.85673   0.46275   0.00000  Uiso   1.00
O465   O     0.12543   0.71102   0.18120   0.00000  Uiso   1.00
O466   O     0.20790   0.95565   0.31880   0.00000  Uiso   1.00
O467   O     0.20834   0.71351   0.31871   0.00000  Uiso   1.00
O468   O     0.12500   0.95316   0.18129   0.00000  Uiso   1.00
O469   O     0.22679   0.79375   0.25000   0.00000  Uiso   1.00
O470   O     0.22679   0.87291   0.25000   0.00000  Uiso   1.00
O471   O     0.10655   0.79375   0.25000   0.00000  Uiso   1.00
O472   O     0.16666   0.87293   0.18513   0.00000  Uiso   1.00
O473   O     0.16668   0.79373   0.31487   0.00000  Uiso   1.00
O474   O     0.16668   0.87293   0.31487   0.00000  Uiso   1.00
O475   O     0.16666   0.79373   0.18513   0.00000  Uiso   1.00
O476   O     0.24093   0.84351   0.38882   0.00000  Uiso   1.00
C477   C     0.42084   0.83303   0.24928   0.00000  Uiso   1.00
C478   C     0.37617   0.83275   0.24971   0.00000  Uiso   1.00
C479   C     0.48024   0.69045   0.21608   0.00000  Uiso   1.00
C480   C     0.51976   0.97621   0.28392   0.00000  Uiso   1.00
C481   C     0.51994   0.69171   0.28386   0.00000  Uiso   1.00
C482   C     0.48006   0.97496   0.21614   0.00000  Uiso   1.00
C483   C     0.50022   0.83338   0.16476   0.00000  Uiso   1.00
C484   C     0.49978   0.83328   0.33524   0.00000  Uiso   1.00
C485   C     0.53744   0.83904   0.40889   0.00000  Uiso   1.00
C486   C     0.46256   0.82763   0.09111   0.00000  Uiso   1.00
C487   C     0.49991   0.83247   0.38344   0.00000  Uiso   1.00
C488   C     0.57916   0.83364   0.25072   0.00000  Uiso   1.00
C489   C     0.50009   0.83419   0.11656   0.00000  Uiso   1.00
C490   C     0.46288   0.82413   0.40410   0.00000  Uiso   1.00
C491   C     0.53712   0.84254   0.09591   0.00000  Uiso   1.00
C492   C     0.46320   0.82493   0.45059   0.00000  Uiso   1.00
C493   C     0.53680   0.84173   0.04941   0.00000  Uiso   1.00
C494   C     0.50022   0.83316   0.47654   0.00000  Uiso   1.00
C495   C     0.49978   0.83350   0.02346   0.00000  Uiso   1.00
C496   C     0.53761   0.84065   0.45570   0.00000  Uiso   1.00
C497   C     0.46239   0.82602   0.04430   0.00000  Uiso   1.00
C498   C     0.42656   0.81734   0.47145   0.00000  Uiso   1.00
C499   C     0.42556   0.81779   0.01774   0.00000  Uiso   1.00
C500   C     0.57344   0.84932   0.02855   0.00000  Uiso   1.00
C501   C     0.57444   0.84888   0.48226   0.00000  Uiso   1.00
C502   C     0.35192   0.80454   0.21981   0.00000  Uiso   1.00
C503   C     0.64808   0.86213   0.28019   0.00000  Uiso   1.00
C504   C     0.64255   0.80496   0.22019   0.00000  Uiso   1.00
C505   C     0.35745   0.86170   0.27981   0.00000  Uiso   1.00
C506   C     0.62383   0.83392   0.25029   0.00000  Uiso   1.00
Cl507  Cl    0.37397   0.77022   0.17956   0.00000  Uiso   1.00
Cl508  Cl    0.62603   0.89645   0.32043   0.00000  Uiso   1.00
Cl509  Cl    0.61282   0.76997   0.18135   0.00000  Uiso   1.00
Cl510  Cl    0.38718   0.89670   0.31865   0.00000  Uiso   1.00
Cu511  Cu    0.50000   0.88022   0.25000   0.00000  Uiso   1.00
Cu512  Cu    0.50000   0.78645   0.25000   0.00000  Uiso   1.00
H513   H     0.39810   0.81098   0.45171   0.00000  Uiso   1.00
H514   H     0.55101   0.92632   0.30762   0.00000  Uiso   1.00
H515   H     0.55396   0.74192   0.30731   0.00000  Uiso   1.00
H516   H     0.44604   0.92474   0.19269   0.00000  Uiso   1.00
H517   H     0.60190   0.85568   0.04829   0.00000  Uiso   1.00
H518   H     0.57210   0.82857   0.35918   0.00000  Uiso   1.00
H519   H     0.42790   0.83811   0.14082   0.00000  Uiso   1.00
H520   H     0.42989   0.81035   0.34837   0.00000  Uiso   1.00
H521   H     0.57011   0.85632   0.15163   0.00000  Uiso   1.00
H522   H     0.36633   0.80500   0.01396   0.00000  Uiso   1.00
H523   H     0.63367   0.86167   0.48605   0.00000  Uiso   1.00
H524   H     0.44899   0.74034   0.19238   0.00000  Uiso   1.00
N525   N     0.50000   0.95069   0.25000   0.00000  Uiso   1.00
N526   N     0.50000   0.71598   0.25000   0.00000  Uiso   1.00
O527   O     0.43988   0.87291   0.25000   0.00000  Uiso   1.00
O528   O     0.42574   0.82316   0.11118   0.00000  Uiso   1.00
O529   O     0.42583   0.81508   0.38022   0.00000  Uiso   1.00
O530   O     0.57417   0.85159   0.11978   0.00000  Uiso   1.00
O531   O     0.38884   0.80994   0.03725   0.00000  Uiso   1.00
O532   O     0.61116   0.85673   0.46275   0.00000  Uiso   1.00
O533   O     0.45876   0.71102   0.18120   0.00000  Uiso   1.00
O534   O     0.54124   0.95565   0.31880   0.00000  Uiso   1.00
O535   O     0.54167   0.71351   0.31871   0.00000  Uiso   1.00
O536   O     0.45833   0.95316   0.18129   0.00000  Uiso   1.00
O537   O     0.56012   0.79375   0.25000   0.00000  Uiso   1.00
O538   O     0.56012   0.87291   0.25000   0.00000  Uiso   1.00
O539   O     0.43988   0.79375   0.25000   0.00000  Uiso   1.00
O540   O     0.49999   0.87293   0.18513   0.00000  Uiso   1.00
O541   O     0.50001   0.79373   0.31487   0.00000  Uiso   1.00
O542   O     0.50001   0.87293   0.31487   0.00000  Uiso   1.00
O543   O     0.49999   0.79373   0.18513   0.00000  Uiso   1.00
O544   O     0.57426   0.84351   0.38882   0.00000  Uiso   1.00
C545   C     0.75417   0.83303   0.24928   0.00000  Uiso   1.00
C546   C     0.70950   0.83275   0.24971   0.00000  Uiso   1.00
C547   C     0.81357   0.69045   0.21608   0.00000  Uiso   1.00
C548   C     0.85310   0.97621   0.28392   0.00000  Uiso   1.00
C549   C     0.85327   0.69171   0.28386   0.00000  Uiso   1.00
C550   C     0.81339   0.97496   0.21614   0.00000  Uiso   1.00
C551   C     0.83356   0.83338   0.16476   0.00000  Uiso   1.00
C552   C     0.83311   0.83328   0.33524   0.00000  Uiso   1.00
C553   C     0.87077   0.83904   0.40889   0.00000  Uiso   1.00
C554   C     0.79590   0.82763   0.09111   0.00000  Uiso   1.00
C555   C     0.83324   0.83247   0.38344   0.00000  Uiso   1.00
C556   C     0.91249   0.83364   0.25072   0.00000  Uiso   1.00
C557   C     0.83342   0.83419   0.11656   0.00000  Uiso   1.00
C558   C     0.79622   0.82413   0.40410   0.00000  Uiso   1.00
C559   C     0.87045   0.84254   0.09591   0.00000  Uiso   1.00
C560   C     0.79654   0.82493   0.45059   0.00000  Uiso   1.00
C561   C     0.87013   0.84173   0.04941   0.00000  Uiso   1.00
C562   C     0.83355   0.83316   0.47654   0.00000  Uiso   1.00
C563   C     0.83312   0.83350   0.02346   0.00000  Uiso   1.00
C564   C     0.87095   0.84065   0.45570   0.00000  Uiso   1.00
C565   C     0.79572   0.82602   0.04430   0.00000  Uiso   1.00
C566   C     0.75989   0.81734   0.47145   0.00000  Uiso   1.00
C567   C     0.75890   0.81779   0.01774   0.00000  Uiso   1.00
C568   C     0.90678   0.84932   0.02855   0.00000  Uiso   1.00
C569   C     0.90777   0.84888   0.48226   0.00000  Uiso   1.00
C570   C     0.68526   0.80454   0.21981   0.00000  Uiso   1.00
C571   C     0.98141   0.86213   0.28019   0.00000  Uiso   1.00
C572   C     0.97588   0.80496   0.22019   0.00000  Uiso   1.00
C573   C     0.69078   0.86170   0.27981   0.00000  Uiso   1.00
C574   C     0.95716   0.83392   0.25029   0.00000  Uiso   1.00
Cl575  Cl    0.70730   0.77022   0.17956   0.00000  Uiso   1.00
Cl576  Cl    0.95936   0.89645   0.32043   0.00000  Uiso   1.00
Cl577  Cl    0.94615   0.76997   0.18135   0.00000  Uiso   1.00
Cl578  Cl    0.72052   0.89670   0.31865   0.00000  Uiso   1.00
Cu579  Cu    0.83333   0.88022   0.25000   0.00000  Uiso   1.00
Cu580  Cu    0.83333   0.78645   0.25000   0.00000  Uiso   1.00
H581   H     0.73144   0.81098   0.45171   0.00000  Uiso   1.00
H582   H     0.88435   0.92632   0.30762   0.00000  Uiso   1.00
H583   H     0.88730   0.74192   0.30731   0.00000  Uiso   1.00
H584   H     0.77937   0.92474   0.19269   0.00000  Uiso   1.00
H585   H     0.93523   0.85568   0.04829   0.00000  Uiso   1.00
H586   H     0.90544   0.82857   0.35918   0.00000  Uiso   1.00
H587   H     0.76123   0.83811   0.14082   0.00000  Uiso   1.00
H588   H     0.76322   0.81035   0.34837   0.00000  Uiso   1.00
H589   H     0.90344   0.85632   0.15163   0.00000  Uiso   1.00
H590   H     0.69966   0.80500   0.01396   0.00000  Uiso   1.00
H591   H     0.96700   0.86167   0.48605   0.00000  Uiso   1.00
H592   H     0.78232   0.74034   0.19238   0.00000  Uiso   1.00
N593   N     0.83333   0.95069   0.25000   0.00000  Uiso   1.00
N594   N     0.83333   0.71598   0.25000   0.00000  Uiso   1.00
O595   O     0.77321   0.87291   0.25000   0.00000  Uiso   1.00
O596   O     0.75907   0.82316   0.11118   0.00000  Uiso   1.00
O597   O     0.75916   0.81508   0.38022   0.00000  Uiso   1.00
O598   O     0.90750   0.85159   0.11978   0.00000  Uiso   1.00
O599   O     0.72218   0.80994   0.03725   0.00000  Uiso   1.00
O600   O     0.94449   0.85673   0.46275   0.00000  Uiso   1.00
O601   O     0.79210   0.71102   0.18120   0.00000  Uiso   1.00
O602   O     0.87457   0.95565   0.31880   0.00000  Uiso   1.00
O603   O     0.87500   0.71351   0.31871   0.00000  Uiso   1.00
O604   O     0.79166   0.95316   0.18129   0.00000  Uiso   1.00
O605   O     0.89345   0.79375   0.25000   0.00000  Uiso   1.00
O606   O     0.89345   0.87291   0.25000   0.00000  Uiso   1.00
O607   O     0.77321   0.79375   0.25000   0.00000  Uiso   1.00
O608   O     0.83332   0.87293   0.18513   0.00000  Uiso   1.00
O609   O     0.83334   0.79373   0.31487   0.00000  Uiso   1.00
O610   O     0.83334   0.87293   0.31487   0.00000  Uiso   1.00
O611   O     0.83332   0.79373   0.18513   0.00000  Uiso   1.00
O612   O     0.90760   0.84351   0.38882   0.00000  Uiso   1.00
C613   C     0.08751   0.16636   0.74928   0.00000  Uiso   1.00
C614   C     0.04284   0.16608   0.74971   0.00000  Uiso   1.00
C615   C     0.14690   0.02379   0.71608   0.00000  Uiso   1.00
C616   C     0.18643   0.30955   0.78392   0.00000  Uiso   1.00
C617   C     0.18661   0.02504   0.78386   0.00000  Uiso   1.00
C618   C     0.14673   0.30829   0.71614   0.00000  Uiso   1.00
C619   C     0.16689   0.16672   0.66476   0.00000  Uiso   1.00
C620   C     0.16644   0.16662   0.83524   0.00000  Uiso   1.00
C621   C     0.20410   0.17237   0.90889   0.00000  Uiso   1.00
C622   C     0.12923   0.16096   0.59111   0.00000  Uiso   1.00
C623   C     0.16658   0.16581   0.88344   0.00000  Uiso   1.00
C624   C     0.24583   0.16697   0.75072   0.00000  Uiso   1.00
C625   C     0.16675   0.16753   0.61656   0.00000  Uiso   1.00
C626   C     0.12955   0.15746   0.90410   0.00000  Uiso   1.00
C627   C     0.20378   0.17587   0.59591   0.00000  Uiso   1.00
C628   C     0.12987   0.15827   0.95059   0.00000  Uiso   1.00
C629   C     0.20346   0.17507   0.54941   0.00000  Uiso   1.00
C630   C     0.16688   0.16650   0.97654   0.00000  Uiso   1.00
C631   C     0.16645   0.16684   0.52346   0.00000  Uiso   1.00
C632   C     0.20428   0.17398   0.95570   0.00000  Uiso   1.00
C633   C     0.12905   0.15935   0.54430   0.00000  Uiso   1.00
C634   C     0.09322   0.15068   0.97145   0.00000  Uiso   1.00
C635   C     0.09223   0.15112   0.51774   0.00000  Uiso   1.00
C636   C     0.24011   0.18266   0.52855   0.00000  Uiso   1.00
C637   C     0.24110   0.18221   0.98226   0.00000  Uiso   1.00
C638   C     0.01859   0.13787   0.71981   0.00000  Uiso   1.00
C639   C     0.31474   0.19546   0.78019   0.00000  Uiso   1.00
C640   C     0.30921   0.13830   0.72019   0.00000  Uiso   1.00
C641   C     0.02412   0.19504   0.77981   0.00000  Uiso   1.00
C642   C     0.29050   0.16725   0.75029   0.00000  Uiso   1.00
Cl643  Cl    0.04064   0.10355   0.67956   0.00000  Uiso   1.00
Cl644  Cl    0.29270   0.22978   0.82043   0.00000  Uiso   1.00
Cl645  Cl    0.27948   0.10330   0.68135   0.00000  Uiso   1.00
Cl646  Cl    0.05385   0.23003   0.81865   0.00000  Uiso   1.00
Cu647  Cu    0.16667   0.21355   0.75000   0.00000  Uiso   1.00
Cu648  Cu    0.16667   0.11978   0.75000   0.00000  Uiso   1.00
H649   H     0.06477   0.14431   0.95171   0.00000  Uiso   1.00
H650   H     0.21768   0.25966   0.80762   0.00000  Uiso   1.00
H651   H     0.22063   0.07526   0.80731   0.00000  Uiso   1.00
H652   H     0.11270   0.25808   0.69269   0.00000  Uiso   1.00
H653   H     0.26856   0.18902   0.54829   0.00000  Uiso   1.00
H654   H     0.23877   0.16190   0.85918   0.00000  Uiso   1.00
H655   H     0.09456   0.17144   0.64082   0.00000  Uiso   1.00
H656   H     0.09655   0.14368   0.84837   0.00000  Uiso   1.00
H657   H     0.23678   0.18965   0.65163   0.00000  Uiso   1.00
H658   H     0.03300   0.13833   0.51396   0.00000  Uiso   1.00
H659   H     0.30034   0.19500   0.98605   0.00000  Uiso   1.00
H660   H     0.11565   0.07368   0.69238   0.00000  Uiso   1.00
N661   N     0.16667   0.28402   0.75000   0.00000  Uiso   1.00
N662   N     0.16667   0.04931   0.75000   0.00000  Uiso   1.00
O663   O     0.10655   0.20625   0.75000   0.00000  Uiso   1.00
O664   O     0.09240   0.15649   0.61118   0.00000  Uiso   1.00
O665   O     0.09250   0.14841   0.88022   0.00000  Uiso   1.00
O666   O     0.24084   0.18492   0.61978   0.00000  Uiso   1.00
O667   O     0.05551   0.14327   0.53725   0.00000  Uiso   1.00
O668   O     0.27782   0.19006   0.96275   0.00000  Uiso   1.00
O669   O     0.12543   0.04435   0.68120   0.00000  Uiso   1.00
O670   O     0.20790   0.28898   0.81880   0.00000  Uiso   1.00
O671   O     0.20834   0.04684   0.81871   0.00000  Uiso   1.00
O672   O     0.12500   0.28649   0.68129   0.00000  Uiso   1.00
O673   O     0.22679   0.12709   0.75000   0.00000  Uiso   1.00
O674   O     0.22679   0.20625   0.75000   0.00000  Uiso   1.00
O675   O     0.10655   0.12709   0.75000   0.00000  Uiso   1.00
O676   O     0.16666   0.20627   0.68513   0.00000  Uiso   1.00
O677   O     0.16668   0.12707   0.81487   0.00000  Uiso   1.00
O678   O     0.16668   0.20627   0.81487   0.00000  Uiso   1.00
O679   O     0.16666   0.12707   0.68513   0.00000  Uiso   1.00
O680   O     0.24093   0.17685   0.88882   0.00000  Uiso   1.00
C681   C     0.42084   0.16636   0.74928   0.00000  Uiso   1.00
C682   C     0.37617   0.16608   0.74971   0.00000  Uiso   1.00
C683   C     0.48024   0.02379   0.71608   0.00000  Uiso   1.00
C684   C     0.51976   0.30955   0.78392   0.00000  Uiso   1.00
C685   C     0.51994   0.02504   0.78386   0.00000  Uiso   1.00
C686   C     0.48006   0.30829   0.71614   0.00000  Uiso   1.00
C687   C     0.50022   0.16672   0.66476   0.00000  Uiso   1.00
C688   C     0.49978   0.16662   0.83524   0.00000  Uiso   1.00
C689   C     0.53744   0.17237   0.90889   0.00000  Uiso   1.00
C690   C     0.46256   0.16096   0.59111   0.00000  Uiso   1.00
C691   C     0.49991   0.16581   0.88344   0.00000  Uiso   1.00
C692   C     0.57916   0.16697   0.75072   0.00000  Uiso   1.00
C693   C     0.50009   0.16753   0.61656   0.00000  Uiso   1.00
C694   C     0.46288   0.15746   0.90410   0.00000  Uiso   1.00
C695   C     0.53712   0.17587   0.59591   0.00000  Uiso   1.00
C696   C     0.46320   0.15827   0.95059   0.00000  Uiso   1.00
C697   C     0.53680   0.17507   0.54941   0.00000  Uiso   1.00
C698   C     0.50022   0.16650   0.97654   0.00000  Uiso   1.00
C699   C     0.49978   0.16684   0.52346   0.00000  Uiso   1.00
C700   C     0.53761   0.17398   0.95570   0.00000  Uiso   1.00
C701   C     0.46239   0.15935   0.54430   0.00000  Uiso   1.00
C702   C     0.42656   0.15068   0.97145   0.00000  Uiso   1.00
C703   C     0.42556   0.15112   0.51774   0.00000  Uiso   1.00
C704   C     0.57344   0.18266   0.52855   0.00000  Uiso   1.00
C705   C     0.57444   0.18221   0.98226   0.00000  Uiso   1.00
C706   C     0.35192   0.13787   0.71981   0.00000  Uiso   1.00
C707   C     0.64808   0.19546   0.78019   0.00000  Uiso   1.00
C708   C     0.64255   0.13830   0.72019   0.00000  Uiso   1.00
C709   C     0.35745   0.19504   0.77981   0.00000  Uiso   1.00
C710   C     0.62383   0.16725   0.75029   0.00000  Uiso   1.00
Cl711  Cl    0.37397   0.10355   0.67956   0.00000  Uiso   1.00
Cl712  Cl    0.62603   0.22978   0.82043   0.00000  Uiso   1.00
Cl713  Cl    0.61282   0.10330   0.68135   0.00000  Uiso   1.00
Cl714  Cl    0.38718   0.23003   0.81865   0.00000  Uiso   1.00
Cu715  Cu    0.50000   0.21355   0.75000   0.00000  Uiso   1.00
Cu716  Cu    0.50000   0.11978   0.75000   0.00000  Uiso   1.00
H717   H     0.39810   0.14431   0.95171   0.00000  Uiso   1.00
H718   H     0.55101   0.25966   0.80762   0.00000  Uiso   1.00
H719   H     0.55396   0.07526   0.80731   0.00000  Uiso   1.00
H720   H     0.44604   0.25808   0.69269   0.00000  Uiso   1.00
H721   H     0.60190   0.18902   0.54829   0.00000  Uiso   1.00
H722   H     0.57210   0.16190   0.85918   0.00000  Uiso   1.00
H723   H     0.42790   0.17144   0.64082   0.00000  Uiso   1.00
H724   H     0.42989   0.14368   0.84837   0.00000  Uiso   1.00
H725   H     0.57011   0.18965   0.65163   0.00000  Uiso   1.00
H726   H     0.36633   0.13833   0.51396   0.00000  Uiso   1.00
H727   H     0.63367   0.19500   0.98605   0.00000  Uiso   1.00
H728   H     0.44899   0.07368   0.69238   0.00000  Uiso   1.00
N729   N     0.50000   0.28402   0.75000   0.00000  Uiso   1.00
N730   N     0.50000   0.04931   0.75000   0.00000  Uiso   1.00
O731   O     0.43988   0.20625   0.75000   0.00000  Uiso   1.00
O732   O     0.42574   0.15649   0.61118   0.00000  Uiso   1.00
O733   O     0.42583   0.14841   0.88022   0.00000  Uiso   1.00
O734   O     0.57417   0.18492   0.61978   0.00000  Uiso   1.00
O735   O     0.38884   0.14327   0.53725   0.00000  Uiso   1.00
O736   O     0.61116   0.19006   0.96275   0.00000  Uiso   1.00
O737   O     0.45876   0.04435   0.68120   0.00000  Uiso   1.00
O738   O     0.54124   0.28898   0.81880   0.00000  Uiso   1.00
O739   O     0.54167   0.04684   0.81871   0.00000  Uiso   1.00
O740   O     0.45833   0.28649   0.68129   0.00000  Uiso   1.00
O741   O     0.56012   0.12709   0.75000   0.00000  Uiso   1.00
O742   O     0.56012   0.20625   0.75000   0.00000  Uiso   1.00
O743   O     0.43988   0.12709   0.75000   0.00000  Uiso   1.00
O744   O     0.49999   0.20627   0.68513   0.00000  Uiso   1.00
O745   O     0.50001   0.12707   0.81487   0.00000  Uiso   1.00
O746   O     0.50001   0.20627   0.81487   0.00000  Uiso   1.00
O747   O     0.49999   0.12707   0.68513   0.00000  Uiso   1.00
O748   O     0.57426   0.17685   0.88882   0.00000  Uiso   1.00
C749   C     0.75417   0.16636   0.74928   0.00000  Uiso   1.00
C750   C     0.70950   0.16608   0.74971   0.00000  Uiso   1.00
C751   C     0.81357   0.02379   0.71608   0.00000  Uiso   1.00
C752   C     0.85310   0.30955   0.78392   0.00000  Uiso   1.00
C753   C     0.85327   0.02504   0.78386   0.00000  Uiso   1.00
C754   C     0.81339   0.30829   0.71614   0.00000  Uiso   1.00
C755   C     0.83356   0.16672   0.66476   0.00000  Uiso   1.00
C756   C     0.83311   0.16662   0.83524   0.00000  Uiso   1.00
C757   C     0.87077   0.17237   0.90889   0.00000  Uiso   1.00
C758   C     0.79590   0.16096   0.59111   0.00000  Uiso   1.00
C759   C     0.83324   0.16581   0.88344   0.00000  Uiso   1.00
C760   C     0.91249   0.16697   0.75072   0.00000  Uiso   1.00
C761   C     0.83342   0.16753   0.61656   0.00000  Uiso   1.00
C762   C     0.79622   0.15746   0.90410   0.00000  Uiso   1.00
C763   C     0.87045   0.17587   0.59591   0.00000  Uiso   1.00
C764   C     0.79654   0.15827   0.95059   0.00000  Uiso   1.00
C765   C     0.87013   0.17507   0.54941   0.00000  Uiso   1.00
C766   C     0.83355   0.16650   0.97654   0.00000  Uiso   1.00
C767   C     0.83312   0.16684   0.52346   0.00000  Uiso   1.00
C768   C     0.87095   0.17398   0.95570   0.00000  Uiso   1.00
C769   C     0.79572   0.15935   0.54430   0.00000  Uiso   1.00
C770   C     0.75989   0.15068   0.97145   0.00000  Uiso   1.00
C771   C     0.75890   0.15112   0.51774   0.00000  Uiso   1.00
C772   C     0.90678   0.18266   0.52855   0.00000  Uiso   1.00
C773   C     0.90777   0.18221   0.98226   0.00000  Uiso   1.00
C774   C     0.68526   0.13787   0.71981   0.00000  Uiso   1.00
C775   C     0.98141   0.19546   0.78019   0.00000  Uiso   1.00
C776   C     0.97588   0.13830   0.72019   0.00000  Uiso   1.00
C777   C     0.69078   0.19504   0.77981   0.00000  Uiso   1.00
C778   C     0.95716   0.16725   0.75029   0.00000  Uiso   1.00
Cl779  Cl    0.70730   0.10355   0.67956   0.00000  Uiso   1.00
Cl780  Cl    0.95936   0.22978   0.82043   0.00000  Uiso   1.00
Cl781  Cl    0.94615   0.10330   0.68135   0.00000  Uiso   1.00
Cl782  Cl    0.72052   0.23003   0.81865   0.00000  Uiso   1.00
Cu783  Cu    0.83333   0.21355   0.75000   0.00000  Uiso   1.00
Cu784  Cu    0.83333   0.11978   0.75000   0.00000  Uiso   1.00
H785   H     0.73144   0.14431   0.95171   0.00000  Uiso   1.00
H786   H     0.88435   0.25966   0.80762   0.00000  Uiso   1.00
H787   H     0.88730   0.07526   0.80731   0.00000  Uiso   1.00
H788   H     0.77937   0.25808   0.69269   0.00000  Uiso   1.00
H789   H     0.93523   0.18902   0.54829   0.00000  Uiso   1.00
H790   H     0.90544   0.16190   0.85918   0.00000  Uiso   1.00
H791   H     0.76123   0.17144   0.64082   0.00000  Uiso   1.00
H792   H     0.76322   0.14368   0.84837   0.00000  Uiso   1.00
H793   H     0.90344   0.18965   0.65163   0.00000  Uiso   1.00
H794   H     0.69966   0.13833   0.51396   0.00000  Uiso   1.00
H795   H     0.96700   0.19500   0.98605   0.00000  Uiso   1.00
H796   H     0.78232   0.07368   0.69238   0.00000  Uiso   1.00
N797   N     0.83333   0.28402   0.75000   0.00000  Uiso   1.00
N798   N     0.83333   0.04931   0.75000   0.00000  Uiso   1.00
O799   O     0.77321   0.20625   0.75000   0.00000  Uiso   1.00
O800   O     0.75907   0.15649   0.61118   0.00000  Uiso   1.00
O801   O     0.75916   0.14841   0.88022   0.00000  Uiso   1.00
O802   O     0.90750   0.18492   0.61978   0.00000  Uiso   1.00
O803   O     0.72218   0.14327   0.53725   0.00000  Uiso   1.00
O804   O     0.94449   0.19006   0.96275   0.00000  Uiso   1.00
O805   O     0.79210   0.04435   0.68120   0.00000  Uiso   1.00
O806   O     0.87457   0.28898   0.81880   0.00000  Uiso   1.00
O807   O     0.87500   0.04684   0.81871   0.00000  Uiso   1.00
O808   O     0.79166   0.28649   0.68129   0.00000  Uiso   1.00
O809   O     0.89345   0.12709   0.75000   0.00000  Uiso   1.00
O810   O     0.89345   0.20625   0.75000   0.00000  Uiso   1.00
O811   O     0.77321   0.12709   0.75000   0.00000  Uiso   1.00
O812   O     0.83332   0.20627   0.68513   0.00000  Uiso   1.00
O813   O     0.83334   0.12707   0.81487   0.00000  Uiso   1.00
O814   O     0.83334   0.20627   0.81487   0.00000  Uiso   1.00
O815   O     0.83332   0.12707   0.68513   0.00000  Uiso   1.00
O816   O     0.90760   0.17685   0.88882   0.00000  Uiso   1.00
C817   C     0.08751   0.49970   0.74928   0.00000  Uiso   1.00
C818   C     0.04284   0.49942   0.74971   0.00000  Uiso   1.00
C819   C     0.14690   0.35712   0.71608   0.00000  Uiso   1.00
C820   C     0.18643   0.64288   0.78392   0.00000  Uiso   1.00
C821   C     0.18661   0.35838   0.78386   0.00000  Uiso   1.00
C822   C     0.14673   0.64162   0.71614   0.00000  Uiso   1.00
C823   C     0.16689   0.50005   0.66476   0.00000  Uiso   1.00
C824   C     0.16644   0.49995   0.83524   0.00000  Uiso   1.00
C825   C     0.20410   0.50571   0.90889   0.00000  Uiso   1.00
C826   C     0.12923   0.49430   0.59111   0.00000  Uiso   1.00
C827   C     0.16658   0.49914   0.88344   0.00000  Uiso   1.00
C828   C     0.24583   0.50030   0.75072   0.00000  Uiso   1.00
C829   C     0.16675   0.50086   0.61656   0.00000  Uiso   1.00
C830   C     0.12955   0.49079   0.90410   0.00000  Uiso   1.00
C831   C     0.20378   0.50921   0.59591   0.00000  Uiso   1.00
C832   C     0.12987   0.49160   0.95059   0.00000  Uiso   1.00
C833   C     0.20346   0.50840   0.54941   0.00000  Uiso   1.00
C834   C     0.16688   0.49983   0.97654   0.00000  Uiso   1.00
C835   C     0.16645   0.50017   0.52346   0.00000  Uiso   1.00
C836   C     0.20428   0.50732   0.95570   0.00000  Uiso   1.00
C837   C     0.12905   0.49268   0.54430   0.00000  Uiso   1.00
C838   C     0.09322   0.48401   0.97145   0.00000  Uiso   1.00
C839   C     0.09223   0.48445   0.51774   0.00000  Uiso   1.00
C840   C     0.24011   0.51599   0.52855   0.00000  Uiso   1.00
C841   C     0.24110   0.51554   0.98226   0.00000  Uiso   1.00
C842   C     0.01859   0.47120   0.71981   0.00000  Uiso   1.00
C843   C     0.31474   0.52880   0.78019   0.00000  Uiso   1.00
C844   C     0.30921   0.47163   0.72019   0.00000  Uiso   1.00
C845   C     0.02412   0.52837   0.77981   0.00000  Uiso   1.00
C846   C     0.29050   0.50058   0.75029   0.00000  Uiso   1.00
Cl847  Cl    0.04064   0.43688   0.67956   0.00000  Uiso   1.00
Cl848  Cl    0.29270   0.56312   0.82043   0.00000  Uiso   1.00
Cl849  Cl    0.27948   0.43663   0.68135   0.00000  Uiso   1.00
Cl850  Cl    0.05385   0.56337   0.81865   0.00000  Uiso   1.00
Cu851  Cu    0.16667   0.54689   0.75000   0.00000  Uiso   1.00
Cu852  Cu    0.16667   0.45311   0.75000   0.00000  Uiso   1.00
H853   H     0.06477   0.47765   0.95171   0.00000  Uiso   1.00
H854   H     0.21768   0.59299   0.80762   0.00000  Uiso   1.00
H855   H     0.22063   0.40859   0.80731   0.00000  Uiso   1.00
H856   H     0.11270   0.59141   0.69269   0.00000  Uiso   1.00
H857   H     0.26856   0.52235   0.54829   0.00000  Uiso   1.00
H858   H     0.23877   0.49523   0.85918   0.00000  Uiso   1.00
H859   H     0.09456   0.50477   0.64082   0.00000  Uiso   1.00
H860   H     0.09655   0.47702   0.84837   0.00000  Uiso   1.00
H861   H     0.23678   0.52299   0.65163   0.00000  Uiso   1.00
H862   H     0.03300   0.47166   0.51396   0.00000  Uiso   1.00
H863   H     0.30034   0.52833   0.98605   0.00000  Uiso   1.00
H864   H     0.11565   0.40701   0.69238   0.00000  Uiso   1.00
N865   N     0.16667   0.61736   0.75000   0.00000  Uiso   1.00
N866   N     0.16667   0.38264   0.75000   0.00000  Uiso   1.00
O867   O     0.10655   0.53958   0.75000   0.00000  Uiso   1.00
O868   O     0.09240   0.48983   0.61118   0.00000  Uiso   1.00
O869   O     0.09250   0.48174   0.88022   0.00000  Uiso   1.00
O870   O     0.24084   0.51825   0.61978   0.00000  Uiso   1.00
O871   O     0.05551   0.47660   0.53725   0.00000  Uiso   1.00
O872   O     0.27782   0.52339   0.96275   0.00000  Uiso   1.00
O873   O     0.12543   0.37768   0.68120   0.00000  Uiso   1.00
O874   O     0.20790   0.62232   0.81880   0.00000  Uiso   1.00
O875   O     0.20834   0.38018   0.81871   0.00000  Uiso   1.00
O876   O     0.12500   0.61982   0.68129   0.00000  Uiso   1.00
O877   O     0.22679   0.46042   0.75000   0.00000  Uiso   1.00
O878   O     0.22679   0.53958   0.75000   0.00000  Uiso   1.00
O879   O     0.10655   0.46042   0.75000   0.00000  Uiso   1.00
O880   O     0.16666   0.53960   0.68513   0.00000  Uiso   1.00
O881   O     0.16668   0.46040   0.81487   0.00000  Uiso   1.00
O882   O     0.16668   0.53960   0.81487   0.00000  Uiso   1.00
O883   O     0.16666   0.46040   0.68513   0.00000  Uiso   1.00
O884   O     0.24093   0.51018   0.88882   0.00000  Uiso   1.00
C885   C     0.42084   0.49970   0.74928   0.00000  Uiso   1.00
C886   C     0.37617   0.49942   0.74971   0.00000  Uiso   1.00
C887   C     0.48024   0.35712   0.71608   0.00000  Uiso   1.00
C888   C     0.51976   0.64288   0.78392   0.00000  Uiso   1.00
C889   C     0.51994   0.35838   0.78386   0.00000  Uiso   1.00
C890   C     0.48006   0.64162   0.71614   0.00000  Uiso   1.00
C891   C     0.50022   0.50005   0.66476   0.00000  Uiso   1.00
C892   C     0.49978   0.49995   0.83524   0.00000  Uiso   1.00
C893   C     0.53744   0.50571   0.90889   0.00000  Uiso   1.00
C894   C     0.46256   0.49430   0.59111   0.00000  Uiso   1.00
C895   C     0.49991   0.49914   0.88344   0.00000  Uiso   1.00
C896   C     0.57916   0.50030   0.75072   0.00000  Uiso   1.00
C897   C     0.50009   0.50086   0.61656   0.00000  Uiso   1.00
C898   C     0.46288   0.49079   0.90410   0.00000  Uiso   1.00
C899   C     0.53712   0.50921   0.59591   0.00000  Uiso   1.00
C900   C     0.46320   0.49160   0.95059   0.00000  Uiso   1.00
C901   C     0.53680   0.50840   0.54941   0.00000  Uiso   1.00
C902   C     0.50022   0.49983   0.97654   0.00000  Uiso   1.00
C903   C     0.49978   0.50017   0.52346   0.00000  Uiso   1.00
C904   C     0.53761   0.50732   0.95570   0.00000  Uiso   1.00
C905   C     0.46239   0.49268   0.54430   0.00000  Uiso   1.00
C906   C     0.42656   0.48401   0.97145   0.00000  Uiso   1.00
C907   C     0.42556   0.48445   0.51774   0.00000  Uiso   1.00
C908   C     0.57344   0.51599   0.52855   0.00000  Uiso   1.00
C909   C     0.57444   0.51554   0.98226   0.00000  Uiso   1.00
C910   C     0.35192   0.47120   0.71981   0.00000  Uiso   1.00
C911   C     0.64808   0.52880   0.78019   0.00000  Uiso   1.00
C912   C     0.64255   0.47163   0.72019   0.00000  Uiso   1.00
C913   C     0.35745   0.52837   0.77981   0.00000  Uiso   1.00
C914   C     0.62383   0.50058   0.75029   0.00000  Uiso   1.00
Cl915  Cl    0.37397   0.43688   0.67956   0.00000  Uiso   1.00
Cl916  Cl    0.62603   0.56312   0.82043   0.00000  Uiso   1.00
Cl917  Cl    0.61282   0.43663   0.68135   0.00000  Uiso   1.00
Cl918  Cl    0.38718   0.56337   0.81865   0.00000  Uiso   1.00
Cu919  Cu    0.50000   0.54689   0.75000   0.00000  Uiso   1.00
Cu920  Cu    0.50000   0.45311   0.75000   0.00000  Uiso   1.00
H921   H     0.39810   0.47765   0.95171   0.00000  Uiso   1.00
H922   H     0.55101   0.59299   0.80762   0.00000  Uiso   1.00
H923   H     0.55396   0.40859   0.80731   0.00000  Uiso   1.00
H924   H     0.44604   0.59141   0.69269   0.00000  Uiso   1.00
H925   H     0.60190   0.52235   0.54829   0.00000  Uiso   1.00
H926   H     0.57210   0.49523   0.85918   0.00000  Uiso   1.00
H927   H     0.42790   0.50477   0.64082   0.00000  Uiso   1.00
H928   H     0.42989   0.47702   0.84837   0.00000  Uiso   1.00
H929   H     0.57011   0.52299   0.65163   0.00000  Uiso   1.00
H930   H     0.36633   0.47166   0.51396   0.00000  Uiso   1.00
H931   H     0.63367   0.52833   0.98605   0.00000  Uiso   1.00
H932   H     0.44899   0.40701   0.69238   0.00000  Uiso   1.00
N933   N     0.50000   0.61736   0.75000   0.00000  Uiso   1.00
N934   N     0.50000   0.38264   0.75000   0.00000  Uiso   1.00
O935   O     0.43988   0.53958   0.75000   0.00000  Uiso   1.00
O936   O     0.42574   0.48983   0.61118   0.00000  Uiso   1.00
O937   O     0.42583   0.48174   0.88022   0.00000  Uiso   1.00
O938   O     0.57417   0.51825   0.61978   0.00000  Uiso   1.00
O939   O     0.38884   0.47660   0.53725   0.00000  Uiso   1.00
O940   O     0.61116   0.52339   0.96275   0.00000  Uiso   1.00
O941   O     0.45876   0.37768   0.68120   0.00000  Uiso   1.00
O942   O     0.54124   0.62232   0.81880   0.00000  Uiso   1.00
O943   O     0.54167   0.38018   0.81871   0.00000  Uiso   1.00
O944   O     0.45833   0.61982   0.68129   0.00000  Uiso   1.00
O945   O     0.56012   0.46042   0.75000   0.00000  Uiso   1.00
O946   O     0.56012   0.53958   0.75000   0.00000  Uiso   1.00
O947   O     0.43988   0.46042   0.75000   0.00000  Uiso   1.00
O948   O     0.49999   0.53960   0.68513   0.00000  Uiso   1.00
O949   O     0.50001   0.46040   0.81487   0.00000  Uiso   1.00
O950   O     0.50001   0.53960   0.81487   0.00000  Uiso   1.00
O951   O     0.49999   0.46040   0.68513   0.00000  Uiso   1.00
O952   O     0.57426   0.51018   0.88882   0.00000  Uiso   1.00
C953   C     0.75417   0.49970   0.74928   0.00000  Uiso   1.00
C954   C     0.70950   0.49942   0.74971   0.00000  Uiso   1.00
C955   C     0.81357   0.35712   0.71608   0.00000  Uiso   1.00
C956   C     0.85310   0.64288   0.78392   0.00000  Uiso   1.00
C957   C     0.85327   0.35838   0.78386   0.00000  Uiso   1.00
C958   C     0.81339   0.64162   0.71614   0.00000  Uiso   1.00
C959   C     0.83356   0.50005   0.66476   0.00000  Uiso   1.00
C960   C     0.83311   0.49995   0.83524   0.00000  Uiso   1.00
C961   C     0.87077   0.50571   0.90889   0.00000  Uiso   1.00
C962   C     0.79590   0.49430   0.59111   0.00000  Uiso   1.00
C963   C     0.83324   0.49914   0.88344   0.00000  Uiso   1.00
C964   C     0.91249   0.50030   0.75072   0.00000  Uiso   1.00
C965   C     0.83342   0.50086   0.61656   0.00000  Uiso   1.00
C966   C     0.79622   0.49079   0.90410   0.00000  Uiso   1.00
C967   C     0.87045   0.50921   0.59591   0.00000  Uiso   1.00
C968   C     0.79654   0.49160   0.95059   0.00000  Uiso   1.00
C969   C     0.87013   0.50840   0.54941   0.00000  Uiso   1.00
C970   C     0.83355   0.49983   0.97654   0.00000  Uiso   1.00
C971   C     0.83312   0.50017   0.52346   0.00000  Uiso   1.00
C972   C     0.87095   0.50732   0.95570   0.00000  Uiso   1.00
C973   C     0.79572   0.49268   0.54430   0.00000  Uiso   1.00
C974   C     0.75989   0.48401   0.97145   0.00000  Uiso   1.00
C975   C     0.75890   0.48445   0.51774   0.00000  Uiso   1.00
C976   C     0.90678   0.51599   0.52855   0.00000  Uiso   1.00
C977   C     0.90777   0.51554   0.98226   0.00000  Uiso   1.00
C978   C     0.68526   0.47120   0.71981   0.00000  Uiso   1.00
C979   C     0.98141   0.52880   0.78019   0.00000  Uiso   1.00
C980   C     0.97588   0.47163   0.72019   0.00000  Uiso   1.00
C981   C     0.69078   0.52837   0.77981   0.00000  Uiso   1.00
C982   C     0.95716   0.50058   0.75029   0.00000  Uiso   1.00
Cl983  Cl    0.70730   0.43688   0.67956   0.00000  Uiso   1.00
Cl984  Cl    0.95936   0.56312   0.82043   0.00000  Uiso   1.00
Cl985  Cl    0.94615   0.43663   0.68135   0.00000  Uiso   1.00
Cl986  Cl    0.72052   0.56337   0.81865   0.00000  Uiso   1.00
Cu987  Cu    0.83333   0.54689   0.75000   0.00000  Uiso   1.00
Cu988  Cu    0.83333   0.45311   0.75000   0.00000  Uiso   1.00
H989   H     0.73144   0.47765   0.95171   0.00000  Uiso   1.00
H990   H     0.88435   0.59299   0.80762   0.00000  Uiso   1.00
H991   H     0.88730   0.40859   0.80731   0.00000  Uiso   1.00
H992   H     0.77937   0.59141   0.69269   0.00000  Uiso   1.00
H993   H     0.93523   0.52235   0.54829   0.00000  Uiso   1.00
H994   H     0.90544   0.49523   0.85918   0.00000  Uiso   1.00
H995   H     0.76123   0.50477   0.64082   0.00000  Uiso   1.00
H996   H     0.76322   0.47702   0.84837   0.00000  Uiso   1.00
H997   H     0.90344   0.52299   0.65163   0.00000  Uiso   1.00
H998   H     0.69966   0.47166   0.51396   0.00000  Uiso   1.00
H999   H     0.96700   0.52833   0.98605   0.00000  Uiso   1.00
H1000  H     0.78232   0.40701   0.69238   0.00000  Uiso   1.00
N1001  N     0.83333   0.61736   0.75000   0.00000  Uiso   1.00
N1002  N     0.83333   0.38264   0.75000   0.00000  Uiso   1.00
O1003  O     0.77321   0.53958   0.75000   0.00000  Uiso   1.00
O1004  O     0.75907   0.48983   0.61118   0.00000  Uiso   1.00
O1005  O     0.75916   0.48174   0.88022   0.00000  Uiso   1.00
O1006  O     0.90750   0.51825   0.61978   0.00000  Uiso   1.00
O1007  O     0.72218   0.47660   0.53725   0.00000  Uiso   1.00
O1008  O     0.94449   0.52339   0.96275   0.00000  Uiso   1.00
O1009  O     0.79210   0.37768   0.68120   0.00000  Uiso   1.00
O1010  O     0.87457   0.62232   0.81880   0.00000  Uiso   1.00
O1011  O     0.87500   0.38018   0.81871   0.00000  Uiso   1.00
O1012  O     0.79166   0.61982   0.68129   0.00000  Uiso   1.00
O1013  O     0.89345   0.46042   0.75000   0.00000  Uiso   1.00
O1014  O     0.89345   0.53958   0.75000   0.00000  Uiso   1.00
O1015  O     0.77321   0.46042   0.75000   0.00000  Uiso   1.00
O1016  O     0.83332   0.53960   0.68513   0.00000  Uiso   1.00
O1017  O     0.83334   0.46040   0.81487   0.00000  Uiso   1.00
O1018  O     0.83334   0.53960   0.81487   0.00000  Uiso   1.00
O1019  O     0.83332   0.46040   0.68513   0.00000  Uiso   1.00
O1020  O     0.90760   0.51018   0.88882   0.00000  Uiso   1.00
C1021  C     0.08751   0.83303   0.74928   0.00000  Uiso   1.00
C1022  C     0.04284   0.83275   0.74971   0.00000  Uiso   1.00
C1023  C     0.14690   0.69045   0.71608   0.00000  Uiso   1.00
C1024  C     0.18643   0.97621   0.78392   0.00000  Uiso   1.00
C1025  C     0.18661   0.69171   0.78386   0.00000  Uiso   1.00
C1026  C     0.14673   0.97496   0.71614   0.00000  Uiso   1.00
C1027  C     0.16689   0.83338   0.66476   0.00000  Uiso   1.00
C1028  C     0.16644   0.83328   0.83524   0.00000  Uiso   1.00
C1029  C     0.20410   0.83904   0.90889   0.00000  Uiso   1.00
C1030  C     0.12923   0.82763   0.59111   0.00000  Uiso   1.00
C1031  C     0.16658   0.83247   0.88344   0.00000  Uiso   1.00
C1032  C     0.24583   0.83364   0.75072   0.00000  Uiso   1.00
C1033  C     0.16675   0.83419   0.61656   0.00000  Uiso   1.00
C1034  C     0.12955   0.82413   0.90410   0.00000  Uiso   1.00
C1035  C     0.20378   0.84254   0.59591   0.00000  Uiso   1.00
C1036  C     0.12987   0.82493   0.95059   0.00000  Uiso   1.00
C1037  C     0.20346   0.84173   0.54941   0.00000  Uiso   1.00
C1038  C     0.16688   0.83316   0.97654   0.00000  Uiso   1.00
C1039  C     0.16645   0.83350   0.52346   0.00000  Uiso   1.00
C1040  C     0.20428   0.84065   0.95570   0.00000  Uiso   1.00
C1041  C     0.12905   0.82602   0.54430   0.00000  Uiso   1.00
C1042  C     0.09322   0.81734   0.97145   0.00000  Uiso   1.00
C1043  C     0.09223   0.81779   0.51774   0.00000  Uiso   1.00
C1044  C     0.24011   0.84932   0.52855   0.00000  Uiso   1.00
C1045  C     0.24110   0.84888   0.98226   0.00000  Uiso   1.00
C1046  C     0.01859   0.80454   0.71981   0.00000  Uiso   1.00
C1047  C     0.31474   0.86213   0.78019   0.00000  Uiso   1.00
C1048  C     0.30921   0.80496   0.72019   0.00000  Uiso   1.00
C1049  C     0.02412   0.86170   0.77981   0.00000  Uiso   1.00
C1050  C     0.29050   0.83392   0.75029   0.00000  Uiso   1.00
Cl1051 Cl    0.04064   0.77022   0.67956   0.00000  Uiso   1.00
Cl1052 Cl    0.29270   0.89645   0.82043   0.00000  Uiso   1.00
Cl1053 Cl    0.27948   0.76997   0.68135   0.00000  Uiso   1.00
Cl1054 Cl    0.05385   0.89670   0.81865   0.00000  Uiso   1.00
Cu1055 Cu    0.16667   0.88022   0.75000   0.00000  Uiso   1.00
Cu1056 Cu    0.16667   0.78645   0.75000   0.00000  Uiso   1.00
H1057  H     0.06477   0.81098   0.95171   0.00000  Uiso   1.00
H1058  H     0.21768   0.92632   0.80762   0.00000  Uiso   1.00
H1059  H     0.22063   0.74192   0.80731   0.00000  Uiso   1.00
H1060  H     0.11270   0.92474   0.69269   0.00000  Uiso   1.00
H1061  H     0.26856   0.85568   0.54829   0.00000  Uiso   1.00
H1062  H     0.23877   0.82857   0.85918   0.00000  Uiso   1.00
H1063  H     0.09456   0.83811   0.64082   0.00000  Uiso   1.00
H1064  H     0.09655   0.81035   0.84837   0.00000  Uiso   1.00
H1065  H     0.23678   0.85632   0.65163   0.00000  Uiso   1.00
H1066  H     0.03300   0.80500   0.51396   0.00000  Uiso   1.00
H1067  H     0.30034   0.86167   0.98605   0.00000  Uiso   1.00
H1068  H     0.11565   0.74034   0.69238   0.00000  Uiso   1.00
N1069  N     0.16667   0.95069   0.75000   0.00000  Uiso   1.00
N1070  N     0.16667   0.71598   0.75000   0.00000  Uiso   1.00
O1071  O     0.10655   0.87291   0.75000   0.00000  Uiso   1.00
O1072  O     0.09240   0.82316   0.61118   0.00000  Uiso   1.00
O1073  O     0.09250   0.81508   0.88022   0.00000  Uiso   1.00
O1074  O     0.24084   0.85159   0.61978   0.00000  Uiso   1.00
O1075  O     0.05551   0.80994   0.53725   0.00000  Uiso   1.00
O1076  O     0.27782   0.85673   0.96275   0.00000  Uiso   1.00
O1077  O     0.12543   0.71102   0.68120   0.00000  Uiso   1.00
O1078  O     0.20790   0.95565   0.81880   0.00000  Uiso   1.00
O1079  O     0.20834   0.71351   0.81871   0.00000  Uiso   1.00
O1080  O     0.12500   0.95316   0.68129   0.00000  Uiso   1.00
O1081  O     0.22679   0.79375   0.75000   0.00000  Uiso   1.00
O1082  O     0.22679   0.87291   0.75000   0.00000  Uiso   1.00
O1083  O     0.10655   0.79375   0.75000   0.00000  Uiso   1.00
O1084  O     0.16666   0.87293   0.68513   0.00000  Uiso   1.00
O1085  O     0.16668   0.79373   0.81487   0.00000  Uiso   1.00
O1086  O     0.16668   0.87293   0.81487   0.00000  Uiso   1.00
O1087  O     0.16666   0.79373   0.68513   0.00000  Uiso   1.00
O1088  O     0.24093   0.84351   0.88882   0.00000  Uiso   1.00
C1089  C     0.42084   0.83303   0.74928   0.00000  Uiso   1.00
C1090  C     0.37617   0.83275   0.74971   0.00000  Uiso   1.00
C1091  C     0.48024   0.69045   0.71608   0.00000  Uiso   1.00
C1092  C     0.51976   0.97621   0.78392   0.00000  Uiso   1.00
C1093  C     0.51994   0.69171   0.78386   0.00000  Uiso   1.00
C1094  C     0.48006   0.97496   0.71614   0.00000  Uiso   1.00
C1095  C     0.50022   0.83338   0.66476   0.00000  Uiso   1.00
C1096  C     0.49978   0.83328   0.83524   0.00000  Uiso   1.00
C1097  C     0.53744   0.83904   0.90889   0.00000  Uiso   1.00
C1098  C     0.46256   0.82763   0.59111   0.00000  Uiso   1.00
C1099  C     0.49991   0.83247   0.88344   0.00000  Uiso   1.00
C1100  C     0.57916   0.83364   0.75072   0.00000  Uiso   1.00
C1101  C     0.50009   0.83419   0.61656   0.00000  Uiso   1.00
C1102  C     0.46288   0.82413   0.90410   0.00000  Uiso   1.00
C1103  C     0.53712   0.84254   0.59591   0.00000  Uiso   1.00
C1104  C     0.46320   0.82493   0.95059   0.00000  Uiso   1.00
C1105  C     0.53680   0.84173   0.54941   0.00000  Uiso   1.00
C1106  C     0.50022   0.83316   0.97654   0.00000  Uiso   1.00
C1107  C     0.49978   0.83350   0.52346   0.00000  Uiso   1.00
C1108  C     0.53761   0.84065   0.95570   0.00000  Uiso   1.00
C1109  C     0.46239   0.82602   0.54430   0.00000  Uiso   1.00
C1110  C     0.42656   0.81734   0.97145   0.00000  Uiso   1.00
C1111  C     0.42556   0.81779   0.51774   0.00000  Uiso   1.00
C1112  C     0.57344   0.84932   0.52855   0.00000  Uiso   1.00
C1113  C     0.57444   0.84888   0.98226   0.00000  Uiso   1.00
C1114  C     0.35192   0.80454   0.71981   0.00000  Uiso   1.00
C1115  C     0.64808   0.86213   0.78019   0.00000  Uiso   1.00
C1116  C     0.64255   0.80496   0.72019   0.00000  Uiso   1.00
C1117  C     0.35745   0.86170   0.77981   0.00000  Uiso   1.00
C1118  C     0.62383   0.83392   0.75029   0.00000  Uiso   1.00
Cl1119 Cl    0.37397   0.77022   0.67956   0.00000  Uiso   1.00
Cl1120 Cl    0.62603   0.89645   0.82043   0.00000  Uiso   1.00
Cl1121 Cl    0.61282   0.76997   0.68135   0.00000  Uiso   1.00
Cl1122 Cl    0.38718   0.89670   0.81865   0.00000  Uiso   1.00
Cu1123 Cu    0.50000   0.88022   0.75000   0.00000  Uiso   1.00
Cu1124 Cu    0.50000   0.78645   0.75000   0.00000  Uiso   1.00
H1125  H     0.39810   0.81098   0.95171   0.00000  Uiso   1.00
H1126  H     0.55101   0.92632   0.80762   0.00000  Uiso   1.00
H1127  H     0.55396   0.74192   0.80731   0.00000  Uiso   1.00
H1128  H     0.44604   0.92474   0.69269   0.00000  Uiso   1.00
H1129  H     0.60190   0.85568   0.54829   0.00000  Uiso   1.00
H1130  H     0.57210   0.82857   0.85918   0.00000  Uiso   1.00
H1131  H     0.42790   0.83811   0.64082   0.00000  Uiso   1.00
H1132  H     0.42989   0.81035   0.84837   0.00000  Uiso   1.00
H1133  H     0.57011   0.85632   0.65163   0.00000  Uiso   1.00
H1134  H     0.36633   0.80500   0.51396   0.00000  Uiso   1.00
H1135  H     0.63367   0.86167   0.98605   0.00000  Uiso   1.00
H1136  H     0.44899   0.74034   0.69238   0.00000  Uiso   1.00
N1137  N     0.50000   0.95069   0.75000   0.00000  Uiso   1.00
N1138  N     0.50000   0.71598   0.75000   0.00000  Uiso   1.00
O1139  O     0.43988   0.87291   0.75000   0.00000  Uiso   1.00
O1140  O     0.42574   0.82316   0.61118   0.00000  Uiso   1.00
O1141  O     0.42583   0.81508   0.88022   0.00000  Uiso   1.00
O1142  O     0.57417   0.85159   0.61978   0.00000  Uiso   1.00
O1143  O     0.38884   0.80994   0.53725   0.00000  Uiso   1.00
O1144  O     0.61116   0.85673   0.96275   0.00000  Uiso   1.00
O1145  O     0.45876   0.71102   0.68120   0.00000  Uiso   1.00
O1146  O     0.54124   0.95565   0.81880   0.00000  Uiso   1.00
O1147  O     0.54167   0.71351   0.81871   0.00000  Uiso   1.00
O1148  O     0.45833   0.95316   0.68129   0.00000  Uiso   1.00
O1149  O     0.56012   0.79375   0.75000   0.00000  Uiso   1.00
O1150  O     0.56012   0.87291   0.75000   0.00000  Uiso   1.00
O1151  O     0.43988   0.79375   0.75000   0.00000  Uiso   1.00
O1152  O     0.49999   0.87293   0.68513   0.00000  Uiso   1.00
O1153  O     0.50001   0.79373   0.81487   0.00000  Uiso   1.00
O1154  O     0.50001   0.87293   0.81487   0.00000  Uiso   1.00
O1155  O     0.49999   0.79373   0.68513   0.00000  Uiso   1.00
O1156  O     0.57426   0.84351   0.88882   0.00000  Uiso   1.00
C1157  C     0.75417   0.83303   0.74928   0.00000  Uiso   1.00
C1158  C     0.70950   0.83275   0.74971   0.00000  Uiso   1.00
C1159  C     0.81357   0.69045   0.71608   0.00000  Uiso   1.00
C1160  C     0.85310   0.97621   0.78392   0.00000  Uiso   1.00
C1161  C     0.85327   0.69171   0.78386   0.00000  Uiso   1.00
C1162  C     0.81339   0.97496   0.71614   0.00000  Uiso   1.00
C1163  C     0.83356   0.83338   0.66476   0.00000  Uiso   1.00
C1164  C     0.83311   0.83328   0.83524   0.00000  Uiso   1.00
C1165  C     0.87077   0.83904   0.90889   0.00000  Uiso   1.00
C1166  C     0.79590   0.82763   0.59111   0.00000  Uiso   1.00
C1167  C     0.83324   0.83247   0.88344   0.00000  Uiso   1.00
C1168  C     0.91249   0.83364   0.75072   0.00000  Uiso   1.00
C1169  C     0.83342   0.83419   0.61656   0.00000  Uiso   1.00
C1170  C     0.79622   0.82413   0.90410   0.00000  Uiso   1.00
C1171  C     0.87045   0.84254   0.59591   0.00000  Uiso   1.00
C1172  C     0.79654   0.82493   0.95059   0.00000  Uiso   1.00
C1173  C     0.87013   0.84173   0.54941   0.00000  Uiso   1.00
C1174  C     0.83355   0.83316   0.97654   0.00000  Uiso   1.00
C1175  C     0.83312   0.83350   0.52346   0.00000  Uiso   1.00
C1176  C     0.87095   0.84065   0.95570   0.00000  Uiso   1.00
C1177  C     0.79572   0.82602   0.54430   0.00000  Uiso   1.00
C1178  C     0.75989   0.81734   0.97145   0.00000  Uiso   1.00
C1179  C     0.75890   0.81779   0.51774   0.00000  Uiso   1.00
C1180  C     0.90678   0.84932   0.52855   0.00000  Uiso   1.00
C1181  C     0.90777   0.84888   0.98226   0.00000  Uiso   1.00
C1182  C     0.68526   0.80454   0.71981   0.00000  Uiso   1.00
C1183  C     0.98141   0.86213   0.78019   0.00000  Uiso   1.00
C1184  C     0.97588   0.80496   0.72019   0.00000  Uiso   1.00
C1185  C     0.69078   0.86170   0.77981   0.00000  Uiso   1.00
C1186  C     0.95716   0.83392   0.75029   0.00000  Uiso   1.00
Cl1187 Cl    0.70730   0.77022   0.67956   0.00000  Uiso   1.00
Cl1188 Cl    0.95936   0.89645   0.82043   0.00000  Uiso   1.00
Cl1189 Cl    0.94615   0.76997   0.68135   0.00000  Uiso   1.00
Cl1190 Cl    0.72052   0.89670   0.81865   0.00000  Uiso   1.00
Cu1191 Cu    0.83333   0.88022   0.75000   0.00000  Uiso   1.00
Cu1192 Cu    0.83333   0.78645   0.75000   0.00000  Uiso   1.00
H1193  H     0.73144   0.81098   0.95171   0.00000  Uiso   1.00
H1194  H     0.88435   0.92632   0.80762   0.00000  Uiso   1.00
H1195  H     0.88730   0.74192   0.80731   0.00000  Uiso   1.00
H1196  H     0.77937   0.92474   0.69269   0.00000  Uiso   1.00
H1197  H     0.93523   0.85568   0.54829   0.00000  Uiso   1.00
H1198  H     0.90544   0.82857   0.85918   0.00000  Uiso   1.00
H1199  H     0.76123   0.83811   0.64082   0.00000  Uiso   1.00
H1200  H     0.76322   0.81035   0.84837   0.00000  Uiso   1.00
H1201  H     0.90344   0.85632   0.65163   0.00000  Uiso   1.00
H1202  H     0.69966   0.80500   0.51396   0.00000  Uiso   1.00
H1203  H     0.96700   0.86167   0.98605   0.00000  Uiso   1.00
H1204  H     0.78232   0.74034   0.69238   0.00000  Uiso   1.00
N1205  N     0.83333   0.95069   0.75000   0.00000  Uiso   1.00
N1206  N     0.83333   0.71598   0.75000   0.00000  Uiso   1.00
O1207  O     0.77321   0.87291   0.75000   0.00000  Uiso   1.00
O1208  O     0.75907   0.82316   0.61118   0.00000  Uiso   1.00
O1209  O     0.75916   0.81508   0.88022   0.00000  Uiso   1.00
O1210  O     0.90750   0.85159   0.61978   0.00000  Uiso   1.00
O1211  O     0.72218   0.80994   0.53725   0.00000  Uiso   1.00
O1212  O     0.94449   0.85673   0.96275   0.00000  Uiso   1.00
O1213  O     0.79210   0.71102   0.68120   0.00000  Uiso   1.00
O1214  O     0.87457   0.95565   0.81880   0.00000  Uiso   1.00
O1215  O     0.87500   0.71351   0.81871   0.00000  Uiso   1.00
O1216  O     0.79166   0.95316   0.68129   0.00000  Uiso   1.00
O1217  O     0.89345   0.79375   0.75000   0.00000  Uiso   1.00
O1218  O     0.89345   0.87291   0.75000   0.00000  Uiso   1.00
O1219  O     0.77321   0.79375   0.75000   0.00000  Uiso   1.00
O1220  O     0.83332   0.87293   0.68513   0.00000  Uiso   1.00
O1221  O     0.83334   0.79373   0.81487   0.00000  Uiso   1.00
O1222  O     0.83334   0.87293   0.81487   0.00000  Uiso   1.00
O1223  O     0.83332   0.79373   0.68513   0.00000  Uiso   1.00
O1224  O     0.90760   0.84351   0.88882   0.00000  Uiso   1.00
loop_
_geom_bond_atom_site_label_1
_geom_bond_atom_site_label_2
_geom_bond_distance
_geom_bond_site_symmetry_2
_ccdc_geom_bond_type
C1     O51     1.302   .     A
C1     O63     1.305   .     A
C1     C2      1.458   .     S
C2     C26     1.410   .     A
C2     C29     1.407   .     A
C3     N50     1.379   .     A
C3     O57     1.370   .     S
C3     C414    1.414   1_545 S
C4     N49     1.379   .     A
C4     O58     1.370   .     S
C4     C209    1.414   .     S
C5     N50     1.377   .     A
C5     O59     1.375   .     S
C5     C412    1.414   1_545 S
C6     O60     1.375   .     S
C6     N49     1.377   .     A
C6     C207    1.414   .     S
C7     C13     1.454   .     S
C7     O64     1.298   .     A
C7     O67     1.305   .     A
C8     C11     1.453   .     S
C8     O65     1.298   .     A
C8     O66     1.305   .     A
C9     C20     1.412   .     A
C9     O68     1.384   .     S
C9     C11     1.413   .     A
C10    O52     1.384   .     S
C10    C21     1.412   .     A
C10    C13     1.413   .     A
C11    C14     1.412   .     A
C12    O62     1.305   .     A
C12    O61     1.302   .     A
C12    C30     1.458   .     S
C13    C15     1.412   .     A
C14    C16     1.401   .     A
C14    O53     1.388   .     S
C15    O54     1.388   .     S
C15    C17     1.401   .     A
C16    C18     1.413   .     A
C16    C22     1.401   .     A
C17    C19     1.413   .     A
C17    C24     1.401   .     A
C18    C20     1.422   .     A
C18    C631    1.415   .     S
C19    C21     1.422   .     A
C19    C630    1.415   1_554 S
C20    C25     1.417   .     A
C21    C23     1.417   .     A
C22    H37     1.083   .     S
C22    C635    1.398   .     S
C23    O55     1.384   .     S
C23    C634    1.398   1_554 S
C24    H41     1.083   .     S
C24    C637    1.398   1_554 S
C25    O56     1.384   .     S
C25    C636    1.398   .     S
C26    Cl31    1.761   .     S
C26    C164    1.395   1_455 S
C27    C30     1.410   .     A
C27    Cl32    1.761   .     S
C27    C97     1.395   .     S
C28    C30     1.407   .     A
C28    Cl33    1.775   .     S
C28    C94     1.395   .     S
C29    Cl34    1.775   .     S
C29    C163    1.395   1_455 S
Cu35   N49     2.041   .     S
Cu35   O64     1.966   .     S
Cu35   Cu36    2.716   .     S
Cu35   O62     1.977   .     S
Cu35   O51     1.970   .     S
Cu35   O66     1.968   .     S
Cu36   O63     1.977   .     S
Cu36   O67     1.968   .     S
Cu36   O61     1.970   .     S
Cu36   O65     1.966   .     S
Cu36   N50     2.041   .     S
H38    O58     0.978   .     S
H39    O59     0.982   .     S
H40    O60     0.982   .     S
H42    O68     0.989   .     S
H43    O52     0.989   .     S
H44    O53     0.987   .     S
H45    O54     0.987   .     S
H46    O55     0.992   .     S
H47    O56     0.992   .     S
H48    O57     0.978   .     S
C69    O119    1.302   .     A
C69    O131    1.305   .     A
C69    C70     1.458   .     S
C70    C94     1.410   .     A
C70    C97     1.407   .     A
C71    N118    1.379   .     A
C71    O125    1.370   .     S
C71    C482    1.414   1_545 S
C72    N117    1.379   .     A
C72    O126    1.370   .     S
C72    C277    1.414   .     S
C73    N118    1.377   .     A
C73    O127    1.375   .     S
C73    C480    1.414   1_545 S
C74    O128    1.375   .     S
C74    N117    1.377   .     A
C74    C275    1.414   .     S
C75    C81     1.454   .     S
C75    O132    1.298   .     A
C75    O135    1.305   .     A
C76    C79     1.453   .     S
C76    O133    1.298   .     A
C76    O134    1.305   .     A
C77    C88     1.412   .     A
C77    O136    1.384   .     S
C77    C79     1.413   .     A
C78    O120    1.384   .     S
C78    C89     1.412   .     A
C78    C81     1.413   .     A
C79    C82     1.412   .     A
C80    O130    1.305   .     A
C80    O129    1.302   .     A
C80    C98     1.458   .     S
C81    C83     1.412   .     A
C82    C84     1.401   .     A
C82    O121    1.388   .     S
C83    O122    1.388   .     S
C83    C85     1.401   .     A
C84    C86     1.413   .     A
C84    C90     1.401   .     A
C85    C87     1.413   .     A
C85    C92     1.401   .     A
C86    C88     1.422   .     A
C86    C699    1.415   .     S
C87    C89     1.422   .     A
C87    C698    1.415   1_554 S
C88    C93     1.417   .     A
C89    C91     1.417   .     A
C90    H105    1.083   .     S
C90    C703    1.398   .     S
C91    O123    1.384   .     S
C91    C702    1.398   1_554 S
C92    H109    1.083   .     S
C92    C705    1.398   1_554 S
C93    O124    1.384   .     S
C93    C704    1.398   .     S
C94    Cl99    1.761   .     S
C95    C98     1.410   .     A
C95    Cl100   1.761   .     S
C95    C165    1.395   .     S
C96    C98     1.407   .     A
C96    Cl101   1.775   .     S
C96    C162    1.395   .     S
C97    Cl102   1.775   .     S
Cu103  N117    2.041   .     S
Cu103  O132    1.966   .     S
Cu103  Cu104   2.716   .     S
Cu103  O130    1.977   .     S
Cu103  O119    1.970   .     S
Cu103  O134    1.968   .     S
Cu104  O131    1.977   .     S
Cu104  O135    1.968   .     S
Cu104  O129    1.970   .     S
Cu104  O133    1.966   .     S
Cu104  N118    2.041   .     S
H106   O126    0.978   .     S
H107   O127    0.982   .     S
H108   O128    0.982   .     S
H110   O136    0.989   .     S
H111   O120    0.989   .     S
H112   O121    0.987   .     S
H113   O122    0.987   .     S
H114   O123    0.992   .     S
H115   O124    0.992   .     S
H116   O125    0.978   .     S
C137   O187    1.302   .     A
C137   O199    1.305   .     A
C137   C138    1.458   .     S
C138   C162    1.410   .     A
C138   C165    1.407   .     A
C139   N186    1.379   .     A
C139   O193    1.370   .     S
C139   C550    1.414   1_545 S
C140   N185    1.379   .     A
C140   O194    1.370   .     S
C140   C345    1.414   .     S
C141   N186    1.377   .     A
C141   O195    1.375   .     S
C141   C548    1.414   1_545 S
C142   O196    1.375   .     S
C142   N185    1.377   .     A
C142   C343    1.414   .     S
C143   C149    1.454   .     S
C143   O200    1.298   .     A
C143   O203    1.305   .     A
C144   C147    1.453   .     S
C144   O201    1.298   .     A
C144   O202    1.305   .     A
C145   C156    1.412   .     A
C145   O204    1.384   .     S
C145   C147    1.413   .     A
C146   O188    1.384   .     S
C146   C157    1.412   .     A
C146   C149    1.413   .     A
C147   C150    1.412   .     A
C148   O198    1.305   .     A
C148   O197    1.302   .     A
C148   C166    1.458   .     S
C149   C151    1.412   .     A
C150   C152    1.401   .     A
C150   O189    1.388   .     S
C151   O190    1.388   .     S
C151   C153    1.401   .     A
C152   C154    1.413   .     A
C152   C158    1.401   .     A
C153   C155    1.413   .     A
C153   C160    1.401   .     A
C154   C156    1.422   .     A
C154   C767    1.415   .     S
C155   C157    1.422   .     A
C155   C766    1.415   1_554 S
C156   C161    1.417   .     A
C157   C159    1.417   .     A
C158   H173    1.083   .     S
C158   C771    1.398   .     S
C159   O191    1.384   .     S
C159   C770    1.398   1_554 S
C160   H177    1.083   .     S
C160   C773    1.398   1_554 S
C161   O192    1.384   .     S
C161   C772    1.398   .     S
C162   Cl167   1.761   .     S
C163   C166    1.410   .     A
C163   Cl168   1.761   .     S
C163   C29     1.395   1_655 S
C164   C166    1.407   .     A
C164   Cl169   1.775   .     S
C164   C26     1.395   1_655 S
C165   Cl170   1.775   .     S
Cu171  N185    2.041   .     S
Cu171  O200    1.966   .     S
Cu171  Cu172   2.716   .     S
Cu171  O198    1.977   .     S
Cu171  O187    1.970   .     S
Cu171  O202    1.968   .     S
Cu172  O199    1.977   .     S
Cu172  O203    1.968   .     S
Cu172  O197    1.970   .     S
Cu172  O201    1.966   .     S
Cu172  N186    2.041   .     S
H174   O194    0.978   .     S
H175   O195    0.982   .     S
H176   O196    0.982   .     S
H178   O204    0.989   .     S
H179   O188    0.989   .     S
H180   O189    0.987   .     S
H181   O190    0.987   .     S
H182   O191    0.992   .     S
H183   O192    0.992   .     S
H184   O193    0.978   .     S
C205   O255    1.302   .     A
C205   O267    1.305   .     A
C205   C206    1.458   .     S
C206   C230    1.410   .     A
C206   C233    1.407   .     A
C207   N254    1.379   .     A
C207   O261    1.370   .     S
C208   N253    1.379   .     A
C208   O262    1.370   .     S
C208   C413    1.414   .     S
C209   N254    1.377   .     A
C209   O263    1.375   .     S
C210   O264    1.375   .     S
C210   N253    1.377   .     A
C210   C411    1.414   .     S
C211   C217    1.454   .     S
C211   O268    1.298   .     A
C211   O271    1.305   .     A
C212   C215    1.453   .     S
C212   O269    1.298   .     A
C212   O270    1.305   .     A
C213   C224    1.412   .     A
C213   O272    1.384   .     S
C213   C215    1.413   .     A
C214   O256    1.384   .     S
C214   C225    1.412   .     A
C214   C217    1.413   .     A
C215   C218    1.412   .     A
C216   O266    1.305   .     A
C216   O265    1.302   .     A
C216   C234    1.458   .     S
C217   C219    1.412   .     A
C218   C220    1.401   .     A
C218   O257    1.388   .     S
C219   O258    1.388   .     S
C219   C221    1.401   .     A
C220   C222    1.413   .     A
C220   C226    1.401   .     A
C221   C223    1.413   .     A
C221   C228    1.401   .     A
C222   C224    1.422   .     A
C222   C835    1.415   .     S
C223   C225    1.422   .     A
C223   C834    1.415   1_554 S
C224   C229    1.417   .     A
C225   C227    1.417   .     A
C226   H241    1.083   .     S
C226   C839    1.398   .     S
C227   O259    1.384   .     S
C227   C838    1.398   1_554 S
C228   H245    1.083   .     S
C228   C841    1.398   1_554 S
C229   O260    1.384   .     S
C229   C840    1.398   .     S
C230   Cl235   1.761   .     S
C230   C368    1.395   1_455 S
C231   C234    1.410   .     A
C231   Cl236   1.761   .     S
C231   C301    1.395   .     S
C232   C234    1.407   .     A
C232   Cl237   1.775   .     S
C232   C298    1.395   .     S
C233   Cl238   1.775   .     S
C233   C367    1.395   1_455 S
Cu239  N253    2.041   .     S
Cu239  O268    1.966   .     S
Cu239  Cu240   2.716   .     S
Cu239  O266    1.977   .     S
Cu239  O255    1.970   .     S
Cu239  O270    1.968   .     S
Cu240  O267    1.977   .     S
Cu240  O271    1.968   .     S
Cu240  O265    1.970   .     S
Cu240  O269    1.966   .     S
Cu240  N254    2.041   .     S
H242   O262    0.978   .     S
H243   O263    0.982   .     S
H244   O264    0.982   .     S
H246   O272    0.989   .     S
H247   O256    0.989   .     S
H248   O257    0.987   .     S
H249   O258    0.987   .     S
H250   O259    0.992   .     S
H251   O260    0.992   .     S
H252   O261    0.978   .     S
C273   O323    1.302   .     A
C273   O335    1.305   .     A
C273   C274    1.458   .     S
C274   C298    1.410   .     A
C274   C301    1.407   .     A
C275   N322    1.379   .     A
C275   O329    1.370   .     S
C276   N321    1.379   .     A
C276   O330    1.370   .     S
C276   C481    1.414   .     S
C277   N322    1.377   .     A
C277   O331    1.375   .     S
C278   O332    1.375   .     S
C278   N321    1.377   .     A
C278   C479    1.414   .     S
C279   C285    1.454   .     S
C279   O336    1.298   .     A
C279   O339    1.305   .     A
C280   C283    1.453   .     S
C280   O337    1.298   .     A
C280   O338    1.305   .     A
C281   C292    1.412   .     A
C281   O340    1.384   .     S
C281   C283    1.413   .     A
C282   O324    1.384   .     S
C282   C293    1.412   .     A
C282   C285    1.413   .     A
C283   C286    1.412   .     A
C284   O334    1.305   .     A
C284   O333    1.302   .     A
C284   C302    1.458   .     S
C285   C287    1.412   .     A
C286   C288    1.401   .     A
C286   O325    1.388   .     S
C287   O326    1.388   .     S
C287   C289    1.401   .     A
C288   C290    1.413   .     A
C288   C294    1.401   .     A
C289   C291    1.413   .     A
C289   C296    1.401   .     A
C290   C292    1.422   .     A
C290   C903    1.415   .     S
C291   C293    1.422   .     A
C291   C902    1.415   1_554 S
C292   C297    1.417   .     A
C293   C295    1.417   .     A
C294   H309    1.083   .     S
C294   C907    1.398   .     S
C295   O327    1.384   .     S
C295   C906    1.398   1_554 S
C296   H313    1.083   .     S
C296   C909    1.398   1_554 S
C297   O328    1.384   .     S
C297   C908    1.398   .     S
C298   Cl303   1.761   .     S
C299   C302    1.410   .     A
C299   Cl304   1.761   .     S
C299   C369    1.395   .     S
C300   C302    1.407   .     A
C300   Cl305   1.775   .     S
C300   C366    1.395   .     S
C301   Cl306   1.775   .     S
Cu307  N321    2.041   .     S
Cu307  O336    1.966   .     S
Cu307  Cu308   2.716   .     S
Cu307  O334    1.977   .     S
Cu307  O323    1.970   .     S
Cu307  O338    1.968   .     S
Cu308  O335    1.977   .     S
Cu308  O339    1.968   .     S
Cu308  O333    1.970   .     S
Cu308  O337    1.966   .     S
Cu308  N322    2.041   .     S
H310   O330    0.978   .     S
H311   O331    0.982   .     S
H312   O332    0.982   .     S
H314   O340    0.989   .     S
H315   O324    0.989   .     S
H316   O325    0.987   .     S
H317   O326    0.987   .     S
H318   O327    0.992   .     S
H319   O328    0.992   .     S
H320   O329    0.978   .     S
C341   O391    1.302   .     A
C341   O403    1.305   .     A
C341   C342    1.458   .     S
C342   C366    1.410   .     A
C342   C369    1.407   .     A
C343   N390    1.379   .     A
C343   O397    1.370   .     S
C344   N389    1.379   .     A
C344   O398    1.370   .     S
C344   C549    1.414   .     S
C345   N390    1.377   .     A
C345   O399    1.375   .     S
C346   O400    1.375   .     S
C346   N389    1.377   .     A
C346   C547    1.414   .     S
C347   C353    1.454   .     S
C347   O404    1.298   .     A
C347   O407    1.305   .     A
C348   C351    1.453   .     S
C348   O405    1.298   .     A
C348   O406    1.305   .     A
C349   C360    1.412   .     A
C349   O408    1.384   .     S
C349   C351    1.413   .     A
C350   O392    1.384   .     S
C350   C361    1.412   .     A
C350   C353    1.413   .     A
C351   C354    1.412   .     A
C352   O402    1.305   .     A
C352   O401    1.302   .     A
C352   C370    1.458   .     S
C353   C355    1.412   .     A
C354   C356    1.401   .     A
C354   O393    1.388   .     S
C355   O394    1.388   .     S
C355   C357    1.401   .     A
C356   C358    1.413   .     A
C356   C362    1.401   .     A
C357   C359    1.413   .     A
C357   C364    1.401   .     A
C358   C360    1.422   .     A
C358   C971    1.415   .     S
C359   C361    1.422   .     A
C359   C970    1.415   1_554 S
C360   C365    1.417   .     A
C361   C363    1.417   .     A
C362   H377    1.083   .     S
C362   C975    1.398   .     S
C363   O395    1.384   .     S
C363   C974    1.398   1_554 S
C364   H381    1.083   .     S
C364   C977    1.398   1_554 S
C365   O396    1.384   .     S
C365   C976    1.398   .     S
C366   Cl371   1.761   .     S
C367   C370    1.410   .     A
C367   Cl372   1.761   .     S
C367   C233    1.395   1_655 S
C368   C370    1.407   .     A
C368   Cl373   1.775   .     S
C368   C230    1.395   1_655 S
C369   Cl374   1.775   .     S
Cu375  N389    2.041   .     S
Cu375  O404    1.966   .     S
Cu375  Cu376   2.716   .     S
Cu375  O402    1.977   .     S
Cu375  O391    1.970   .     S
Cu375  O406    1.968   .     S
Cu376  O403    1.977   .     S
Cu376  O407    1.968   .     S
Cu376  O401    1.970   .     S
Cu376  O405    1.966   .     S
Cu376  N390    2.041   .     S
H378   O398    0.978   .     S
H379   O399    0.982   .     S
H380   O400    0.982   .     S
H382   O408    0.989   .     S
H383   O392    0.989   .     S
H384   O393    0.987   .     S
H385   O394    0.987   .     S
H386   O395    0.992   .     S
H387   O396    0.992   .     S
H388   O397    0.978   .     S
C409   O459    1.302   .     A
C409   O471    1.305   .     A
C409   C410    1.458   .     S
C410   C434    1.410   .     A
C410   C437    1.407   .     A
C411   N458    1.379   .     A
C411   O465    1.370   .     S
C412   N457    1.379   .     A
C412   O466    1.370   .     S
C412   C5      1.414   1_565 S
C413   N458    1.377   .     A
C413   O467    1.375   .     S
C414   O468    1.375   .     S
C414   N457    1.377   .     A
C414   C3      1.414   1_565 S
C415   C421    1.454   .     S
C415   O472    1.298   .     A
C415   O475    1.305   .     A
C416   C419    1.453   .     S
C416   O473    1.298   .     A
C416   O474    1.305   .     A
C417   C428    1.412   .     A
C417   O476    1.384   .     S
C417   C419    1.413   .     A
C418   O460    1.384   .     S
C418   C429    1.412   .     A
C418   C421    1.413   .     A
C419   C422    1.412   .     A
C420   O470    1.305   .     A
C420   O469    1.302   .     A
C420   C438    1.458   .     S
C421   C423    1.412   .     A
C422   C424    1.401   .     A
C422   O461    1.388   .     S
C423   O462    1.388   .     S
C423   C425    1.401   .     A
C424   C426    1.413   .     A
C424   C430    1.401   .     A
C425   C427    1.413   .     A
C425   C432    1.401   .     A
C426   C428    1.422   .     A
C426   C1039   1.415   .     S
C427   C429    1.422   .     A
C427   C1038   1.415   1_554 S
C428   C433    1.417   .     A
C429   C431    1.417   .     A
C430   H445    1.083   .     S
C430   C1043   1.398   .     S
C431   O463    1.384   .     S
C431   C1042   1.398   1_554 S
C432   H449    1.083   .     S
C432   C1045   1.398   1_554 S
C433   O464    1.384   .     S
C433   C1044   1.398   .     S
C434   Cl439   1.761   .     S
C434   C572    1.395   1_455 S
C435   C438    1.410   .     A
C435   Cl440   1.761   .     S
C435   C505    1.395   .     S
C436   C438    1.407   .     A
C436   Cl441   1.775   .     S
C436   C502    1.395   .     S
C437   Cl442   1.775   .     S
C437   C571    1.395   1_455 S
Cu443  N457    2.041   .     S
Cu443  O472    1.966   .     S
Cu443  Cu444   2.716   .     S
Cu443  O470    1.977   .     S
Cu443  O459    1.970   .     S
Cu443  O474    1.968   .     S
Cu444  O471    1.977   .     S
Cu444  O475    1.968   .     S
Cu444  O469    1.970   .     S
Cu444  O473    1.966   .     S
Cu444  N458    2.041   .     S
H446   O466    0.978   .     S
H447   O467    0.982   .     S
H448   O468    0.982   .     S
H450   O476    0.989   .     S
H451   O460    0.989   .     S
H452   O461    0.987   .     S
H453   O462    0.987   .     S
H454   O463    0.992   .     S
H455   O464    0.992   .     S
H456   O465    0.978   .     S
C477   O527    1.302   .     A
C477   O539    1.305   .     A
C477   C478    1.458   .     S
C478   C502    1.410   .     A
C478   C505    1.407   .     A
C479   N526    1.379   .     A
C479   O533    1.370   .     S
C480   N525    1.379   .     A
C480   O534    1.370   .     S
C480   C73     1.414   1_565 S
C481   N526    1.377   .     A
C481   O535    1.375   .     S
C482   O536    1.375   .     S
C482   N525    1.377   .     A
C482   C71     1.414   1_565 S
C483   C489    1.454   .     S
C483   O540    1.298   .     A
C483   O543    1.305   .     A
C484   C487    1.453   .     S
C484   O541    1.298   .     A
C484   O542    1.305   .     A
C485   C496    1.412   .     A
C485   O544    1.384   .     S
C485   C487    1.413   .     A
C486   O528    1.384   .     S
C486   C497    1.412   .     A
C486   C489    1.413   .     A
C487   C490    1.412   .     A
C488   O538    1.305   .     A
C488   O537    1.302   .     A
C488   C506    1.458   .     S
C489   C491    1.412   .     A
C490   C492    1.401   .     A
C490   O529    1.388   .     S
C491   O530    1.388   .     S
C491   C493    1.401   .     A
C492   C494    1.413   .     A
C492   C498    1.401   .     A
C493   C495    1.413   .     A
C493   C500    1.401   .     A
C494   C496    1.422   .     A
C494   C1107   1.415   .     S
C495   C497    1.422   .     A
C495   C1106   1.415   1_554 S
C496   C501    1.417   .     A
C497   C499    1.417   .     A
C498   H513    1.083   .     S
C498   C1111   1.398   .     S
C499   O531    1.384   .     S
C499   C1110   1.398   1_554 S
C500   H517    1.083   .     S
C500   C1113   1.398   1_554 S
C501   O532    1.384   .     S
C501   C1112   1.398   .     S
C502   Cl507   1.761   .     S
C503   C506    1.410   .     A
C503   Cl508   1.761   .     S
C503   C573    1.395   .     S
C504   C506    1.407   .     A
C504   Cl509   1.775   .     S
C504   C570    1.395   .     S
C505   Cl510   1.775   .     S
Cu511  N525    2.041   .     S
Cu511  O540    1.966   .     S
Cu511  Cu512   2.716   .     S
Cu511  O538    1.977   .     S
Cu511  O527    1.970   .     S
Cu511  O542    1.968   .     S
Cu512  O539    1.977   .     S
Cu512  O543    1.968   .     S
Cu512  O537    1.970   .     S
Cu512  O541    1.966   .     S
Cu512  N526    2.041   .     S
H514   O534    0.978   .     S
H515   O535    0.982   .     S
H516   O536    0.982   .     S
H518   O544    0.989   .     S
H519   O528    0.989   .     S
H520   O529    0.987   .     S
H521   O530    0.987   .     S
H522   O531    0.992   .     S
H523   O532    0.992   .     S
H524   O533    0.978   .     S
C545   O595    1.302   .     A
C545   O607    1.305   .     A
C545   C546    1.458   .     S
C546   C570    1.410   .     A
C546   C573    1.407   .     A
C547   N594    1.379   .     A
C547   O601    1.370   .     S
C548   N593    1.379   .     A
C548   O602    1.370   .     S
C548   C141    1.414   1_565 S
C549   N594    1.377   .     A
C549   O603    1.375   .     S
C550   O604    1.375   .     S
C550   N593    1.377   .     A
C550   C139    1.414   1_565 S
C551   C557    1.454   .     S
C551   O608    1.298   .     A
C551   O611    1.305   .     A
C552   C555    1.453   .     S
C552   O609    1.298   .     A
C552   O610    1.305   .     A
C553   C564    1.412   .     A
C553   O612    1.384   .     S
C553   C555    1.413   .     A
C554   O596    1.384   .     S
C554   C565    1.412   .     A
C554   C557    1.413   .     A
C555   C558    1.412   .     A
C556   O606    1.305   .     A
C556   O605    1.302   .     A
C556   C574    1.458   .     S
C557   C559    1.412   .     A
C558   C560    1.401   .     A
C558   O597    1.388   .     S
C559   O598    1.388   .     S
C559   C561    1.401   .     A
C560   C562    1.413   .     A
C560   C566    1.401   .     A
C561   C563    1.413   .     A
C561   C568    1.401   .     A
C562   C564    1.422   .     A
C562   C1175   1.415   .     S
C563   C565    1.422   .     A
C563   C1174   1.415   1_554 S
C564   C569    1.417   .     A
C565   C567    1.417   .     A
C566   H581    1.083   .     S
C566   C1179   1.398   .     S
C567   O599    1.384   .     S
C567   C1178   1.398   1_554 S
C568   H585    1.083   .     S
C568   C1181   1.398   1_554 S
C569   O600    1.384   .     S
C569   C1180   1.398   .     S
C570   Cl575   1.761   .     S
C571   C574    1.410   .     A
C571   Cl576   1.761   .     S
C571   C437    1.395   1_655 S
C572   C574    1.407   .     A
C572   Cl577   1.775   .     S
C572   C434    1.395   1_655 S
C573   Cl578   1.775   .     S
Cu579  N593    2.041   .     S
Cu579  O608    1.966   .     S
Cu579  Cu580   2.716   .     S
Cu579  O606    1.977   .     S
Cu579  O595    1.970   .     S
Cu579  O610    1.968   .     S
Cu580  O607    1.977   .     S
Cu580  O611    1.968   .     S
Cu580  O605    1.970   .     S
Cu580  O609    1.966   .     S
Cu580  N594    2.041   .     S
H582   O602    0.978   .     S
H583   O603    0.982   .     S
H584   O604    0.982   .     S
H586   O612    0.989   .     S
H587   O596    0.989   .     S
H588   O597    0.987   .     S
H589   O598    0.987   .     S
H590   O599    0.992   .     S
H591   O600    0.992   .     S
H592   O601    0.978   .     S
C613   O663    1.302   .     A
C613   O675    1.305   .     A
C613   C614    1.458   .     S
C614   C638    1.410   .     A
C614   C641    1.407   .     A
C615   N662    1.379   .     A
C615   O669    1.370   .     S
C615   C1026   1.414   1_545 S
C616   N661    1.379   .     A
C616   O670    1.370   .     S
C616   C821    1.414   .     S
C617   N662    1.377   .     A
C617   O671    1.375   .     S
C617   C1024   1.414   1_545 S
C618   O672    1.375   .     S
C618   N661    1.377   .     A
C618   C819    1.414   .     S
C619   C625    1.454   .     S
C619   O676    1.298   .     A
C619   O679    1.305   .     A
C620   C623    1.453   .     S
C620   O677    1.298   .     A
C620   O678    1.305   .     A
C621   C632    1.412   .     A
C621   O680    1.384   .     S
C621   C623    1.413   .     A
C622   O664    1.384   .     S
C622   C633    1.412   .     A
C622   C625    1.413   .     A
C623   C626    1.412   .     A
C624   O674    1.305   .     A
C624   O673    1.302   .     A
C624   C642    1.458   .     S
C625   C627    1.412   .     A
C626   C628    1.401   .     A
C626   O665    1.388   .     S
C627   O666    1.388   .     S
C627   C629    1.401   .     A
C628   C630    1.413   .     A
C628   C634    1.401   .     A
C629   C631    1.413   .     A
C629   C636    1.401   .     A
C630   C632    1.422   .     A
C630   C19     1.415   1_556 S
C631   C633    1.422   .     A
C632   C637    1.417   .     A
C633   C635    1.417   .     A
C634   H649    1.083   .     S
C634   C23     1.398   1_556 S
C635   O667    1.384   .     S
C636   H653    1.083   .     S
C637   O668    1.384   .     S
C637   C24     1.398   1_556 S
C638   Cl643   1.761   .     S
C638   C776    1.395   1_455 S
C639   C642    1.410   .     A
C639   Cl644   1.761   .     S
C639   C709    1.395   .     S
C640   C642    1.407   .     A
C640   Cl645   1.775   .     S
C640   C706    1.395   .     S
C641   Cl646   1.775   .     S
C641   C775    1.395   1_455 S
Cu647  N661    2.041   .     S
Cu647  O676    1.966   .     S
Cu647  Cu648   2.716   .     S
Cu647  O674    1.977   .     S
Cu647  O663    1.970   .     S
Cu647  O678    1.968   .     S
Cu648  O675    1.977   .     S
Cu648  O679    1.968   .     S
Cu648  O673    1.970   .     S
Cu648  O677    1.966   .     S
Cu648  N662    2.041   .     S
H650   O670    0.978   .     S
H651   O671    0.982   .     S
H652   O672    0.982   .     S
H654   O680    0.989   .     S
H655   O664    0.989   .     S
H656   O665    0.987   .     S
H657   O666    0.987   .     S
H658   O667    0.992   .     S
H659   O668    0.992   .     S
H660   O669    0.978   .     S
C681   O731    1.302   .     A
C681   O743    1.305   .     A
C681   C682    1.458   .     S
C682   C706    1.410   .     A
C682   C709    1.407   .     A
C683   N730    1.379   .     A
C683   O737    1.370   .     S
C683   C1094   1.414   1_545 S
C684   N729    1.379   .     A
C684   O738    1.370   .     S
C684   C889    1.414   .     S
C685   N730    1.377   .     A
C685   O739    1.375   .     S
C685   C1092   1.414   1_545 S
C686   O740    1.375   .     S
C686   N729    1.377   .     A
C686   C887    1.414   .     S
C687   C693    1.454   .     S
C687   O744    1.298   .     A
C687   O747    1.305   .     A
C688   C691    1.453   .     S
C688   O745    1.298   .     A
C688   O746    1.305   .     A
C689   C700    1.412   .     A
C689   O748    1.384   .     S
C689   C691    1.413   .     A
C690   O732    1.384   .     S
C690   C701    1.412   .     A
C690   C693    1.413   .     A
C691   C694    1.412   .     A
C692   O742    1.305   .     A
C692   O741    1.302   .     A
C692   C710    1.458   .     S
C693   C695    1.412   .     A
C694   C696    1.401   .     A
C694   O733    1.388   .     S
C695   O734    1.388   .     S
C695   C697    1.401   .     A
C696   C698    1.413   .     A
C696   C702    1.401   .     A
C697   C699    1.413   .     A
C697   C704    1.401   .     A
C698   C700    1.422   .     A
C698   C87     1.415   1_556 S
C699   C701    1.422   .     A
C700   C705    1.417   .     A
C701   C703    1.417   .     A
C702   H717    1.083   .     S
C702   C91     1.398   1_556 S
C703   O735    1.384   .     S
C704   H721    1.083   .     S
C705   O736    1.384   .     S
C705   C92     1.398   1_556 S
C706   Cl711   1.761   .     S
C707   C710    1.410   .     A
C707   Cl712   1.761   .     S
C707   C777    1.395   .     S
C708   C710    1.407   .     A
C708   Cl713   1.775   .     S
C708   C774    1.395   .     S
C709   Cl714   1.775   .     S
Cu715  N729    2.041   .     S
Cu715  O744    1.966   .     S
Cu715  Cu716   2.716   .     S
Cu715  O742    1.977   .     S
Cu715  O731    1.970   .     S
Cu715  O746    1.968   .     S
Cu716  O743    1.977   .     S
Cu716  O747    1.968   .     S
Cu716  O741    1.970   .     S
Cu716  O745    1.966   .     S
Cu716  N730    2.041   .     S
H718   O738    0.978   .     S
H719   O739    0.982   .     S
H720   O740    0.982   .     S
H722   O748    0.989   .     S
H723   O732    0.989   .     S
H724   O733    0.987   .     S
H725   O734    0.987   .     S
H726   O735    0.992   .     S
H727   O736    0.992   .     S
H728   O737    0.978   .     S
C749   O799    1.302   .     A
C749   O811    1.305   .     A
C749   C750    1.458   .     S
C750   C774    1.410   .     A
C750   C777    1.407   .     A
C751   N798    1.379   .     A
C751   O805    1.370   .     S
C751   C1162   1.414   1_545 S
C752   N797    1.379   .     A
C752   O806    1.370   .     S
C752   C957    1.414   .     S
C753   N798    1.377   .     A
C753   O807    1.375   .     S
C753   C1160   1.414   1_545 S
C754   O808    1.375   .     S
C754   N797    1.377   .     A
C754   C955    1.414   .     S
C755   C761    1.454   .     S
C755   O812    1.298   .     A
C755   O815    1.305   .     A
C756   C759    1.453   .     S
C756   O813    1.298   .     A
C756   O814    1.305   .     A
C757   C768    1.412   .     A
C757   O816    1.384   .     S
C757   C759    1.413   .     A
C758   O800    1.384   .     S
C758   C769    1.412   .     A
C758   C761    1.413   .     A
C759   C762    1.412   .     A
C760   O810    1.305   .     A
C760   O809    1.302   .     A
C760   C778    1.458   .     S
C761   C763    1.412   .     A
C762   C764    1.401   .     A
C762   O801    1.388   .     S
C763   O802    1.388   .     S
C763   C765    1.401   .     A
C764   C766    1.413   .     A
C764   C770    1.401   .     A
C765   C767    1.413   .     A
C765   C772    1.401   .     A
C766   C768    1.422   .     A
C766   C155    1.415   1_556 S
C767   C769    1.422   .     A
C768   C773    1.417   .     A
C769   C771    1.417   .     A
C770   H785    1.083   .     S
C770   C159    1.398   1_556 S
C771   O803    1.384   .     S
C772   H789    1.083   .     S
C773   O804    1.384   .     S
C773   C160    1.398   1_556 S
C774   Cl779   1.761   .     S
C775   C778    1.410   .     A
C775   Cl780   1.761   .     S
C775   C641    1.395   1_655 S
C776   C778    1.407   .     A
C776   Cl781   1.775   .     S
C776   C638    1.395   1_655 S
C777   Cl782   1.775   .     S
Cu783  N797    2.041   .     S
Cu783  O812    1.966   .     S
Cu783  Cu784   2.716   .     S
Cu783  O810    1.977   .     S
Cu783  O799    1.970   .     S
Cu783  O814    1.968   .     S
Cu784  O811    1.977   .     S
Cu784  O815    1.968   .     S
Cu784  O809    1.970   .     S
Cu784  O813    1.966   .     S
Cu784  N798    2.041   .     S
H786   O806    0.978   .     S
H787   O807    0.982   .     S
H788   O808    0.982   .     S
H790   O816    0.989   .     S
H791   O800    0.989   .     S
H792   O801    0.987   .     S
H793   O802    0.987   .     S
H794   O803    0.992   .     S
H795   O804    0.992   .     S
H796   O805    0.978   .     S
C817   O867    1.302   .     A
C817   O879    1.305   .     A
C817   C818    1.458   .     S
C818   C842    1.410   .     A
C818   C845    1.407   .     A
C819   N866    1.379   .     A
C819   O873    1.370   .     S
C820   N865    1.379   .     A
C820   O874    1.370   .     S
C820   C1025   1.414   .     S
C821   N866    1.377   .     A
C821   O875    1.375   .     S
C822   O876    1.375   .     S
C822   N865    1.377   .     A
C822   C1023   1.414   .     S
C823   C829    1.454   .     S
C823   O880    1.298   .     A
C823   O883    1.305   .     A
C824   C827    1.453   .     S
C824   O881    1.298   .     A
C824   O882    1.305   .     A
C825   C836    1.412   .     A
C825   O884    1.384   .     S
C825   C827    1.413   .     A
C826   O868    1.384   .     S
C826   C837    1.412   .     A
C826   C829    1.413   .     A
C827   C830    1.412   .     A
C828   O878    1.305   .     A
C828   O877    1.302   .     A
C828   C846    1.458   .     S
C829   C831    1.412   .     A
C830   C832    1.401   .     A
C830   O869    1.388   .     S
C831   O870    1.388   .     S
C831   C833    1.401   .     A
C832   C834    1.413   .     A
C832   C838    1.401   .     A
C833   C835    1.413   .     A
C833   C840    1.401   .     A
C834   C836    1.422   .     A
C834   C223    1.415   1_556 S
C835   C837    1.422   .     A
C836   C841    1.417   .     A
C837   C839    1.417   .     A
C838   H853    1.083   .     S
C838   C227    1.398   1_556 S
C839   O871    1.384   .     S
C840   H857    1.083   .     S
C841   O872    1.384   .     S
C841   C228    1.398   1_556 S
C842   Cl847   1.761   .     S
C842   C980    1.395   1_455 S
C843   C846    1.410   .     A
C843   Cl848   1.761   .     S
C843   C913    1.395   .     S
C844   C846    1.407   .     A
C844   Cl849   1.775   .     S
C844   C910    1.395   .     S
C845   Cl850   1.775   .     S
C845   C979    1.395   1_455 S
Cu851  N865    2.041   .     S
Cu851  O880    1.966   .     S
Cu851  Cu852   2.716   .     S
Cu851  O878    1.977   .     S
Cu851  O867    1.970   .     S
Cu851  O882    1.968   .     S
Cu852  O879    1.977   .     S
Cu852  O883    1.968   .     S
Cu852  O877    1.970   .     S
Cu852  O881    1.966   .     S
Cu852  N866    2.041   .     S
H854   O874    0.978   .     S
H855   O875    0.982   .     S
H856   O876    0.982   .     S
H858   O884    0.989   .     S
H859   O868    0.989   .     S
H860   O869    0.987   .     S
H861   O870    0.987   .     S
H862   O871    0.992   .     S
H863   O872    0.992   .     S
H864   O873    0.978   .     S
C885   O935    1.302   .     A
C885   O947    1.305   .     A
C885   C886    1.458   .     S
C886   C910    1.410   .     A
C886   C913    1.407   .     A
C887   N934    1.379   .     A
C887   O941    1.370   .     S
C888   N933    1.379   .     A
C888   O942    1.370   .     S
C888   C1093   1.414   .     S
C889   N934    1.377   .     A
C889   O943    1.375   .     S
C890   O944    1.375   .     S
C890   N933    1.377   .     A
C890   C1091   1.414   .     S
C891   C897    1.454   .     S
C891   O948    1.298   .     A
C891   O951    1.305   .     A
C892   C895    1.453   .     S
C892   O949    1.298   .     A
C892   O950    1.305   .     A
C893   C904    1.412   .     A
C893   O952    1.384   .     S
C893   C895    1.413   .     A
C894   O936    1.384   .     S
C894   C905    1.412   .     A
C894   C897    1.413   .     A
C895   C898    1.412   .     A
C896   O946    1.305   .     A
C896   O945    1.302   .     A
C896   C914    1.458   .     S
C897   C899    1.412   .     A
C898   C900    1.401   .     A
C898   O937    1.388   .     S
C899   O938    1.388   .     S
C899   C901    1.401   .     A
C900   C902    1.413   .     A
C900   C906    1.401   .     A
C901   C903    1.413   .     A
C901   C908    1.401   .     A
C902   C904    1.422   .     A
C902   C291    1.415   1_556 S
C903   C905    1.422   .     A
C904   C909    1.417   .     A
C905   C907    1.417   .     A
C906   H921    1.083   .     S
C906   C295    1.398   1_556 S
C907   O939    1.384   .     S
C908   H925    1.083   .     S
C909   O940    1.384   .     S
C909   C296    1.398   1_556 S
C910   Cl915   1.761   .     S
C911   C914    1.410   .     A
C911   Cl916   1.761   .     S
C911   C981    1.395   .     S
C912   C914    1.407   .     A
C912   Cl917   1.775   .     S
C912   C978    1.395   .     S
C913   Cl918   1.775   .     S
Cu919  N933    2.041   .     S
Cu919  O948    1.966   .     S
Cu919  Cu920   2.716   .     S
Cu919  O946    1.977   .     S
Cu919  O935    1.970   .     S
Cu919  O950    1.968   .     S
Cu920  O947    1.977   .     S
Cu920  O951    1.968   .     S
Cu920  O945    1.970   .     S
Cu920  O949    1.966   .     S
Cu920  N934    2.041   .     S
H922   O942    0.978   .     S
H923   O943    0.982   .     S
H924   O944    0.982   .     S
H926   O952    0.989   .     S
H927   O936    0.989   .     S
H928   O937    0.987   .     S
H929   O938    0.987   .     S
H930   O939    0.992   .     S
H931   O940    0.992   .     S
H932   O941    0.978   .     S
C953   O1003   1.302   .     A
C953   O1015   1.305   .     A
C953   C954    1.458   .     S
C954   C978    1.410   .     A
C954   C981    1.407   .     A
C955   N1002   1.379   .     A
C955   O1009   1.370   .     S
C956   N1001   1.379   .     A
C956   O1010   1.370   .     S
C956   C1161   1.414   .     S
C957   N1002   1.377   .     A
C957   O1011   1.375   .     S
C958   O1012   1.375   .     S
C958   N1001   1.377   .     A
C958   C1159   1.414   .     S
C959   C965    1.454   .     S
C959   O1016   1.298   .     A
C959   O1019   1.305   .     A
C960   C963    1.453   .     S
C960   O1017   1.298   .     A
C960   O1018   1.305   .     A
C961   C972    1.412   .     A
C961   O1020   1.384   .     S
C961   C963    1.413   .     A
C962   O1004   1.384   .     S
C962   C973    1.412   .     A
C962   C965    1.413   .     A
C963   C966    1.412   .     A
C964   O1014   1.305   .     A
C964   O1013   1.302   .     A
C964   C982    1.458   .     S
C965   C967    1.412   .     A
C966   C968    1.401   .     A
C966   O1005   1.388   .     S
C967   O1006   1.388   .     S
C967   C969    1.401   .     A
C968   C970    1.413   .     A
C968   C974    1.401   .     A
C969   C971    1.413   .     A
C969   C976    1.401   .     A
C970   C972    1.422   .     A
C970   C359    1.415   1_556 S
C971   C973    1.422   .     A
C972   C977    1.417   .     A
C973   C975    1.417   .     A
C974   H989    1.083   .     S
C974   C363    1.398   1_556 S
C975   O1007   1.384   .     S
C976   H993    1.083   .     S
C977   O1008   1.384   .     S
C977   C364    1.398   1_556 S
C978   Cl983   1.761   .     S
C979   C982    1.410   .     A
C979   Cl984   1.761   .     S
C979   C845    1.395   1_655 S
C980   C982    1.407   .     A
C980   Cl985   1.775   .     S
C980   C842    1.395   1_655 S
C981   Cl986   1.775   .     S
Cu987  N1001   2.041   .     S
Cu987  O1016   1.966   .     S
Cu987  Cu988   2.716   .     S
Cu987  O1014   1.977   .     S
Cu987  O1003   1.970   .     S
Cu987  O1018   1.968   .     S
Cu988  O1015   1.977   .     S
Cu988  O1019   1.968   .     S
Cu988  O1013   1.970   .     S
Cu988  O1017   1.966   .     S
Cu988  N1002   2.041   .     S
H990   O1010   0.978   .     S
H991   O1011   0.982   .     S
H992   O1012   0.982   .     S
H994   O1020   0.989   .     S
H995   O1004   0.989   .     S
H996   O1005   0.987   .     S
H997   O1006   0.987   .     S
H998   O1007   0.992   .     S
H999   O1008   0.992   .     S
H1000  O1009   0.978   .     S
C1021  O1071   1.302   .     A
C1021  O1083   1.305   .     A
C1021  C1022   1.458   .     S
C1022  C1046   1.410   .     A
C1022  C1049   1.407   .     A
C1023  N1070   1.379   .     A
C1023  O1077   1.370   .     S
C1024  N1069   1.379   .     A
C1024  O1078   1.370   .     S
C1024  C617    1.414   1_565 S
C1025  N1070   1.377   .     A
C1025  O1079   1.375   .     S
C1026  O1080   1.375   .     S
C1026  N1069   1.377   .     A
C1026  C615    1.414   1_565 S
C1027  C1033   1.454   .     S
C1027  O1084   1.298   .     A
C1027  O1087   1.305   .     A
C1028  C1031   1.453   .     S
C1028  O1085   1.298   .     A
C1028  O1086   1.305   .     A
C1029  C1040   1.412   .     A
C1029  O1088   1.384   .     S
C1029  C1031   1.413   .     A
C1030  O1072   1.384   .     S
C1030  C1041   1.412   .     A
C1030  C1033   1.413   .     A
C1031  C1034   1.412   .     A
C1032  O1082   1.305   .     A
C1032  O1081   1.302   .     A
C1032  C1050   1.458   .     S
C1033  C1035   1.412   .     A
C1034  C1036   1.401   .     A
C1034  O1073   1.388   .     S
C1035  O1074   1.388   .     S
C1035  C1037   1.401   .     A
C1036  C1038   1.413   .     A
C1036  C1042   1.401   .     A
C1037  C1039   1.413   .     A
C1037  C1044   1.401   .     A
C1038  C1040   1.422   .     A
C1038  C427    1.415   1_556 S
C1039  C1041   1.422   .     A
C1040  C1045   1.417   .     A
C1041  C1043   1.417   .     A
C1042  H1057   1.083   .     S
C1042  C431    1.398   1_556 S
C1043  O1075   1.384   .     S
C1044  H1061   1.083   .     S
C1045  O1076   1.384   .     S
C1045  C432    1.398   1_556 S
C1046  Cl1051  1.761   .     S
C1046  C1184   1.395   1_455 S
C1047  C1050   1.410   .     A
C1047  Cl1052  1.761   .     S
C1047  C1117   1.395   .     S
C1048  C1050   1.407   .     A
C1048  Cl1053  1.775   .     S
C1048  C1114   1.395   .     S
C1049  Cl1054  1.775   .     S
C1049  C1183   1.395   1_455 S
Cu1055 N1069   2.041   .     S
Cu1055 O1084   1.966   .     S
Cu1055 Cu1056  2.716   .     S
Cu1055 O1082   1.977   .     S
Cu1055 O1071   1.970   .     S
Cu1055 O1086   1.968   .     S
Cu1056 O1083   1.977   .     S
Cu1056 O1087   1.968   .     S
Cu1056 O1081   1.970   .     S
Cu1056 O1085   1.966   .     S
Cu1056 N1070   2.041   .     S
H1058  O1078   0.978   .     S
H1059  O1079   0.982   .     S
H1060  O1080   0.982   .     S
H1062  O1088   0.989   .     S
H1063  O1072   0.989   .     S
H1064  O1073   0.987   .     S
H1065  O1074   0.987   .     S
H1066  O1075   0.992   .     S
H1067  O1076   0.992   .     S
H1068  O1077   0.978   .     S
C1089  O1139   1.302   .     A
C1089  O1151   1.305   .     A
C1089  C1090   1.458   .     S
C1090  C1114   1.410   .     A
C1090  C1117   1.407   .     A
C1091  N1138   1.379   .     A
C1091  O1145   1.370   .     S
C1092  N1137   1.379   .     A
C1092  O1146   1.370   .     S
C1092  C685    1.414   1_565 S
C1093  N1138   1.377   .     A
C1093  O1147   1.375   .     S
C1094  O1148   1.375   .     S
C1094  N1137   1.377   .     A
C1094  C683    1.414   1_565 S
C1095  C1101   1.454   .     S
C1095  O1152   1.298   .     A
C1095  O1155   1.305   .     A
C1096  C1099   1.453   .     S
C1096  O1153   1.298   .     A
C1096  O1154   1.305   .     A
C1097  C1108   1.412   .     A
C1097  O1156   1.384   .     S
C1097  C1099   1.413   .     A
C1098  O1140   1.384   .     S
C1098  C1109   1.412   .     A
C1098  C1101   1.413   .     A
C1099  C1102   1.412   .     A
C1100  O1150   1.305   .     A
C1100  O1149   1.302   .     A
C1100  C1118   1.458   .     S
C1101  C1103   1.412   .     A
C1102  C1104   1.401   .     A
C1102  O1141   1.388   .     S
C1103  O1142   1.388   .     S
C1103  C1105   1.401   .     A
C1104  C1106   1.413   .     A
C1104  C1110   1.401   .     A
C1105  C1107   1.413   .     A
C1105  C1112   1.401   .     A
C1106  C1108   1.422   .     A
C1106  C495    1.415   1_556 S
C1107  C1109   1.422   .     A
C1108  C1113   1.417   .     A
C1109  C1111   1.417   .     A
C1110  H1125   1.083   .     S
C1110  C499    1.398   1_556 S
C1111  O1143   1.384   .     S
C1112  H1129   1.083   .     S
C1113  O1144   1.384   .     S
C1113  C500    1.398   1_556 S
C1114  Cl1119  1.761   .     S
C1115  C1118   1.410   .     A
C1115  Cl1120  1.761   .     S
C1115  C1185   1.395   .     S
C1116  C1118   1.407   .     A
C1116  Cl1121  1.775   .     S
C1116  C1182   1.395   .     S
C1117  Cl1122  1.775   .     S
Cu1123 N1137   2.041   .     S
Cu1123 O1152   1.966   .     S
Cu1123 Cu1124  2.716   .     S
Cu1123 O1150   1.977   .     S
Cu1123 O1139   1.970   .     S
Cu1123 O1154   1.968   .     S
Cu1124 O1151   1.977   .     S
Cu1124 O1155   1.968   .     S
Cu1124 O1149   1.970   .     S
Cu1124 O1153   1.966   .     S
Cu1124 N1138   2.041   .     S
H1126  O1146   0.978   .     S
H1127  O1147   0.982   .     S
H1128  O1148   0.982   .     S
H1130  O1156   0.989   .     S
H1131  O1140   0.989   .     S
H1132  O1141   0.987   .     S
H1133  O1142   0.987   .     S
H1134  O1143   0.992   .     S
H1135  O1144   0.992   .     S
H1136  O1145   0.978   .     S
C1157  O1207   1.302   .     A
C1157  O1219   1.305   .     A
C1157  C1158   1.458   .     S
C1158  C1182   1.410   .     A
C1158  C1185   1.407   .     A
C1159  N1206   1.379   .     A
C1159  O1213   1.370   .     S
C1160  N1205   1.379   .     A
C1160  O1214   1.370   .     S
C1160  C753    1.414   1_565 S
C1161  N1206   1.377   .     A
C1161  O1215   1.375   .     S
C1162  O1216   1.375   .     S
C1162  N1205   1.377   .     A
C1162  C751    1.414   1_565 S
C1163  C1169   1.454   .     S
C1163  O1220   1.298   .     A
C1163  O1223   1.305   .     A
C1164  C1167   1.453   .     S
C1164  O1221   1.298   .     A
C1164  O1222   1.305   .     A
C1165  C1176   1.412   .     A
C1165  O1224   1.384   .     S
C1165  C1167   1.413   .     A
C1166  O1208   1.384   .     S
C1166  C1177   1.412   .     A
C1166  C1169   1.413   .     A
C1167  C1170   1.412   .     A
C1168  O1218   1.305   .     A
C1168  O1217   1.302   .     A
C1168  C1186   1.458   .     S
C1169  C1171   1.412   .     A
C1170  C1172   1.401   .     A
C1170  O1209   1.388   .     S
C1171  O1210   1.388   .     S
C1171  C1173   1.401   .     A
C1172  C1174   1.413   .     A
C1172  C1178   1.401   .     A
C1173  C1175   1.413   .     A
C1173  C1180   1.401   .     A
C1174  C1176   1.422   .     A
C1174  C563    1.415   1_556 S
C1175  C1177   1.422   .     A
C1176  C1181   1.417   .     A
C1177  C1179   1.417   .     A
C1178  H1193   1.083   .     S
C1178  C567    1.398   1_556 S
C1179  O1211   1.384   .     S
C1180  H1197   1.083   .     S
C1181  O1212   1.384   .     S
C1181  C568    1.398   1_556 S
C1182  Cl1187  1.761   .     S
C1183  C1186   1.410   .     A
C1183  Cl1188  1.761   .     S
C1183  C1049   1.395   1_655 S
C1184  C1186   1.407   .     A
C1184  Cl1189  1.775   .     S
C1184  C1046   1.395   1_655 S
C1185  Cl1190  1.775   .     S
Cu1191 N1205   2.041   .     S
Cu1191 O1220   1.966   .     S
Cu1191 Cu1192  2.716   .     S
Cu1191 O1218   1.977   .     S
Cu1191 O1207   1.970   .     S
Cu1191 O1222   1.968   .     S
Cu1192 O1219   1.977   .     S
Cu1192 O1223   1.968   .     S
Cu1192 O1217   1.970   .     S
Cu1192 O1221   1.966   .     S
Cu1192 N1206   2.041   .     S
H1194  O1214   0.978   .     S
H1195  O1215   0.982   .     S
H1196  O1216   0.982   .     S
H1198  O1224   0.989   .     S
H1199  O1208   0.989   .     S
H1200  O1209   0.987   .     S
H1201  O1210   0.987   .     S
H1202  O1211   0.992   .     S
H1203  O1212   0.992   .     S
H1204  O1213   0.978   .     S
