data_str_m2_o1_o5_pcu_sym.78
_audit_creation_date              2020-01-03
_audit_creation_method            'Materials Studio'
_symmetry_space_group_name_H-M    'P1'
_symmetry_Int_Tables_number       1
_symmetry_cell_setting            triclinic
loop_
_symmetry_equiv_pos_as_xyz
  x,y,z
_cell_length_a                    32.7129
_cell_length_b                    28.8520
_cell_length_c                    27.1572
_cell_angle_alpha                 90.6776
_cell_angle_beta                  93.3612
_cell_angle_gamma                 92.1651
loop_
_atom_site_label
_atom_site_type_symbol
_atom_site_fract_x
_atom_site_fract_y
_atom_site_fract_z
_atom_site_U_iso_or_equiv
_atom_site_adp_type
_atom_site_occupancy
Br1    Br    0.11084   0.05228   0.08057   0.00000  Uiso   1.00
Br2    Br    0.22250   0.28105   0.25276   0.00000  Uiso   1.00
Br3    Br    0.22872   0.05947   0.24672   0.00000  Uiso   1.00
Br4    Br    0.10461   0.27386   0.08661   0.00000  Uiso   1.00
C5     C     0.08748   0.16576   0.16939   0.00000  Uiso   1.00
C6     C     0.02379   0.20149   0.19413   0.00000  Uiso   1.00
C7     C     0.29084   0.16941   0.16142   0.00000  Uiso   1.00
C8     C     0.04249   0.16392   0.17191   0.00000  Uiso   1.00
C9     C     0.14280   0.02321   0.13245   0.00000  Uiso   1.00
C10    C     0.19053   0.31012   0.20088   0.00000  Uiso   1.00
C11    C     0.19114   0.02611   0.20031   0.00000  Uiso   1.00
C12    C     0.14219   0.30723   0.13302   0.00000  Uiso   1.00
C13    C     0.01661   0.04230   0.12084   0.00000  Uiso   1.00
C14    C     0.31673   0.29103   0.21245   0.00000  Uiso   1.00
C15    C     0.26104   0.07261   0.09658   0.00000  Uiso   1.00
C16    C     0.24585   0.16757   0.16394   0.00000  Uiso   1.00
C17    C     0.07229   0.26067   0.23682   0.00000  Uiso   1.00
C18    C     0.16660   0.16650   0.07364   0.00000  Uiso   1.00
C19    C     0.16673   0.16683   0.25970   0.00000  Uiso   1.00
C20    C     0.16665   0.16644   0.02188   0.00000  Uiso   1.00
C21    C     0.16668   0.16690   0.31146   0.00000  Uiso   1.00
C22    C     0.01857   0.12641   0.14941   0.00000  Uiso   1.00
C23    C     0.31476   0.20692   0.18392   0.00000  Uiso   1.00
C24    C     0.30954   0.13183   0.13920   0.00000  Uiso   1.00
Cu25   Cu    0.16667   0.21355   0.16667   0.00000  Uiso   1.00
Cu26   Cu    0.16667   0.11978   0.16667   0.00000  Uiso   1.00
H27    H     0.05211   0.07277   0.17785   0.00000  Uiso   1.00
H28    H     0.27064   0.04383   0.07291   0.00000  Uiso   1.00
H29    H     0.23056   0.08268   0.08140   0.00000  Uiso   1.00
H30    H     0.25862   0.05952   0.13459   0.00000  Uiso   1.00
H31    H     0.02664   0.21973   0.26937   0.00000  Uiso   1.00
H32    H     0.06270   0.28944   0.26052   0.00000  Uiso   1.00
H33    H     0.07471   0.27379   0.19882   0.00000  Uiso   1.00
H34    H     0.10276   0.25058   0.25199   0.00000  Uiso   1.00
H35    H     0.32254   0.03153   0.14031   0.00000  Uiso   1.00
H36    H     0.03723   0.01262   0.12265   0.00000  Uiso   1.00
H37    H     0.00990   0.04913   0.08121   0.00000  Uiso   1.00
H38    H     0.28127   0.26056   0.15539   0.00000  Uiso   1.00
H39    H     0.01082   0.30179   0.19301   0.00000  Uiso   1.00
H40    H     0.32342   0.28421   0.25209   0.00000  Uiso   1.00
H41    H     0.29612   0.32072   0.21060   0.00000  Uiso   1.00
H42    H     0.30664   0.11357   0.06397   0.00000  Uiso   1.00
N43    N     0.16667   0.28402   0.16667   0.00000  Uiso   1.00
N44    N     0.16667   0.04931   0.16667   0.00000  Uiso   1.00
N45    N     0.03708   0.08221   0.14525   0.00000  Uiso   1.00
N46    N     0.29626   0.25113   0.18803   0.00000  Uiso   1.00
N47    N     0.28984   0.11200   0.09491   0.00000  Uiso   1.00
N48    N     0.04347   0.22129   0.23844   0.00000  Uiso   1.00
O49    O     0.10655   0.20625   0.16666   0.00000  Uiso   1.00
O50    O     0.22679   0.12709   0.16667   0.00000  Uiso   1.00
O51    O     0.22679   0.20625   0.16667   0.00000  Uiso   1.00
O52    O     0.10655   0.12709   0.16666   0.00000  Uiso   1.00
O53    O     0.16667   0.20625   0.09613   0.00000  Uiso   1.00
O54    O     0.16667   0.12708   0.23720   0.00000  Uiso   1.00
O55    O     0.16667   0.20625   0.23720   0.00000  Uiso   1.00
O56    O     0.16667   0.12708   0.09613   0.00000  Uiso   1.00
Br57   Br    0.44417   0.05228   0.08057   0.00000  Uiso   1.00
Br58   Br    0.55584   0.28105   0.25276   0.00000  Uiso   1.00
Br59   Br    0.56205   0.05947   0.24672   0.00000  Uiso   1.00
Br60   Br    0.43794   0.27386   0.08661   0.00000  Uiso   1.00
C61    C     0.42081   0.16576   0.16939   0.00000  Uiso   1.00
C62    C     0.35712   0.20149   0.19413   0.00000  Uiso   1.00
C63    C     0.62417   0.16941   0.16142   0.00000  Uiso   1.00
C64    C     0.37582   0.16392   0.17191   0.00000  Uiso   1.00
C65    C     0.47613   0.02321   0.13245   0.00000  Uiso   1.00
C66    C     0.52387   0.31012   0.20088   0.00000  Uiso   1.00
C67    C     0.52447   0.02611   0.20031   0.00000  Uiso   1.00
C68    C     0.47553   0.30723   0.13302   0.00000  Uiso   1.00
C69    C     0.34994   0.04230   0.12084   0.00000  Uiso   1.00
C70    C     0.65007   0.29103   0.21245   0.00000  Uiso   1.00
C71    C     0.59437   0.07261   0.09658   0.00000  Uiso   1.00
C72    C     0.57919   0.16757   0.16394   0.00000  Uiso   1.00
C73    C     0.40562   0.26067   0.23682   0.00000  Uiso   1.00
C74    C     0.49994   0.16650   0.07364   0.00000  Uiso   1.00
C75    C     0.50006   0.16683   0.25970   0.00000  Uiso   1.00
C76    C     0.49998   0.16644   0.02188   0.00000  Uiso   1.00
C77    C     0.50002   0.16690   0.31146   0.00000  Uiso   1.00
C78    C     0.35190   0.12641   0.14941   0.00000  Uiso   1.00
C79    C     0.64810   0.20692   0.18392   0.00000  Uiso   1.00
C80    C     0.64287   0.13183   0.13920   0.00000  Uiso   1.00
Cu81   Cu    0.50000   0.21355   0.16667   0.00000  Uiso   1.00
Cu82   Cu    0.50000   0.11978   0.16667   0.00000  Uiso   1.00
H83    H     0.38545   0.07277   0.17785   0.00000  Uiso   1.00
H84    H     0.60397   0.04383   0.07291   0.00000  Uiso   1.00
H85    H     0.56389   0.08268   0.08140   0.00000  Uiso   1.00
H86    H     0.59196   0.05952   0.13459   0.00000  Uiso   1.00
H87    H     0.35998   0.21973   0.26937   0.00000  Uiso   1.00
H88    H     0.39603   0.28944   0.26052   0.00000  Uiso   1.00
H89    H     0.40805   0.27379   0.19882   0.00000  Uiso   1.00
H90    H     0.43609   0.25058   0.25199   0.00000  Uiso   1.00
H91    H     0.65587   0.03153   0.14031   0.00000  Uiso   1.00
H92    H     0.37057   0.01262   0.12265   0.00000  Uiso   1.00
H93    H     0.34323   0.04913   0.08121   0.00000  Uiso   1.00
H94    H     0.61460   0.26056   0.15539   0.00000  Uiso   1.00
H95    H     0.34415   0.30179   0.19301   0.00000  Uiso   1.00
H96    H     0.65675   0.28421   0.25209   0.00000  Uiso   1.00
H97    H     0.62946   0.32072   0.21060   0.00000  Uiso   1.00
H98    H     0.63997   0.11357   0.06397   0.00000  Uiso   1.00
N99    N     0.50000   0.28402   0.16667   0.00000  Uiso   1.00
N100   N     0.50000   0.04931   0.16667   0.00000  Uiso   1.00
N101   N     0.37041   0.08221   0.14525   0.00000  Uiso   1.00
N102   N     0.62960   0.25113   0.18803   0.00000  Uiso   1.00
N103   N     0.62317   0.11200   0.09491   0.00000  Uiso   1.00
N104   N     0.37680   0.22129   0.23844   0.00000  Uiso   1.00
O105   O     0.43988   0.20625   0.16666   0.00000  Uiso   1.00
O106   O     0.56012   0.12709   0.16667   0.00000  Uiso   1.00
O107   O     0.56012   0.20625   0.16667   0.00000  Uiso   1.00
O108   O     0.43988   0.12709   0.16666   0.00000  Uiso   1.00
O109   O     0.50000   0.20625   0.09613   0.00000  Uiso   1.00
O110   O     0.50000   0.12708   0.23720   0.00000  Uiso   1.00
O111   O     0.50000   0.20625   0.23720   0.00000  Uiso   1.00
O112   O     0.50000   0.12708   0.09613   0.00000  Uiso   1.00
Br113  Br    0.77751   0.05228   0.08057   0.00000  Uiso   1.00
Br114  Br    0.88917   0.28105   0.25276   0.00000  Uiso   1.00
Br115  Br    0.89538   0.05947   0.24672   0.00000  Uiso   1.00
Br116  Br    0.77128   0.27386   0.08661   0.00000  Uiso   1.00
C117   C     0.75414   0.16576   0.16939   0.00000  Uiso   1.00
C118   C     0.69045   0.20149   0.19413   0.00000  Uiso   1.00
C119   C     0.95751   0.16941   0.16142   0.00000  Uiso   1.00
C120   C     0.70916   0.16392   0.17191   0.00000  Uiso   1.00
C121   C     0.80947   0.02321   0.13245   0.00000  Uiso   1.00
C122   C     0.85720   0.31012   0.20088   0.00000  Uiso   1.00
C123   C     0.85781   0.02611   0.20031   0.00000  Uiso   1.00
C124   C     0.80886   0.30723   0.13302   0.00000  Uiso   1.00
C125   C     0.68327   0.04230   0.12084   0.00000  Uiso   1.00
C126   C     0.98340   0.29103   0.21245   0.00000  Uiso   1.00
C127   C     0.92770   0.07261   0.09658   0.00000  Uiso   1.00
C128   C     0.91252   0.16757   0.16394   0.00000  Uiso   1.00
C129   C     0.73896   0.26067   0.23682   0.00000  Uiso   1.00
C130   C     0.83327   0.16650   0.07364   0.00000  Uiso   1.00
C131   C     0.83340   0.16683   0.25970   0.00000  Uiso   1.00
C132   C     0.83331   0.16644   0.02188   0.00000  Uiso   1.00
C133   C     0.83335   0.16690   0.31146   0.00000  Uiso   1.00
C134   C     0.68523   0.12641   0.14941   0.00000  Uiso   1.00
C135   C     0.98143   0.20692   0.18392   0.00000  Uiso   1.00
C136   C     0.97621   0.13183   0.13920   0.00000  Uiso   1.00
Cu137  Cu    0.83333   0.21355   0.16667   0.00000  Uiso   1.00
Cu138  Cu    0.83333   0.11978   0.16667   0.00000  Uiso   1.00
H139   H     0.71878   0.07277   0.17785   0.00000  Uiso   1.00
H140   H     0.93730   0.04383   0.07291   0.00000  Uiso   1.00
H141   H     0.89723   0.08268   0.08140   0.00000  Uiso   1.00
H142   H     0.92529   0.05952   0.13459   0.00000  Uiso   1.00
H143   H     0.69331   0.21973   0.26937   0.00000  Uiso   1.00
H144   H     0.72936   0.28944   0.26052   0.00000  Uiso   1.00
H145   H     0.74138   0.27379   0.19882   0.00000  Uiso   1.00
H146   H     0.76942   0.25058   0.25199   0.00000  Uiso   1.00
H147   H     0.98920   0.03153   0.14031   0.00000  Uiso   1.00
H148   H     0.70390   0.01262   0.12265   0.00000  Uiso   1.00
H149   H     0.67657   0.04913   0.08121   0.00000  Uiso   1.00
H150   H     0.94793   0.26056   0.15539   0.00000  Uiso   1.00
H151   H     0.67749   0.30179   0.19301   0.00000  Uiso   1.00
H152   H     0.99008   0.28421   0.25209   0.00000  Uiso   1.00
H153   H     0.96279   0.32072   0.21060   0.00000  Uiso   1.00
H154   H     0.97331   0.11357   0.06397   0.00000  Uiso   1.00
N155   N     0.83333   0.28402   0.16667   0.00000  Uiso   1.00
N156   N     0.83333   0.04931   0.16667   0.00000  Uiso   1.00
N157   N     0.70374   0.08221   0.14525   0.00000  Uiso   1.00
N158   N     0.96293   0.25113   0.18803   0.00000  Uiso   1.00
N159   N     0.95651   0.11200   0.09491   0.00000  Uiso   1.00
N160   N     0.71014   0.22129   0.23844   0.00000  Uiso   1.00
O161   O     0.77321   0.20625   0.16666   0.00000  Uiso   1.00
O162   O     0.89345   0.12709   0.16667   0.00000  Uiso   1.00
O163   O     0.89345   0.20625   0.16667   0.00000  Uiso   1.00
O164   O     0.77321   0.12709   0.16666   0.00000  Uiso   1.00
O165   O     0.83333   0.20625   0.09613   0.00000  Uiso   1.00
O166   O     0.83333   0.12708   0.23720   0.00000  Uiso   1.00
O167   O     0.83333   0.20625   0.23720   0.00000  Uiso   1.00
O168   O     0.83333   0.12708   0.09613   0.00000  Uiso   1.00
Br169  Br    0.11084   0.38561   0.08057   0.00000  Uiso   1.00
Br170  Br    0.22250   0.61439   0.25276   0.00000  Uiso   1.00
Br171  Br    0.22872   0.39280   0.24672   0.00000  Uiso   1.00
Br172  Br    0.10461   0.60720   0.08661   0.00000  Uiso   1.00
C173   C     0.08748   0.49909   0.16939   0.00000  Uiso   1.00
C174   C     0.02379   0.53483   0.19413   0.00000  Uiso   1.00
C175   C     0.29084   0.50274   0.16142   0.00000  Uiso   1.00
C176   C     0.04249   0.49725   0.17191   0.00000  Uiso   1.00
C177   C     0.14280   0.35655   0.13245   0.00000  Uiso   1.00
C178   C     0.19053   0.64345   0.20088   0.00000  Uiso   1.00
C179   C     0.19114   0.35944   0.20031   0.00000  Uiso   1.00
C180   C     0.14219   0.64056   0.13302   0.00000  Uiso   1.00
C181   C     0.01661   0.37563   0.12084   0.00000  Uiso   1.00
C182   C     0.31673   0.62436   0.21245   0.00000  Uiso   1.00
C183   C     0.26104   0.40594   0.09658   0.00000  Uiso   1.00
C184   C     0.24585   0.50090   0.16394   0.00000  Uiso   1.00
C185   C     0.07229   0.59401   0.23682   0.00000  Uiso   1.00
C186   C     0.16660   0.49983   0.07364   0.00000  Uiso   1.00
C187   C     0.16673   0.50017   0.25970   0.00000  Uiso   1.00
C188   C     0.16665   0.49977   0.02188   0.00000  Uiso   1.00
C189   C     0.16668   0.50023   0.31146   0.00000  Uiso   1.00
C190   C     0.01857   0.45974   0.14941   0.00000  Uiso   1.00
C191   C     0.31476   0.54025   0.18392   0.00000  Uiso   1.00
C192   C     0.30954   0.46516   0.13920   0.00000  Uiso   1.00
Cu193  Cu    0.16667   0.54689   0.16667   0.00000  Uiso   1.00
Cu194  Cu    0.16667   0.45311   0.16667   0.00000  Uiso   1.00
H195   H     0.05211   0.40610   0.17785   0.00000  Uiso   1.00
H196   H     0.27064   0.37716   0.07291   0.00000  Uiso   1.00
H197   H     0.23056   0.41601   0.08140   0.00000  Uiso   1.00
H198   H     0.25862   0.39285   0.13459   0.00000  Uiso   1.00
H199   H     0.02664   0.55306   0.26937   0.00000  Uiso   1.00
H200   H     0.06270   0.62277   0.26052   0.00000  Uiso   1.00
H201   H     0.07471   0.60713   0.19882   0.00000  Uiso   1.00
H202   H     0.10276   0.58391   0.25199   0.00000  Uiso   1.00
H203   H     0.32254   0.36486   0.14031   0.00000  Uiso   1.00
H204   H     0.03723   0.34595   0.12265   0.00000  Uiso   1.00
H205   H     0.00990   0.38246   0.08121   0.00000  Uiso   1.00
H206   H     0.28127   0.59389   0.15539   0.00000  Uiso   1.00
H207   H     0.01082   0.63512   0.19301   0.00000  Uiso   1.00
H208   H     0.32342   0.61754   0.25209   0.00000  Uiso   1.00
H209   H     0.29612   0.65405   0.21060   0.00000  Uiso   1.00
H210   H     0.30664   0.44690   0.06397   0.00000  Uiso   1.00
N211   N     0.16667   0.61736   0.16667   0.00000  Uiso   1.00
N212   N     0.16667   0.38264   0.16667   0.00000  Uiso   1.00
N213   N     0.03708   0.41554   0.14525   0.00000  Uiso   1.00
N214   N     0.29626   0.58446   0.18803   0.00000  Uiso   1.00
N215   N     0.28984   0.44534   0.09491   0.00000  Uiso   1.00
N216   N     0.04347   0.55462   0.23844   0.00000  Uiso   1.00
O217   O     0.10655   0.53958   0.16666   0.00000  Uiso   1.00
O218   O     0.22679   0.46042   0.16667   0.00000  Uiso   1.00
O219   O     0.22679   0.53958   0.16667   0.00000  Uiso   1.00
O220   O     0.10655   0.46042   0.16666   0.00000  Uiso   1.00
O221   O     0.16667   0.53959   0.09613   0.00000  Uiso   1.00
O222   O     0.16667   0.46041   0.23720   0.00000  Uiso   1.00
O223   O     0.16667   0.53959   0.23720   0.00000  Uiso   1.00
O224   O     0.16667   0.46041   0.09613   0.00000  Uiso   1.00
Br225  Br    0.44417   0.38561   0.08057   0.00000  Uiso   1.00
Br226  Br    0.55584   0.61439   0.25276   0.00000  Uiso   1.00
Br227  Br    0.56205   0.39280   0.24672   0.00000  Uiso   1.00
Br228  Br    0.43794   0.60720   0.08661   0.00000  Uiso   1.00
C229   C     0.42081   0.49909   0.16939   0.00000  Uiso   1.00
C230   C     0.35712   0.53483   0.19413   0.00000  Uiso   1.00
C231   C     0.62417   0.50274   0.16142   0.00000  Uiso   1.00
C232   C     0.37582   0.49725   0.17191   0.00000  Uiso   1.00
C233   C     0.47613   0.35655   0.13245   0.00000  Uiso   1.00
C234   C     0.52387   0.64345   0.20088   0.00000  Uiso   1.00
C235   C     0.52447   0.35944   0.20031   0.00000  Uiso   1.00
C236   C     0.47553   0.64056   0.13302   0.00000  Uiso   1.00
C237   C     0.34994   0.37563   0.12084   0.00000  Uiso   1.00
C238   C     0.65007   0.62436   0.21245   0.00000  Uiso   1.00
C239   C     0.59437   0.40594   0.09658   0.00000  Uiso   1.00
C240   C     0.57919   0.50090   0.16394   0.00000  Uiso   1.00
C241   C     0.40562   0.59401   0.23682   0.00000  Uiso   1.00
C242   C     0.49994   0.49983   0.07364   0.00000  Uiso   1.00
C243   C     0.50006   0.50017   0.25970   0.00000  Uiso   1.00
C244   C     0.49998   0.49977   0.02188   0.00000  Uiso   1.00
C245   C     0.50002   0.50023   0.31146   0.00000  Uiso   1.00
C246   C     0.35190   0.45974   0.14941   0.00000  Uiso   1.00
C247   C     0.64810   0.54025   0.18392   0.00000  Uiso   1.00
C248   C     0.64287   0.46516   0.13920   0.00000  Uiso   1.00
Cu249  Cu    0.50000   0.54689   0.16667   0.00000  Uiso   1.00
Cu250  Cu    0.50000   0.45311   0.16667   0.00000  Uiso   1.00
H251   H     0.38545   0.40610   0.17785   0.00000  Uiso   1.00
H252   H     0.60397   0.37716   0.07291   0.00000  Uiso   1.00
H253   H     0.56389   0.41601   0.08140   0.00000  Uiso   1.00
H254   H     0.59196   0.39285   0.13459   0.00000  Uiso   1.00
H255   H     0.35998   0.55306   0.26937   0.00000  Uiso   1.00
H256   H     0.39603   0.62277   0.26052   0.00000  Uiso   1.00
H257   H     0.40805   0.60713   0.19882   0.00000  Uiso   1.00
H258   H     0.43609   0.58391   0.25199   0.00000  Uiso   1.00
H259   H     0.65587   0.36486   0.14031   0.00000  Uiso   1.00
H260   H     0.37057   0.34595   0.12265   0.00000  Uiso   1.00
H261   H     0.34323   0.38246   0.08121   0.00000  Uiso   1.00
H262   H     0.61460   0.59389   0.15539   0.00000  Uiso   1.00
H263   H     0.34415   0.63512   0.19301   0.00000  Uiso   1.00
H264   H     0.65675   0.61754   0.25209   0.00000  Uiso   1.00
H265   H     0.62946   0.65405   0.21060   0.00000  Uiso   1.00
H266   H     0.63997   0.44690   0.06397   0.00000  Uiso   1.00
N267   N     0.50000   0.61736   0.16667   0.00000  Uiso   1.00
N268   N     0.50000   0.38264   0.16667   0.00000  Uiso   1.00
N269   N     0.37041   0.41554   0.14525   0.00000  Uiso   1.00
N270   N     0.62960   0.58446   0.18803   0.00000  Uiso   1.00
N271   N     0.62317   0.44534   0.09491   0.00000  Uiso   1.00
N272   N     0.37680   0.55462   0.23844   0.00000  Uiso   1.00
O273   O     0.43988   0.53958   0.16666   0.00000  Uiso   1.00
O274   O     0.56012   0.46042   0.16667   0.00000  Uiso   1.00
O275   O     0.56012   0.53958   0.16667   0.00000  Uiso   1.00
O276   O     0.43988   0.46042   0.16666   0.00000  Uiso   1.00
O277   O     0.50000   0.53959   0.09613   0.00000  Uiso   1.00
O278   O     0.50000   0.46041   0.23720   0.00000  Uiso   1.00
O279   O     0.50000   0.53959   0.23720   0.00000  Uiso   1.00
O280   O     0.50000   0.46041   0.09613   0.00000  Uiso   1.00
Br281  Br    0.77751   0.38561   0.08057   0.00000  Uiso   1.00
Br282  Br    0.88917   0.61439   0.25276   0.00000  Uiso   1.00
Br283  Br    0.89538   0.39280   0.24672   0.00000  Uiso   1.00
Br284  Br    0.77128   0.60720   0.08661   0.00000  Uiso   1.00
C285   C     0.75414   0.49909   0.16939   0.00000  Uiso   1.00
C286   C     0.69045   0.53483   0.19413   0.00000  Uiso   1.00
C287   C     0.95751   0.50274   0.16142   0.00000  Uiso   1.00
C288   C     0.70916   0.49725   0.17191   0.00000  Uiso   1.00
C289   C     0.80947   0.35655   0.13245   0.00000  Uiso   1.00
C290   C     0.85720   0.64345   0.20088   0.00000  Uiso   1.00
C291   C     0.85781   0.35944   0.20031   0.00000  Uiso   1.00
C292   C     0.80886   0.64056   0.13302   0.00000  Uiso   1.00
C293   C     0.68327   0.37563   0.12084   0.00000  Uiso   1.00
C294   C     0.98340   0.62436   0.21245   0.00000  Uiso   1.00
C295   C     0.92770   0.40594   0.09658   0.00000  Uiso   1.00
C296   C     0.91252   0.50090   0.16394   0.00000  Uiso   1.00
C297   C     0.73896   0.59401   0.23682   0.00000  Uiso   1.00
C298   C     0.83327   0.49983   0.07364   0.00000  Uiso   1.00
C299   C     0.83340   0.50017   0.25970   0.00000  Uiso   1.00
C300   C     0.83331   0.49977   0.02188   0.00000  Uiso   1.00
C301   C     0.83335   0.50023   0.31146   0.00000  Uiso   1.00
C302   C     0.68523   0.45974   0.14941   0.00000  Uiso   1.00
C303   C     0.98143   0.54025   0.18392   0.00000  Uiso   1.00
C304   C     0.97621   0.46516   0.13920   0.00000  Uiso   1.00
Cu305  Cu    0.83333   0.54689   0.16667   0.00000  Uiso   1.00
Cu306  Cu    0.83333   0.45311   0.16667   0.00000  Uiso   1.00
H307   H     0.71878   0.40610   0.17785   0.00000  Uiso   1.00
H308   H     0.93730   0.37716   0.07291   0.00000  Uiso   1.00
H309   H     0.89723   0.41601   0.08140   0.00000  Uiso   1.00
H310   H     0.92529   0.39285   0.13459   0.00000  Uiso   1.00
H311   H     0.69331   0.55306   0.26937   0.00000  Uiso   1.00
H312   H     0.72936   0.62277   0.26052   0.00000  Uiso   1.00
H313   H     0.74138   0.60713   0.19882   0.00000  Uiso   1.00
H314   H     0.76942   0.58391   0.25199   0.00000  Uiso   1.00
H315   H     0.98920   0.36486   0.14031   0.00000  Uiso   1.00
H316   H     0.70390   0.34595   0.12265   0.00000  Uiso   1.00
H317   H     0.67657   0.38246   0.08121   0.00000  Uiso   1.00
H318   H     0.94793   0.59389   0.15539   0.00000  Uiso   1.00
H319   H     0.67749   0.63512   0.19301   0.00000  Uiso   1.00
H320   H     0.99008   0.61754   0.25209   0.00000  Uiso   1.00
H321   H     0.96279   0.65405   0.21060   0.00000  Uiso   1.00
H322   H     0.97331   0.44690   0.06397   0.00000  Uiso   1.00
N323   N     0.83333   0.61736   0.16667   0.00000  Uiso   1.00
N324   N     0.83333   0.38264   0.16667   0.00000  Uiso   1.00
N325   N     0.70374   0.41554   0.14525   0.00000  Uiso   1.00
N326   N     0.96293   0.58446   0.18803   0.00000  Uiso   1.00
N327   N     0.95651   0.44534   0.09491   0.00000  Uiso   1.00
N328   N     0.71014   0.55462   0.23844   0.00000  Uiso   1.00
O329   O     0.77321   0.53958   0.16666   0.00000  Uiso   1.00
O330   O     0.89345   0.46042   0.16667   0.00000  Uiso   1.00
O331   O     0.89345   0.53958   0.16667   0.00000  Uiso   1.00
O332   O     0.77321   0.46042   0.16666   0.00000  Uiso   1.00
O333   O     0.83333   0.53959   0.09613   0.00000  Uiso   1.00
O334   O     0.83333   0.46041   0.23720   0.00000  Uiso   1.00
O335   O     0.83333   0.53959   0.23720   0.00000  Uiso   1.00
O336   O     0.83333   0.46041   0.09613   0.00000  Uiso   1.00
Br337  Br    0.11084   0.71894   0.08057   0.00000  Uiso   1.00
Br338  Br    0.22250   0.94772   0.25276   0.00000  Uiso   1.00
Br339  Br    0.22872   0.72614   0.24672   0.00000  Uiso   1.00
Br340  Br    0.10461   0.94053   0.08661   0.00000  Uiso   1.00
C341   C     0.08748   0.83243   0.16939   0.00000  Uiso   1.00
C342   C     0.02379   0.86816   0.19413   0.00000  Uiso   1.00
C343   C     0.29084   0.83607   0.16142   0.00000  Uiso   1.00
C344   C     0.04249   0.83059   0.17191   0.00000  Uiso   1.00
C345   C     0.14280   0.68988   0.13245   0.00000  Uiso   1.00
C346   C     0.19053   0.97679   0.20088   0.00000  Uiso   1.00
C347   C     0.19114   0.69277   0.20031   0.00000  Uiso   1.00
C348   C     0.14219   0.97389   0.13302   0.00000  Uiso   1.00
C349   C     0.01661   0.70897   0.12084   0.00000  Uiso   1.00
C350   C     0.31673   0.95769   0.21245   0.00000  Uiso   1.00
C351   C     0.26104   0.73928   0.09658   0.00000  Uiso   1.00
C352   C     0.24585   0.83424   0.16394   0.00000  Uiso   1.00
C353   C     0.07229   0.92734   0.23682   0.00000  Uiso   1.00
C354   C     0.16660   0.83317   0.07364   0.00000  Uiso   1.00
C355   C     0.16673   0.83350   0.25970   0.00000  Uiso   1.00
C356   C     0.16665   0.83310   0.02188   0.00000  Uiso   1.00
C357   C     0.16668   0.83356   0.31146   0.00000  Uiso   1.00
C358   C     0.01857   0.79307   0.14941   0.00000  Uiso   1.00
C359   C     0.31476   0.87358   0.18392   0.00000  Uiso   1.00
C360   C     0.30954   0.79849   0.13920   0.00000  Uiso   1.00
Cu361  Cu    0.16667   0.88022   0.16667   0.00000  Uiso   1.00
Cu362  Cu    0.16667   0.78645   0.16667   0.00000  Uiso   1.00
H363   H     0.05211   0.73944   0.17785   0.00000  Uiso   1.00
H364   H     0.27064   0.71049   0.07291   0.00000  Uiso   1.00
H365   H     0.23056   0.74934   0.08140   0.00000  Uiso   1.00
H366   H     0.25862   0.72619   0.13459   0.00000  Uiso   1.00
H367   H     0.02664   0.88639   0.26937   0.00000  Uiso   1.00
H368   H     0.06270   0.95611   0.26052   0.00000  Uiso   1.00
H369   H     0.07471   0.94046   0.19882   0.00000  Uiso   1.00
H370   H     0.10276   0.91725   0.25199   0.00000  Uiso   1.00
H371   H     0.32254   0.69819   0.14031   0.00000  Uiso   1.00
H372   H     0.03723   0.67928   0.12265   0.00000  Uiso   1.00
H373   H     0.00990   0.71579   0.08121   0.00000  Uiso   1.00
H374   H     0.28127   0.92722   0.15539   0.00000  Uiso   1.00
H375   H     0.01082   0.96845   0.19301   0.00000  Uiso   1.00
H376   H     0.32342   0.95088   0.25209   0.00000  Uiso   1.00
H377   H     0.29612   0.98739   0.21060   0.00000  Uiso   1.00
H378   H     0.30664   0.78024   0.06397   0.00000  Uiso   1.00
N379   N     0.16667   0.95069   0.16667   0.00000  Uiso   1.00
N380   N     0.16667   0.71598   0.16667   0.00000  Uiso   1.00
N381   N     0.03708   0.74888   0.14525   0.00000  Uiso   1.00
N382   N     0.29626   0.91779   0.18803   0.00000  Uiso   1.00
N383   N     0.28984   0.77867   0.09491   0.00000  Uiso   1.00
N384   N     0.04347   0.88796   0.23844   0.00000  Uiso   1.00
O385   O     0.10655   0.87291   0.16666   0.00000  Uiso   1.00
O386   O     0.22679   0.79375   0.16667   0.00000  Uiso   1.00
O387   O     0.22679   0.87291   0.16667   0.00000  Uiso   1.00
O388   O     0.10655   0.79375   0.16666   0.00000  Uiso   1.00
O389   O     0.16667   0.87292   0.09613   0.00000  Uiso   1.00
O390   O     0.16667   0.79375   0.23720   0.00000  Uiso   1.00
O391   O     0.16667   0.87292   0.23720   0.00000  Uiso   1.00
O392   O     0.16667   0.79375   0.09613   0.00000  Uiso   1.00
Br393  Br    0.44417   0.71894   0.08057   0.00000  Uiso   1.00
Br394  Br    0.55584   0.94772   0.25276   0.00000  Uiso   1.00
Br395  Br    0.56205   0.72614   0.24672   0.00000  Uiso   1.00
Br396  Br    0.43794   0.94053   0.08661   0.00000  Uiso   1.00
C397   C     0.42081   0.83243   0.16939   0.00000  Uiso   1.00
C398   C     0.35712   0.86816   0.19413   0.00000  Uiso   1.00
C399   C     0.62417   0.83607   0.16142   0.00000  Uiso   1.00
C400   C     0.37582   0.83059   0.17191   0.00000  Uiso   1.00
C401   C     0.47613   0.68988   0.13245   0.00000  Uiso   1.00
C402   C     0.52387   0.97679   0.20088   0.00000  Uiso   1.00
C403   C     0.52447   0.69277   0.20031   0.00000  Uiso   1.00
C404   C     0.47553   0.97389   0.13302   0.00000  Uiso   1.00
C405   C     0.34994   0.70897   0.12084   0.00000  Uiso   1.00
C406   C     0.65007   0.95769   0.21245   0.00000  Uiso   1.00
C407   C     0.59437   0.73928   0.09658   0.00000  Uiso   1.00
C408   C     0.57919   0.83424   0.16394   0.00000  Uiso   1.00
C409   C     0.40562   0.92734   0.23682   0.00000  Uiso   1.00
C410   C     0.49994   0.83317   0.07364   0.00000  Uiso   1.00
C411   C     0.50006   0.83350   0.25970   0.00000  Uiso   1.00
C412   C     0.49998   0.83310   0.02188   0.00000  Uiso   1.00
C413   C     0.50002   0.83356   0.31146   0.00000  Uiso   1.00
C414   C     0.35190   0.79307   0.14941   0.00000  Uiso   1.00
C415   C     0.64810   0.87358   0.18392   0.00000  Uiso   1.00
C416   C     0.64287   0.79849   0.13920   0.00000  Uiso   1.00
Cu417  Cu    0.50000   0.88022   0.16667   0.00000  Uiso   1.00
Cu418  Cu    0.50000   0.78645   0.16667   0.00000  Uiso   1.00
H419   H     0.38545   0.73944   0.17785   0.00000  Uiso   1.00
H420   H     0.60397   0.71049   0.07291   0.00000  Uiso   1.00
H421   H     0.56389   0.74934   0.08140   0.00000  Uiso   1.00
H422   H     0.59196   0.72619   0.13459   0.00000  Uiso   1.00
H423   H     0.35998   0.88639   0.26937   0.00000  Uiso   1.00
H424   H     0.39603   0.95611   0.26052   0.00000  Uiso   1.00
H425   H     0.40805   0.94046   0.19882   0.00000  Uiso   1.00
H426   H     0.43609   0.91725   0.25199   0.00000  Uiso   1.00
H427   H     0.65587   0.69819   0.14031   0.00000  Uiso   1.00
H428   H     0.37057   0.67928   0.12265   0.00000  Uiso   1.00
H429   H     0.34323   0.71579   0.08121   0.00000  Uiso   1.00
H430   H     0.61460   0.92722   0.15539   0.00000  Uiso   1.00
H431   H     0.34415   0.96845   0.19301   0.00000  Uiso   1.00
H432   H     0.65675   0.95088   0.25209   0.00000  Uiso   1.00
H433   H     0.62946   0.98739   0.21060   0.00000  Uiso   1.00
H434   H     0.63997   0.78024   0.06397   0.00000  Uiso   1.00
N435   N     0.50000   0.95069   0.16667   0.00000  Uiso   1.00
N436   N     0.50000   0.71598   0.16667   0.00000  Uiso   1.00
N437   N     0.37041   0.74888   0.14525   0.00000  Uiso   1.00
N438   N     0.62960   0.91779   0.18803   0.00000  Uiso   1.00
N439   N     0.62317   0.77867   0.09491   0.00000  Uiso   1.00
N440   N     0.37680   0.88796   0.23844   0.00000  Uiso   1.00
O441   O     0.43988   0.87291   0.16666   0.00000  Uiso   1.00
O442   O     0.56012   0.79375   0.16667   0.00000  Uiso   1.00
O443   O     0.56012   0.87291   0.16667   0.00000  Uiso   1.00
O444   O     0.43988   0.79375   0.16666   0.00000  Uiso   1.00
O445   O     0.50000   0.87292   0.09613   0.00000  Uiso   1.00
O446   O     0.50000   0.79375   0.23720   0.00000  Uiso   1.00
O447   O     0.50000   0.87292   0.23720   0.00000  Uiso   1.00
O448   O     0.50000   0.79375   0.09613   0.00000  Uiso   1.00
Br449  Br    0.77751   0.71894   0.08057   0.00000  Uiso   1.00
Br450  Br    0.88917   0.94772   0.25276   0.00000  Uiso   1.00
Br451  Br    0.89538   0.72614   0.24672   0.00000  Uiso   1.00
Br452  Br    0.77128   0.94053   0.08661   0.00000  Uiso   1.00
C453   C     0.75414   0.83243   0.16939   0.00000  Uiso   1.00
C454   C     0.69045   0.86816   0.19413   0.00000  Uiso   1.00
C455   C     0.95751   0.83607   0.16142   0.00000  Uiso   1.00
C456   C     0.70916   0.83059   0.17191   0.00000  Uiso   1.00
C457   C     0.80947   0.68988   0.13245   0.00000  Uiso   1.00
C458   C     0.85720   0.97679   0.20088   0.00000  Uiso   1.00
C459   C     0.85781   0.69277   0.20031   0.00000  Uiso   1.00
C460   C     0.80886   0.97389   0.13302   0.00000  Uiso   1.00
C461   C     0.68327   0.70897   0.12084   0.00000  Uiso   1.00
C462   C     0.98340   0.95769   0.21245   0.00000  Uiso   1.00
C463   C     0.92770   0.73928   0.09658   0.00000  Uiso   1.00
C464   C     0.91252   0.83424   0.16394   0.00000  Uiso   1.00
C465   C     0.73896   0.92734   0.23682   0.00000  Uiso   1.00
C466   C     0.83327   0.83317   0.07364   0.00000  Uiso   1.00
C467   C     0.83340   0.83350   0.25970   0.00000  Uiso   1.00
C468   C     0.83331   0.83310   0.02188   0.00000  Uiso   1.00
C469   C     0.83335   0.83356   0.31146   0.00000  Uiso   1.00
C470   C     0.68523   0.79307   0.14941   0.00000  Uiso   1.00
C471   C     0.98143   0.87358   0.18392   0.00000  Uiso   1.00
C472   C     0.97621   0.79849   0.13920   0.00000  Uiso   1.00
Cu473  Cu    0.83333   0.88022   0.16667   0.00000  Uiso   1.00
Cu474  Cu    0.83333   0.78645   0.16667   0.00000  Uiso   1.00
H475   H     0.71878   0.73944   0.17785   0.00000  Uiso   1.00
H476   H     0.93730   0.71049   0.07291   0.00000  Uiso   1.00
H477   H     0.89723   0.74934   0.08140   0.00000  Uiso   1.00
H478   H     0.92529   0.72619   0.13459   0.00000  Uiso   1.00
H479   H     0.69331   0.88639   0.26937   0.00000  Uiso   1.00
H480   H     0.72936   0.95611   0.26052   0.00000  Uiso   1.00
H481   H     0.74138   0.94046   0.19882   0.00000  Uiso   1.00
H482   H     0.76942   0.91725   0.25199   0.00000  Uiso   1.00
H483   H     0.98920   0.69819   0.14031   0.00000  Uiso   1.00
H484   H     0.70390   0.67928   0.12265   0.00000  Uiso   1.00
H485   H     0.67657   0.71579   0.08121   0.00000  Uiso   1.00
H486   H     0.94793   0.92722   0.15539   0.00000  Uiso   1.00
H487   H     0.67749   0.96845   0.19301   0.00000  Uiso   1.00
H488   H     0.99008   0.95088   0.25209   0.00000  Uiso   1.00
H489   H     0.96279   0.98739   0.21060   0.00000  Uiso   1.00
H490   H     0.97331   0.78024   0.06397   0.00000  Uiso   1.00
N491   N     0.83333   0.95069   0.16667   0.00000  Uiso   1.00
N492   N     0.83333   0.71598   0.16667   0.00000  Uiso   1.00
N493   N     0.70374   0.74888   0.14525   0.00000  Uiso   1.00
N494   N     0.96293   0.91779   0.18803   0.00000  Uiso   1.00
N495   N     0.95651   0.77867   0.09491   0.00000  Uiso   1.00
N496   N     0.71014   0.88796   0.23844   0.00000  Uiso   1.00
O497   O     0.77321   0.87291   0.16666   0.00000  Uiso   1.00
O498   O     0.89345   0.79375   0.16667   0.00000  Uiso   1.00
O499   O     0.89345   0.87291   0.16667   0.00000  Uiso   1.00
O500   O     0.77321   0.79375   0.16666   0.00000  Uiso   1.00
O501   O     0.83333   0.87292   0.09613   0.00000  Uiso   1.00
O502   O     0.83333   0.79375   0.23720   0.00000  Uiso   1.00
O503   O     0.83333   0.87292   0.23720   0.00000  Uiso   1.00
O504   O     0.83333   0.79375   0.09613   0.00000  Uiso   1.00
Br505  Br    0.11084   0.05228   0.41390   0.00000  Uiso   1.00
Br506  Br    0.22250   0.28105   0.58609   0.00000  Uiso   1.00
Br507  Br    0.22872   0.05947   0.58006   0.00000  Uiso   1.00
Br508  Br    0.10461   0.27386   0.41995   0.00000  Uiso   1.00
C509   C     0.08748   0.16576   0.50272   0.00000  Uiso   1.00
C510   C     0.02379   0.20149   0.52746   0.00000  Uiso   1.00
C511   C     0.29084   0.16941   0.49475   0.00000  Uiso   1.00
C512   C     0.04249   0.16392   0.50524   0.00000  Uiso   1.00
C513   C     0.14280   0.02321   0.46578   0.00000  Uiso   1.00
C514   C     0.19053   0.31012   0.53422   0.00000  Uiso   1.00
C515   C     0.19114   0.02611   0.53365   0.00000  Uiso   1.00
C516   C     0.14219   0.30723   0.46636   0.00000  Uiso   1.00
C517   C     0.01661   0.04230   0.45417   0.00000  Uiso   1.00
C518   C     0.31673   0.29103   0.54579   0.00000  Uiso   1.00
C519   C     0.26104   0.07261   0.42991   0.00000  Uiso   1.00
C520   C     0.24585   0.16757   0.49727   0.00000  Uiso   1.00
C521   C     0.07229   0.26067   0.57015   0.00000  Uiso   1.00
C522   C     0.16660   0.16650   0.40697   0.00000  Uiso   1.00
C523   C     0.16673   0.16683   0.59303   0.00000  Uiso   1.00
C524   C     0.16665   0.16644   0.35521   0.00000  Uiso   1.00
C525   C     0.16668   0.16690   0.64479   0.00000  Uiso   1.00
C526   C     0.01857   0.12641   0.48274   0.00000  Uiso   1.00
C527   C     0.31476   0.20692   0.51725   0.00000  Uiso   1.00
C528   C     0.30954   0.13183   0.47254   0.00000  Uiso   1.00
Cu529  Cu    0.16667   0.21355   0.50000   0.00000  Uiso   1.00
Cu530  Cu    0.16667   0.11978   0.50000   0.00000  Uiso   1.00
H531   H     0.05211   0.07277   0.51118   0.00000  Uiso   1.00
H532   H     0.27064   0.04383   0.40624   0.00000  Uiso   1.00
H533   H     0.23056   0.08268   0.41474   0.00000  Uiso   1.00
H534   H     0.25862   0.05952   0.46793   0.00000  Uiso   1.00
H535   H     0.02664   0.21973   0.60270   0.00000  Uiso   1.00
H536   H     0.06270   0.28944   0.59385   0.00000  Uiso   1.00
H537   H     0.07471   0.27379   0.53215   0.00000  Uiso   1.00
H538   H     0.10276   0.25058   0.58532   0.00000  Uiso   1.00
H539   H     0.32254   0.03153   0.47365   0.00000  Uiso   1.00
H540   H     0.03723   0.01262   0.45599   0.00000  Uiso   1.00
H541   H     0.00990   0.04913   0.41454   0.00000  Uiso   1.00
H542   H     0.28127   0.26056   0.48872   0.00000  Uiso   1.00
H543   H     0.01082   0.30179   0.52634   0.00000  Uiso   1.00
H544   H     0.32342   0.28421   0.58542   0.00000  Uiso   1.00
H545   H     0.29612   0.32072   0.54394   0.00000  Uiso   1.00
H546   H     0.30664   0.11357   0.39730   0.00000  Uiso   1.00
N547   N     0.16667   0.28402   0.50000   0.00000  Uiso   1.00
N548   N     0.16667   0.04931   0.50000   0.00000  Uiso   1.00
N549   N     0.03708   0.08221   0.47859   0.00000  Uiso   1.00
N550   N     0.29626   0.25113   0.52136   0.00000  Uiso   1.00
N551   N     0.28984   0.11200   0.42824   0.00000  Uiso   1.00
N552   N     0.04347   0.22129   0.57178   0.00000  Uiso   1.00
O553   O     0.10655   0.20625   0.50000   0.00000  Uiso   1.00
O554   O     0.22679   0.12709   0.50000   0.00000  Uiso   1.00
O555   O     0.22679   0.20625   0.50000   0.00000  Uiso   1.00
O556   O     0.10655   0.12709   0.50000   0.00000  Uiso   1.00
O557   O     0.16667   0.20625   0.42946   0.00000  Uiso   1.00
O558   O     0.16667   0.12708   0.57054   0.00000  Uiso   1.00
O559   O     0.16667   0.20625   0.57054   0.00000  Uiso   1.00
O560   O     0.16667   0.12708   0.42946   0.00000  Uiso   1.00
Br561  Br    0.44417   0.05228   0.41390   0.00000  Uiso   1.00
Br562  Br    0.55584   0.28105   0.58609   0.00000  Uiso   1.00
Br563  Br    0.56205   0.05947   0.58006   0.00000  Uiso   1.00
Br564  Br    0.43794   0.27386   0.41995   0.00000  Uiso   1.00
C565   C     0.42081   0.16576   0.50272   0.00000  Uiso   1.00
C566   C     0.35712   0.20149   0.52746   0.00000  Uiso   1.00
C567   C     0.62417   0.16941   0.49475   0.00000  Uiso   1.00
C568   C     0.37582   0.16392   0.50524   0.00000  Uiso   1.00
C569   C     0.47613   0.02321   0.46578   0.00000  Uiso   1.00
C570   C     0.52387   0.31012   0.53422   0.00000  Uiso   1.00
C571   C     0.52447   0.02611   0.53365   0.00000  Uiso   1.00
C572   C     0.47553   0.30723   0.46636   0.00000  Uiso   1.00
C573   C     0.34994   0.04230   0.45417   0.00000  Uiso   1.00
C574   C     0.65007   0.29103   0.54579   0.00000  Uiso   1.00
C575   C     0.59437   0.07261   0.42991   0.00000  Uiso   1.00
C576   C     0.57919   0.16757   0.49727   0.00000  Uiso   1.00
C577   C     0.40562   0.26067   0.57015   0.00000  Uiso   1.00
C578   C     0.49994   0.16650   0.40697   0.00000  Uiso   1.00
C579   C     0.50006   0.16683   0.59303   0.00000  Uiso   1.00
C580   C     0.49998   0.16644   0.35521   0.00000  Uiso   1.00
C581   C     0.50002   0.16690   0.64479   0.00000  Uiso   1.00
C582   C     0.35190   0.12641   0.48274   0.00000  Uiso   1.00
C583   C     0.64810   0.20692   0.51725   0.00000  Uiso   1.00
C584   C     0.64287   0.13183   0.47254   0.00000  Uiso   1.00
Cu585  Cu    0.50000   0.21355   0.50000   0.00000  Uiso   1.00
Cu586  Cu    0.50000   0.11978   0.50000   0.00000  Uiso   1.00
H587   H     0.38545   0.07277   0.51118   0.00000  Uiso   1.00
H588   H     0.60397   0.04383   0.40624   0.00000  Uiso   1.00
H589   H     0.56389   0.08268   0.41474   0.00000  Uiso   1.00
H590   H     0.59196   0.05952   0.46793   0.00000  Uiso   1.00
H591   H     0.35998   0.21973   0.60270   0.00000  Uiso   1.00
H592   H     0.39603   0.28944   0.59385   0.00000  Uiso   1.00
H593   H     0.40805   0.27379   0.53215   0.00000  Uiso   1.00
H594   H     0.43609   0.25058   0.58532   0.00000  Uiso   1.00
H595   H     0.65587   0.03153   0.47365   0.00000  Uiso   1.00
H596   H     0.37057   0.01262   0.45599   0.00000  Uiso   1.00
H597   H     0.34323   0.04913   0.41454   0.00000  Uiso   1.00
H598   H     0.61460   0.26056   0.48872   0.00000  Uiso   1.00
H599   H     0.34415   0.30179   0.52634   0.00000  Uiso   1.00
H600   H     0.65675   0.28421   0.58542   0.00000  Uiso   1.00
H601   H     0.62946   0.32072   0.54394   0.00000  Uiso   1.00
H602   H     0.63997   0.11357   0.39730   0.00000  Uiso   1.00
N603   N     0.50000   0.28402   0.50000   0.00000  Uiso   1.00
N604   N     0.50000   0.04931   0.50000   0.00000  Uiso   1.00
N605   N     0.37041   0.08221   0.47859   0.00000  Uiso   1.00
N606   N     0.62960   0.25113   0.52136   0.00000  Uiso   1.00
N607   N     0.62317   0.11200   0.42824   0.00000  Uiso   1.00
N608   N     0.37680   0.22129   0.57178   0.00000  Uiso   1.00
O609   O     0.43988   0.20625   0.50000   0.00000  Uiso   1.00
O610   O     0.56012   0.12709   0.50000   0.00000  Uiso   1.00
O611   O     0.56012   0.20625   0.50000   0.00000  Uiso   1.00
O612   O     0.43988   0.12709   0.50000   0.00000  Uiso   1.00
O613   O     0.50000   0.20625   0.42946   0.00000  Uiso   1.00
O614   O     0.50000   0.12708   0.57054   0.00000  Uiso   1.00
O615   O     0.50000   0.20625   0.57054   0.00000  Uiso   1.00
O616   O     0.50000   0.12708   0.42946   0.00000  Uiso   1.00
Br617  Br    0.77751   0.05228   0.41390   0.00000  Uiso   1.00
Br618  Br    0.88917   0.28105   0.58609   0.00000  Uiso   1.00
Br619  Br    0.89538   0.05947   0.58006   0.00000  Uiso   1.00
Br620  Br    0.77128   0.27386   0.41995   0.00000  Uiso   1.00
C621   C     0.75414   0.16576   0.50272   0.00000  Uiso   1.00
C622   C     0.69045   0.20149   0.52746   0.00000  Uiso   1.00
C623   C     0.95751   0.16941   0.49475   0.00000  Uiso   1.00
C624   C     0.70916   0.16392   0.50524   0.00000  Uiso   1.00
C625   C     0.80947   0.02321   0.46578   0.00000  Uiso   1.00
C626   C     0.85720   0.31012   0.53422   0.00000  Uiso   1.00
C627   C     0.85781   0.02611   0.53365   0.00000  Uiso   1.00
C628   C     0.80886   0.30723   0.46636   0.00000  Uiso   1.00
C629   C     0.68327   0.04230   0.45417   0.00000  Uiso   1.00
C630   C     0.98340   0.29103   0.54579   0.00000  Uiso   1.00
C631   C     0.92770   0.07261   0.42991   0.00000  Uiso   1.00
C632   C     0.91252   0.16757   0.49727   0.00000  Uiso   1.00
C633   C     0.73896   0.26067   0.57015   0.00000  Uiso   1.00
C634   C     0.83327   0.16650   0.40697   0.00000  Uiso   1.00
C635   C     0.83340   0.16683   0.59303   0.00000  Uiso   1.00
C636   C     0.83331   0.16644   0.35521   0.00000  Uiso   1.00
C637   C     0.83335   0.16690   0.64479   0.00000  Uiso   1.00
C638   C     0.68523   0.12641   0.48274   0.00000  Uiso   1.00
C639   C     0.98143   0.20692   0.51725   0.00000  Uiso   1.00
C640   C     0.97621   0.13183   0.47254   0.00000  Uiso   1.00
Cu641  Cu    0.83333   0.21355   0.50000   0.00000  Uiso   1.00
Cu642  Cu    0.83333   0.11978   0.50000   0.00000  Uiso   1.00
H643   H     0.71878   0.07277   0.51118   0.00000  Uiso   1.00
H644   H     0.93730   0.04383   0.40624   0.00000  Uiso   1.00
H645   H     0.89723   0.08268   0.41474   0.00000  Uiso   1.00
H646   H     0.92529   0.05952   0.46793   0.00000  Uiso   1.00
H647   H     0.69331   0.21973   0.60270   0.00000  Uiso   1.00
H648   H     0.72936   0.28944   0.59385   0.00000  Uiso   1.00
H649   H     0.74138   0.27379   0.53215   0.00000  Uiso   1.00
H650   H     0.76942   0.25058   0.58532   0.00000  Uiso   1.00
H651   H     0.98920   0.03153   0.47365   0.00000  Uiso   1.00
H652   H     0.70390   0.01262   0.45599   0.00000  Uiso   1.00
H653   H     0.67657   0.04913   0.41454   0.00000  Uiso   1.00
H654   H     0.94793   0.26056   0.48872   0.00000  Uiso   1.00
H655   H     0.67749   0.30179   0.52634   0.00000  Uiso   1.00
H656   H     0.99008   0.28421   0.58542   0.00000  Uiso   1.00
H657   H     0.96279   0.32072   0.54394   0.00000  Uiso   1.00
H658   H     0.97331   0.11357   0.39730   0.00000  Uiso   1.00
N659   N     0.83333   0.28402   0.50000   0.00000  Uiso   1.00
N660   N     0.83333   0.04931   0.50000   0.00000  Uiso   1.00
N661   N     0.70374   0.08221   0.47859   0.00000  Uiso   1.00
N662   N     0.96293   0.25113   0.52136   0.00000  Uiso   1.00
N663   N     0.95651   0.11200   0.42824   0.00000  Uiso   1.00
N664   N     0.71014   0.22129   0.57178   0.00000  Uiso   1.00
O665   O     0.77321   0.20625   0.50000   0.00000  Uiso   1.00
O666   O     0.89345   0.12709   0.50000   0.00000  Uiso   1.00
O667   O     0.89345   0.20625   0.50000   0.00000  Uiso   1.00
O668   O     0.77321   0.12709   0.50000   0.00000  Uiso   1.00
O669   O     0.83333   0.20625   0.42946   0.00000  Uiso   1.00
O670   O     0.83333   0.12708   0.57054   0.00000  Uiso   1.00
O671   O     0.83333   0.20625   0.57054   0.00000  Uiso   1.00
O672   O     0.83333   0.12708   0.42946   0.00000  Uiso   1.00
Br673  Br    0.11084   0.38561   0.41390   0.00000  Uiso   1.00
Br674  Br    0.22250   0.61439   0.58609   0.00000  Uiso   1.00
Br675  Br    0.22872   0.39280   0.58006   0.00000  Uiso   1.00
Br676  Br    0.10461   0.60720   0.41995   0.00000  Uiso   1.00
C677   C     0.08748   0.49909   0.50272   0.00000  Uiso   1.00
C678   C     0.02379   0.53483   0.52746   0.00000  Uiso   1.00
C679   C     0.29084   0.50274   0.49475   0.00000  Uiso   1.00
C680   C     0.04249   0.49725   0.50524   0.00000  Uiso   1.00
C681   C     0.14280   0.35655   0.46578   0.00000  Uiso   1.00
C682   C     0.19053   0.64345   0.53422   0.00000  Uiso   1.00
C683   C     0.19114   0.35944   0.53365   0.00000  Uiso   1.00
C684   C     0.14219   0.64056   0.46636   0.00000  Uiso   1.00
C685   C     0.01661   0.37563   0.45417   0.00000  Uiso   1.00
C686   C     0.31673   0.62436   0.54579   0.00000  Uiso   1.00
C687   C     0.26104   0.40594   0.42991   0.00000  Uiso   1.00
C688   C     0.24585   0.50090   0.49727   0.00000  Uiso   1.00
C689   C     0.07229   0.59401   0.57015   0.00000  Uiso   1.00
C690   C     0.16660   0.49983   0.40697   0.00000  Uiso   1.00
C691   C     0.16673   0.50017   0.59303   0.00000  Uiso   1.00
C692   C     0.16665   0.49977   0.35521   0.00000  Uiso   1.00
C693   C     0.16668   0.50023   0.64479   0.00000  Uiso   1.00
C694   C     0.01857   0.45974   0.48274   0.00000  Uiso   1.00
C695   C     0.31476   0.54025   0.51725   0.00000  Uiso   1.00
C696   C     0.30954   0.46516   0.47254   0.00000  Uiso   1.00
Cu697  Cu    0.16667   0.54689   0.50000   0.00000  Uiso   1.00
Cu698  Cu    0.16667   0.45311   0.50000   0.00000  Uiso   1.00
H699   H     0.05211   0.40610   0.51118   0.00000  Uiso   1.00
H700   H     0.27064   0.37716   0.40624   0.00000  Uiso   1.00
H701   H     0.23056   0.41601   0.41474   0.00000  Uiso   1.00
H702   H     0.25862   0.39285   0.46793   0.00000  Uiso   1.00
H703   H     0.02664   0.55306   0.60270   0.00000  Uiso   1.00
H704   H     0.06270   0.62277   0.59385   0.00000  Uiso   1.00
H705   H     0.07471   0.60713   0.53215   0.00000  Uiso   1.00
H706   H     0.10276   0.58391   0.58532   0.00000  Uiso   1.00
H707   H     0.32254   0.36486   0.47365   0.00000  Uiso   1.00
H708   H     0.03723   0.34595   0.45599   0.00000  Uiso   1.00
H709   H     0.00990   0.38246   0.41454   0.00000  Uiso   1.00
H710   H     0.28127   0.59389   0.48872   0.00000  Uiso   1.00
H711   H     0.01082   0.63512   0.52634   0.00000  Uiso   1.00
H712   H     0.32342   0.61754   0.58542   0.00000  Uiso   1.00
H713   H     0.29612   0.65405   0.54394   0.00000  Uiso   1.00
H714   H     0.30664   0.44690   0.39730   0.00000  Uiso   1.00
N715   N     0.16667   0.61736   0.50000   0.00000  Uiso   1.00
N716   N     0.16667   0.38264   0.50000   0.00000  Uiso   1.00
N717   N     0.03708   0.41554   0.47859   0.00000  Uiso   1.00
N718   N     0.29626   0.58446   0.52136   0.00000  Uiso   1.00
N719   N     0.28984   0.44534   0.42824   0.00000  Uiso   1.00
N720   N     0.04347   0.55462   0.57178   0.00000  Uiso   1.00
O721   O     0.10655   0.53958   0.50000   0.00000  Uiso   1.00
O722   O     0.22679   0.46042   0.50000   0.00000  Uiso   1.00
O723   O     0.22679   0.53958   0.50000   0.00000  Uiso   1.00
O724   O     0.10655   0.46042   0.50000   0.00000  Uiso   1.00
O725   O     0.16667   0.53959   0.42946   0.00000  Uiso   1.00
O726   O     0.16667   0.46041   0.57054   0.00000  Uiso   1.00
O727   O     0.16667   0.53959   0.57054   0.00000  Uiso   1.00
O728   O     0.16667   0.46041   0.42946   0.00000  Uiso   1.00
Br729  Br    0.44417   0.38561   0.41390   0.00000  Uiso   1.00
Br730  Br    0.55584   0.61439   0.58609   0.00000  Uiso   1.00
Br731  Br    0.56205   0.39280   0.58006   0.00000  Uiso   1.00
Br732  Br    0.43794   0.60720   0.41995   0.00000  Uiso   1.00
C733   C     0.42081   0.49909   0.50272   0.00000  Uiso   1.00
C734   C     0.35712   0.53483   0.52746   0.00000  Uiso   1.00
C735   C     0.62417   0.50274   0.49475   0.00000  Uiso   1.00
C736   C     0.37582   0.49725   0.50524   0.00000  Uiso   1.00
C737   C     0.47613   0.35655   0.46578   0.00000  Uiso   1.00
C738   C     0.52387   0.64345   0.53422   0.00000  Uiso   1.00
C739   C     0.52447   0.35944   0.53365   0.00000  Uiso   1.00
C740   C     0.47553   0.64056   0.46636   0.00000  Uiso   1.00
C741   C     0.34994   0.37563   0.45417   0.00000  Uiso   1.00
C742   C     0.65007   0.62436   0.54579   0.00000  Uiso   1.00
C743   C     0.59437   0.40594   0.42991   0.00000  Uiso   1.00
C744   C     0.57919   0.50090   0.49727   0.00000  Uiso   1.00
C745   C     0.40562   0.59401   0.57015   0.00000  Uiso   1.00
C746   C     0.49994   0.49983   0.40697   0.00000  Uiso   1.00
C747   C     0.50006   0.50017   0.59303   0.00000  Uiso   1.00
C748   C     0.49998   0.49977   0.35521   0.00000  Uiso   1.00
C749   C     0.50002   0.50023   0.64479   0.00000  Uiso   1.00
C750   C     0.35190   0.45974   0.48274   0.00000  Uiso   1.00
C751   C     0.64810   0.54025   0.51725   0.00000  Uiso   1.00
C752   C     0.64287   0.46516   0.47254   0.00000  Uiso   1.00
Cu753  Cu    0.50000   0.54689   0.50000   0.00000  Uiso   1.00
Cu754  Cu    0.50000   0.45311   0.50000   0.00000  Uiso   1.00
H755   H     0.38545   0.40610   0.51118   0.00000  Uiso   1.00
H756   H     0.60397   0.37716   0.40624   0.00000  Uiso   1.00
H757   H     0.56389   0.41601   0.41474   0.00000  Uiso   1.00
H758   H     0.59196   0.39285   0.46793   0.00000  Uiso   1.00
H759   H     0.35998   0.55306   0.60270   0.00000  Uiso   1.00
H760   H     0.39603   0.62277   0.59385   0.00000  Uiso   1.00
H761   H     0.40805   0.60713   0.53215   0.00000  Uiso   1.00
H762   H     0.43609   0.58391   0.58532   0.00000  Uiso   1.00
H763   H     0.65587   0.36486   0.47365   0.00000  Uiso   1.00
H764   H     0.37057   0.34595   0.45599   0.00000  Uiso   1.00
H765   H     0.34323   0.38246   0.41454   0.00000  Uiso   1.00
H766   H     0.61460   0.59389   0.48872   0.00000  Uiso   1.00
H767   H     0.34415   0.63512   0.52634   0.00000  Uiso   1.00
H768   H     0.65675   0.61754   0.58542   0.00000  Uiso   1.00
H769   H     0.62946   0.65405   0.54394   0.00000  Uiso   1.00
H770   H     0.63997   0.44690   0.39730   0.00000  Uiso   1.00
N771   N     0.50000   0.61736   0.50000   0.00000  Uiso   1.00
N772   N     0.50000   0.38264   0.50000   0.00000  Uiso   1.00
N773   N     0.37041   0.41554   0.47859   0.00000  Uiso   1.00
N774   N     0.62960   0.58446   0.52136   0.00000  Uiso   1.00
N775   N     0.62317   0.44534   0.42824   0.00000  Uiso   1.00
N776   N     0.37680   0.55462   0.57178   0.00000  Uiso   1.00
O777   O     0.43988   0.53958   0.50000   0.00000  Uiso   1.00
O778   O     0.56012   0.46042   0.50000   0.00000  Uiso   1.00
O779   O     0.56012   0.53958   0.50000   0.00000  Uiso   1.00
O780   O     0.43988   0.46042   0.50000   0.00000  Uiso   1.00
O781   O     0.50000   0.53959   0.42946   0.00000  Uiso   1.00
O782   O     0.50000   0.46041   0.57054   0.00000  Uiso   1.00
O783   O     0.50000   0.53959   0.57054   0.00000  Uiso   1.00
O784   O     0.50000   0.46041   0.42946   0.00000  Uiso   1.00
Br785  Br    0.77751   0.38561   0.41390   0.00000  Uiso   1.00
Br786  Br    0.88917   0.61439   0.58609   0.00000  Uiso   1.00
Br787  Br    0.89538   0.39280   0.58006   0.00000  Uiso   1.00
Br788  Br    0.77128   0.60720   0.41995   0.00000  Uiso   1.00
C789   C     0.75414   0.49909   0.50272   0.00000  Uiso   1.00
C790   C     0.69045   0.53483   0.52746   0.00000  Uiso   1.00
C791   C     0.95751   0.50274   0.49475   0.00000  Uiso   1.00
C792   C     0.70916   0.49725   0.50524   0.00000  Uiso   1.00
C793   C     0.80947   0.35655   0.46578   0.00000  Uiso   1.00
C794   C     0.85720   0.64345   0.53422   0.00000  Uiso   1.00
C795   C     0.85781   0.35944   0.53365   0.00000  Uiso   1.00
C796   C     0.80886   0.64056   0.46636   0.00000  Uiso   1.00
C797   C     0.68327   0.37563   0.45417   0.00000  Uiso   1.00
C798   C     0.98340   0.62436   0.54579   0.00000  Uiso   1.00
C799   C     0.92770   0.40594   0.42991   0.00000  Uiso   1.00
C800   C     0.91252   0.50090   0.49727   0.00000  Uiso   1.00
C801   C     0.73896   0.59401   0.57015   0.00000  Uiso   1.00
C802   C     0.83327   0.49983   0.40697   0.00000  Uiso   1.00
C803   C     0.83340   0.50017   0.59303   0.00000  Uiso   1.00
C804   C     0.83331   0.49977   0.35521   0.00000  Uiso   1.00
C805   C     0.83335   0.50023   0.64479   0.00000  Uiso   1.00
C806   C     0.68523   0.45974   0.48274   0.00000  Uiso   1.00
C807   C     0.98143   0.54025   0.51725   0.00000  Uiso   1.00
C808   C     0.97621   0.46516   0.47254   0.00000  Uiso   1.00
Cu809  Cu    0.83333   0.54689   0.50000   0.00000  Uiso   1.00
Cu810  Cu    0.83333   0.45311   0.50000   0.00000  Uiso   1.00
H811   H     0.71878   0.40610   0.51118   0.00000  Uiso   1.00
H812   H     0.93730   0.37716   0.40624   0.00000  Uiso   1.00
H813   H     0.89723   0.41601   0.41474   0.00000  Uiso   1.00
H814   H     0.92529   0.39285   0.46793   0.00000  Uiso   1.00
H815   H     0.69331   0.55306   0.60270   0.00000  Uiso   1.00
H816   H     0.72936   0.62277   0.59385   0.00000  Uiso   1.00
H817   H     0.74138   0.60713   0.53215   0.00000  Uiso   1.00
H818   H     0.76942   0.58391   0.58532   0.00000  Uiso   1.00
H819   H     0.98920   0.36486   0.47365   0.00000  Uiso   1.00
H820   H     0.70390   0.34595   0.45599   0.00000  Uiso   1.00
H821   H     0.67657   0.38246   0.41454   0.00000  Uiso   1.00
H822   H     0.94793   0.59389   0.48872   0.00000  Uiso   1.00
H823   H     0.67749   0.63512   0.52634   0.00000  Uiso   1.00
H824   H     0.99008   0.61754   0.58542   0.00000  Uiso   1.00
H825   H     0.96279   0.65405   0.54394   0.00000  Uiso   1.00
H826   H     0.97331   0.44690   0.39730   0.00000  Uiso   1.00
N827   N     0.83333   0.61736   0.50000   0.00000  Uiso   1.00
N828   N     0.83333   0.38264   0.50000   0.00000  Uiso   1.00
N829   N     0.70374   0.41554   0.47859   0.00000  Uiso   1.00
N830   N     0.96293   0.58446   0.52136   0.00000  Uiso   1.00
N831   N     0.95651   0.44534   0.42824   0.00000  Uiso   1.00
N832   N     0.71014   0.55462   0.57178   0.00000  Uiso   1.00
O833   O     0.77321   0.53958   0.50000   0.00000  Uiso   1.00
O834   O     0.89345   0.46042   0.50000   0.00000  Uiso   1.00
O835   O     0.89345   0.53958   0.50000   0.00000  Uiso   1.00
O836   O     0.77321   0.46042   0.50000   0.00000  Uiso   1.00
O837   O     0.83333   0.53959   0.42946   0.00000  Uiso   1.00
O838   O     0.83333   0.46041   0.57054   0.00000  Uiso   1.00
O839   O     0.83333   0.53959   0.57054   0.00000  Uiso   1.00
O840   O     0.83333   0.46041   0.42946   0.00000  Uiso   1.00
Br841  Br    0.11084   0.71894   0.41390   0.00000  Uiso   1.00
Br842  Br    0.22250   0.94772   0.58609   0.00000  Uiso   1.00
Br843  Br    0.22872   0.72614   0.58006   0.00000  Uiso   1.00
Br844  Br    0.10461   0.94053   0.41995   0.00000  Uiso   1.00
C845   C     0.08748   0.83243   0.50272   0.00000  Uiso   1.00
C846   C     0.02379   0.86816   0.52746   0.00000  Uiso   1.00
C847   C     0.29084   0.83607   0.49475   0.00000  Uiso   1.00
C848   C     0.04249   0.83059   0.50524   0.00000  Uiso   1.00
C849   C     0.14280   0.68988   0.46578   0.00000  Uiso   1.00
C850   C     0.19053   0.97679   0.53422   0.00000  Uiso   1.00
C851   C     0.19114   0.69277   0.53365   0.00000  Uiso   1.00
C852   C     0.14219   0.97389   0.46636   0.00000  Uiso   1.00
C853   C     0.01661   0.70897   0.45417   0.00000  Uiso   1.00
C854   C     0.31673   0.95769   0.54579   0.00000  Uiso   1.00
C855   C     0.26104   0.73928   0.42991   0.00000  Uiso   1.00
C856   C     0.24585   0.83424   0.49727   0.00000  Uiso   1.00
C857   C     0.07229   0.92734   0.57015   0.00000  Uiso   1.00
C858   C     0.16660   0.83317   0.40697   0.00000  Uiso   1.00
C859   C     0.16673   0.83350   0.59303   0.00000  Uiso   1.00
C860   C     0.16665   0.83310   0.35521   0.00000  Uiso   1.00
C861   C     0.16668   0.83356   0.64479   0.00000  Uiso   1.00
C862   C     0.01857   0.79307   0.48274   0.00000  Uiso   1.00
C863   C     0.31476   0.87358   0.51725   0.00000  Uiso   1.00
C864   C     0.30954   0.79849   0.47254   0.00000  Uiso   1.00
Cu865  Cu    0.16667   0.88022   0.50000   0.00000  Uiso   1.00
Cu866  Cu    0.16667   0.78645   0.50000   0.00000  Uiso   1.00
H867   H     0.05211   0.73944   0.51118   0.00000  Uiso   1.00
H868   H     0.27064   0.71049   0.40624   0.00000  Uiso   1.00
H869   H     0.23056   0.74934   0.41474   0.00000  Uiso   1.00
H870   H     0.25862   0.72619   0.46793   0.00000  Uiso   1.00
H871   H     0.02664   0.88639   0.60270   0.00000  Uiso   1.00
H872   H     0.06270   0.95611   0.59385   0.00000  Uiso   1.00
H873   H     0.07471   0.94046   0.53215   0.00000  Uiso   1.00
H874   H     0.10276   0.91725   0.58532   0.00000  Uiso   1.00
H875   H     0.32254   0.69819   0.47365   0.00000  Uiso   1.00
H876   H     0.03723   0.67928   0.45599   0.00000  Uiso   1.00
H877   H     0.00990   0.71579   0.41454   0.00000  Uiso   1.00
H878   H     0.28127   0.92722   0.48872   0.00000  Uiso   1.00
H879   H     0.01082   0.96845   0.52634   0.00000  Uiso   1.00
H880   H     0.32342   0.95088   0.58542   0.00000  Uiso   1.00
H881   H     0.29612   0.98739   0.54394   0.00000  Uiso   1.00
H882   H     0.30664   0.78024   0.39730   0.00000  Uiso   1.00
N883   N     0.16667   0.95069   0.50000   0.00000  Uiso   1.00
N884   N     0.16667   0.71598   0.50000   0.00000  Uiso   1.00
N885   N     0.03708   0.74888   0.47859   0.00000  Uiso   1.00
N886   N     0.29626   0.91779   0.52136   0.00000  Uiso   1.00
N887   N     0.28984   0.77867   0.42824   0.00000  Uiso   1.00
N888   N     0.04347   0.88796   0.57178   0.00000  Uiso   1.00
O889   O     0.10655   0.87291   0.50000   0.00000  Uiso   1.00
O890   O     0.22679   0.79375   0.50000   0.00000  Uiso   1.00
O891   O     0.22679   0.87291   0.50000   0.00000  Uiso   1.00
O892   O     0.10655   0.79375   0.50000   0.00000  Uiso   1.00
O893   O     0.16667   0.87292   0.42946   0.00000  Uiso   1.00
O894   O     0.16667   0.79375   0.57054   0.00000  Uiso   1.00
O895   O     0.16667   0.87292   0.57054   0.00000  Uiso   1.00
O896   O     0.16667   0.79375   0.42946   0.00000  Uiso   1.00
Br897  Br    0.44417   0.71894   0.41390   0.00000  Uiso   1.00
Br898  Br    0.55584   0.94772   0.58609   0.00000  Uiso   1.00
Br899  Br    0.56205   0.72614   0.58006   0.00000  Uiso   1.00
Br900  Br    0.43794   0.94053   0.41995   0.00000  Uiso   1.00
C901   C     0.42081   0.83243   0.50272   0.00000  Uiso   1.00
C902   C     0.35712   0.86816   0.52746   0.00000  Uiso   1.00
C903   C     0.62417   0.83607   0.49475   0.00000  Uiso   1.00
C904   C     0.37582   0.83059   0.50524   0.00000  Uiso   1.00
C905   C     0.47613   0.68988   0.46578   0.00000  Uiso   1.00
C906   C     0.52387   0.97679   0.53422   0.00000  Uiso   1.00
C907   C     0.52447   0.69277   0.53365   0.00000  Uiso   1.00
C908   C     0.47553   0.97389   0.46636   0.00000  Uiso   1.00
C909   C     0.34994   0.70897   0.45417   0.00000  Uiso   1.00
C910   C     0.65007   0.95769   0.54579   0.00000  Uiso   1.00
C911   C     0.59437   0.73928   0.42991   0.00000  Uiso   1.00
C912   C     0.57919   0.83424   0.49727   0.00000  Uiso   1.00
C913   C     0.40562   0.92734   0.57015   0.00000  Uiso   1.00
C914   C     0.49994   0.83317   0.40697   0.00000  Uiso   1.00
C915   C     0.50006   0.83350   0.59303   0.00000  Uiso   1.00
C916   C     0.49998   0.83310   0.35521   0.00000  Uiso   1.00
C917   C     0.50002   0.83356   0.64479   0.00000  Uiso   1.00
C918   C     0.35190   0.79307   0.48274   0.00000  Uiso   1.00
C919   C     0.64810   0.87358   0.51725   0.00000  Uiso   1.00
C920   C     0.64287   0.79849   0.47254   0.00000  Uiso   1.00
Cu921  Cu    0.50000   0.88022   0.50000   0.00000  Uiso   1.00
Cu922  Cu    0.50000   0.78645   0.50000   0.00000  Uiso   1.00
H923   H     0.38545   0.73944   0.51118   0.00000  Uiso   1.00
H924   H     0.60397   0.71049   0.40624   0.00000  Uiso   1.00
H925   H     0.56389   0.74934   0.41474   0.00000  Uiso   1.00
H926   H     0.59196   0.72619   0.46793   0.00000  Uiso   1.00
H927   H     0.35998   0.88639   0.60270   0.00000  Uiso   1.00
H928   H     0.39603   0.95611   0.59385   0.00000  Uiso   1.00
H929   H     0.40805   0.94046   0.53215   0.00000  Uiso   1.00
H930   H     0.43609   0.91725   0.58532   0.00000  Uiso   1.00
H931   H     0.65587   0.69819   0.47365   0.00000  Uiso   1.00
H932   H     0.37057   0.67928   0.45599   0.00000  Uiso   1.00
H933   H     0.34323   0.71579   0.41454   0.00000  Uiso   1.00
H934   H     0.61460   0.92722   0.48872   0.00000  Uiso   1.00
H935   H     0.34415   0.96845   0.52634   0.00000  Uiso   1.00
H936   H     0.65675   0.95088   0.58542   0.00000  Uiso   1.00
H937   H     0.62946   0.98739   0.54394   0.00000  Uiso   1.00
H938   H     0.63997   0.78024   0.39730   0.00000  Uiso   1.00
N939   N     0.50000   0.95069   0.50000   0.00000  Uiso   1.00
N940   N     0.50000   0.71598   0.50000   0.00000  Uiso   1.00
N941   N     0.37041   0.74888   0.47859   0.00000  Uiso   1.00
N942   N     0.62960   0.91779   0.52136   0.00000  Uiso   1.00
N943   N     0.62317   0.77867   0.42824   0.00000  Uiso   1.00
N944   N     0.37680   0.88796   0.57178   0.00000  Uiso   1.00
O945   O     0.43988   0.87291   0.50000   0.00000  Uiso   1.00
O946   O     0.56012   0.79375   0.50000   0.00000  Uiso   1.00
O947   O     0.56012   0.87291   0.50000   0.00000  Uiso   1.00
O948   O     0.43988   0.79375   0.50000   0.00000  Uiso   1.00
O949   O     0.50000   0.87292   0.42946   0.00000  Uiso   1.00
O950   O     0.50000   0.79375   0.57054   0.00000  Uiso   1.00
O951   O     0.50000   0.87292   0.57054   0.00000  Uiso   1.00
O952   O     0.50000   0.79375   0.42946   0.00000  Uiso   1.00
Br953  Br    0.77751   0.71894   0.41390   0.00000  Uiso   1.00
Br954  Br    0.88917   0.94772   0.58609   0.00000  Uiso   1.00
Br955  Br    0.89538   0.72614   0.58006   0.00000  Uiso   1.00
Br956  Br    0.77128   0.94053   0.41995   0.00000  Uiso   1.00
C957   C     0.75414   0.83243   0.50272   0.00000  Uiso   1.00
C958   C     0.69045   0.86816   0.52746   0.00000  Uiso   1.00
C959   C     0.95751   0.83607   0.49475   0.00000  Uiso   1.00
C960   C     0.70916   0.83059   0.50524   0.00000  Uiso   1.00
C961   C     0.80947   0.68988   0.46578   0.00000  Uiso   1.00
C962   C     0.85720   0.97679   0.53422   0.00000  Uiso   1.00
C963   C     0.85781   0.69277   0.53365   0.00000  Uiso   1.00
C964   C     0.80886   0.97389   0.46636   0.00000  Uiso   1.00
C965   C     0.68327   0.70897   0.45417   0.00000  Uiso   1.00
C966   C     0.98340   0.95769   0.54579   0.00000  Uiso   1.00
C967   C     0.92770   0.73928   0.42991   0.00000  Uiso   1.00
C968   C     0.91252   0.83424   0.49727   0.00000  Uiso   1.00
C969   C     0.73896   0.92734   0.57015   0.00000  Uiso   1.00
C970   C     0.83327   0.83317   0.40697   0.00000  Uiso   1.00
C971   C     0.83340   0.83350   0.59303   0.00000  Uiso   1.00
C972   C     0.83331   0.83310   0.35521   0.00000  Uiso   1.00
C973   C     0.83335   0.83356   0.64479   0.00000  Uiso   1.00
C974   C     0.68523   0.79307   0.48274   0.00000  Uiso   1.00
C975   C     0.98143   0.87358   0.51725   0.00000  Uiso   1.00
C976   C     0.97621   0.79849   0.47254   0.00000  Uiso   1.00
Cu977  Cu    0.83333   0.88022   0.50000   0.00000  Uiso   1.00
Cu978  Cu    0.83333   0.78645   0.50000   0.00000  Uiso   1.00
H979   H     0.71878   0.73944   0.51118   0.00000  Uiso   1.00
H980   H     0.93730   0.71049   0.40624   0.00000  Uiso   1.00
H981   H     0.89723   0.74934   0.41474   0.00000  Uiso   1.00
H982   H     0.92529   0.72619   0.46793   0.00000  Uiso   1.00
H983   H     0.69331   0.88639   0.60270   0.00000  Uiso   1.00
H984   H     0.72936   0.95611   0.59385   0.00000  Uiso   1.00
H985   H     0.74138   0.94046   0.53215   0.00000  Uiso   1.00
H986   H     0.76942   0.91725   0.58532   0.00000  Uiso   1.00
H987   H     0.98920   0.69819   0.47365   0.00000  Uiso   1.00
H988   H     0.70390   0.67928   0.45599   0.00000  Uiso   1.00
H989   H     0.67657   0.71579   0.41454   0.00000  Uiso   1.00
H990   H     0.94793   0.92722   0.48872   0.00000  Uiso   1.00
H991   H     0.67749   0.96845   0.52634   0.00000  Uiso   1.00
H992   H     0.99008   0.95088   0.58542   0.00000  Uiso   1.00
H993   H     0.96279   0.98739   0.54394   0.00000  Uiso   1.00
H994   H     0.97331   0.78024   0.39730   0.00000  Uiso   1.00
N995   N     0.83333   0.95069   0.50000   0.00000  Uiso   1.00
N996   N     0.83333   0.71598   0.50000   0.00000  Uiso   1.00
N997   N     0.70374   0.74888   0.47859   0.00000  Uiso   1.00
N998   N     0.96293   0.91779   0.52136   0.00000  Uiso   1.00
N999   N     0.95651   0.77867   0.42824   0.00000  Uiso   1.00
N1000  N     0.71014   0.88796   0.57178   0.00000  Uiso   1.00
O1001  O     0.77321   0.87291   0.50000   0.00000  Uiso   1.00
O1002  O     0.89345   0.79375   0.50000   0.00000  Uiso   1.00
O1003  O     0.89345   0.87291   0.50000   0.00000  Uiso   1.00
O1004  O     0.77321   0.79375   0.50000   0.00000  Uiso   1.00
O1005  O     0.83333   0.87292   0.42946   0.00000  Uiso   1.00
O1006  O     0.83333   0.79375   0.57054   0.00000  Uiso   1.00
O1007  O     0.83333   0.87292   0.57054   0.00000  Uiso   1.00
O1008  O     0.83333   0.79375   0.42946   0.00000  Uiso   1.00
Br1009 Br    0.11084   0.05228   0.74723   0.00000  Uiso   1.00
Br1010 Br    0.22250   0.28105   0.91942   0.00000  Uiso   1.00
Br1011 Br    0.22872   0.05947   0.91339   0.00000  Uiso   1.00
Br1012 Br    0.10461   0.27386   0.75328   0.00000  Uiso   1.00
C1013  C     0.08748   0.16576   0.83605   0.00000  Uiso   1.00
C1014  C     0.02379   0.20149   0.86079   0.00000  Uiso   1.00
C1015  C     0.29084   0.16941   0.82808   0.00000  Uiso   1.00
C1016  C     0.04249   0.16392   0.83857   0.00000  Uiso   1.00
C1017  C     0.14280   0.02321   0.79912   0.00000  Uiso   1.00
C1018  C     0.19053   0.31012   0.86755   0.00000  Uiso   1.00
C1019  C     0.19114   0.02611   0.86698   0.00000  Uiso   1.00
C1020  C     0.14219   0.30723   0.79969   0.00000  Uiso   1.00
C1021  C     0.01661   0.04230   0.78750   0.00000  Uiso   1.00
C1022  C     0.31673   0.29103   0.87912   0.00000  Uiso   1.00
C1023  C     0.26104   0.07261   0.76324   0.00000  Uiso   1.00
C1024  C     0.24585   0.16757   0.83061   0.00000  Uiso   1.00
C1025  C     0.07229   0.26067   0.90349   0.00000  Uiso   1.00
C1026  C     0.16660   0.16650   0.74030   0.00000  Uiso   1.00
C1027  C     0.16673   0.16683   0.92636   0.00000  Uiso   1.00
C1028  C     0.16665   0.16644   0.68854   0.00000  Uiso   1.00
C1029  C     0.16668   0.16690   0.97812   0.00000  Uiso   1.00
C1030  C     0.01857   0.12641   0.81607   0.00000  Uiso   1.00
C1031  C     0.31476   0.20692   0.85058   0.00000  Uiso   1.00
C1032  C     0.30954   0.13183   0.80587   0.00000  Uiso   1.00
Cu1033 Cu    0.16667   0.21355   0.83333   0.00000  Uiso   1.00
Cu1034 Cu    0.16667   0.11978   0.83333   0.00000  Uiso   1.00
H1035  H     0.05211   0.07277   0.84452   0.00000  Uiso   1.00
H1036  H     0.27064   0.04383   0.73958   0.00000  Uiso   1.00
H1037  H     0.23056   0.08268   0.74807   0.00000  Uiso   1.00
H1038  H     0.25862   0.05952   0.80126   0.00000  Uiso   1.00
H1039  H     0.02664   0.21973   0.93604   0.00000  Uiso   1.00
H1040  H     0.06270   0.28944   0.92718   0.00000  Uiso   1.00
H1041  H     0.07471   0.27379   0.86549   0.00000  Uiso   1.00
H1042  H     0.10276   0.25058   0.91865   0.00000  Uiso   1.00
H1043  H     0.32254   0.03153   0.80698   0.00000  Uiso   1.00
H1044  H     0.03723   0.01262   0.78932   0.00000  Uiso   1.00
H1045  H     0.00990   0.04913   0.74788   0.00000  Uiso   1.00
H1046  H     0.28127   0.26056   0.82206   0.00000  Uiso   1.00
H1047  H     0.01082   0.30179   0.85967   0.00000  Uiso   1.00
H1048  H     0.32342   0.28421   0.91875   0.00000  Uiso   1.00
H1049  H     0.29612   0.32072   0.87727   0.00000  Uiso   1.00
H1050  H     0.30664   0.11357   0.73063   0.00000  Uiso   1.00
N1051  N     0.16667   0.28402   0.83333   0.00000  Uiso   1.00
N1052  N     0.16667   0.04931   0.83333   0.00000  Uiso   1.00
N1053  N     0.03708   0.08221   0.81192   0.00000  Uiso   1.00
N1054  N     0.29626   0.25113   0.85469   0.00000  Uiso   1.00
N1055  N     0.28984   0.11200   0.76158   0.00000  Uiso   1.00
N1056  N     0.04347   0.22129   0.90511   0.00000  Uiso   1.00
O1057  O     0.10655   0.20625   0.83333   0.00000  Uiso   1.00
O1058  O     0.22679   0.12709   0.83334   0.00000  Uiso   1.00
O1059  O     0.22679   0.20625   0.83334   0.00000  Uiso   1.00
O1060  O     0.10655   0.12709   0.83333   0.00000  Uiso   1.00
O1061  O     0.16667   0.20625   0.76280   0.00000  Uiso   1.00
O1062  O     0.16667   0.12708   0.90387   0.00000  Uiso   1.00
O1063  O     0.16667   0.20625   0.90387   0.00000  Uiso   1.00
O1064  O     0.16667   0.12708   0.76280   0.00000  Uiso   1.00
Br1065 Br    0.44417   0.05228   0.74723   0.00000  Uiso   1.00
Br1066 Br    0.55584   0.28105   0.91942   0.00000  Uiso   1.00
Br1067 Br    0.56205   0.05947   0.91339   0.00000  Uiso   1.00
Br1068 Br    0.43794   0.27386   0.75328   0.00000  Uiso   1.00
C1069  C     0.42081   0.16576   0.83605   0.00000  Uiso   1.00
C1070  C     0.35712   0.20149   0.86079   0.00000  Uiso   1.00
C1071  C     0.62417   0.16941   0.82808   0.00000  Uiso   1.00
C1072  C     0.37582   0.16392   0.83857   0.00000  Uiso   1.00
C1073  C     0.47613   0.02321   0.79912   0.00000  Uiso   1.00
C1074  C     0.52387   0.31012   0.86755   0.00000  Uiso   1.00
C1075  C     0.52447   0.02611   0.86698   0.00000  Uiso   1.00
C1076  C     0.47553   0.30723   0.79969   0.00000  Uiso   1.00
C1077  C     0.34994   0.04230   0.78750   0.00000  Uiso   1.00
C1078  C     0.65007   0.29103   0.87912   0.00000  Uiso   1.00
C1079  C     0.59437   0.07261   0.76324   0.00000  Uiso   1.00
C1080  C     0.57919   0.16757   0.83061   0.00000  Uiso   1.00
C1081  C     0.40562   0.26067   0.90349   0.00000  Uiso   1.00
C1082  C     0.49994   0.16650   0.74030   0.00000  Uiso   1.00
C1083  C     0.50006   0.16683   0.92636   0.00000  Uiso   1.00
C1084  C     0.49998   0.16644   0.68854   0.00000  Uiso   1.00
C1085  C     0.50002   0.16690   0.97812   0.00000  Uiso   1.00
C1086  C     0.35190   0.12641   0.81607   0.00000  Uiso   1.00
C1087  C     0.64810   0.20692   0.85058   0.00000  Uiso   1.00
C1088  C     0.64287   0.13183   0.80587   0.00000  Uiso   1.00
Cu1089 Cu    0.50000   0.21355   0.83333   0.00000  Uiso   1.00
Cu1090 Cu    0.50000   0.11978   0.83333   0.00000  Uiso   1.00
H1091  H     0.38545   0.07277   0.84452   0.00000  Uiso   1.00
H1092  H     0.60397   0.04383   0.73958   0.00000  Uiso   1.00
H1093  H     0.56389   0.08268   0.74807   0.00000  Uiso   1.00
H1094  H     0.59196   0.05952   0.80126   0.00000  Uiso   1.00
H1095  H     0.35998   0.21973   0.93604   0.00000  Uiso   1.00
H1096  H     0.39603   0.28944   0.92718   0.00000  Uiso   1.00
H1097  H     0.40805   0.27379   0.86549   0.00000  Uiso   1.00
H1098  H     0.43609   0.25058   0.91865   0.00000  Uiso   1.00
H1099  H     0.65587   0.03153   0.80698   0.00000  Uiso   1.00
H1100  H     0.37057   0.01262   0.78932   0.00000  Uiso   1.00
H1101  H     0.34323   0.04913   0.74788   0.00000  Uiso   1.00
H1102  H     0.61460   0.26056   0.82206   0.00000  Uiso   1.00
H1103  H     0.34415   0.30179   0.85967   0.00000  Uiso   1.00
H1104  H     0.65675   0.28421   0.91875   0.00000  Uiso   1.00
H1105  H     0.62946   0.32072   0.87727   0.00000  Uiso   1.00
H1106  H     0.63997   0.11357   0.73063   0.00000  Uiso   1.00
N1107  N     0.50000   0.28402   0.83333   0.00000  Uiso   1.00
N1108  N     0.50000   0.04931   0.83333   0.00000  Uiso   1.00
N1109  N     0.37041   0.08221   0.81192   0.00000  Uiso   1.00
N1110  N     0.62960   0.25113   0.85469   0.00000  Uiso   1.00
N1111  N     0.62317   0.11200   0.76158   0.00000  Uiso   1.00
N1112  N     0.37680   0.22129   0.90511   0.00000  Uiso   1.00
O1113  O     0.43988   0.20625   0.83333   0.00000  Uiso   1.00
O1114  O     0.56012   0.12709   0.83334   0.00000  Uiso   1.00
O1115  O     0.56012   0.20625   0.83334   0.00000  Uiso   1.00
O1116  O     0.43988   0.12709   0.83333   0.00000  Uiso   1.00
O1117  O     0.50000   0.20625   0.76280   0.00000  Uiso   1.00
O1118  O     0.50000   0.12708   0.90387   0.00000  Uiso   1.00
O1119  O     0.50000   0.20625   0.90387   0.00000  Uiso   1.00
O1120  O     0.50000   0.12708   0.76280   0.00000  Uiso   1.00
Br1121 Br    0.77751   0.05228   0.74723   0.00000  Uiso   1.00
Br1122 Br    0.88917   0.28105   0.91942   0.00000  Uiso   1.00
Br1123 Br    0.89538   0.05947   0.91339   0.00000  Uiso   1.00
Br1124 Br    0.77128   0.27386   0.75328   0.00000  Uiso   1.00
C1125  C     0.75414   0.16576   0.83605   0.00000  Uiso   1.00
C1126  C     0.69045   0.20149   0.86079   0.00000  Uiso   1.00
C1127  C     0.95751   0.16941   0.82808   0.00000  Uiso   1.00
C1128  C     0.70916   0.16392   0.83857   0.00000  Uiso   1.00
C1129  C     0.80947   0.02321   0.79912   0.00000  Uiso   1.00
C1130  C     0.85720   0.31012   0.86755   0.00000  Uiso   1.00
C1131  C     0.85781   0.02611   0.86698   0.00000  Uiso   1.00
C1132  C     0.80886   0.30723   0.79969   0.00000  Uiso   1.00
C1133  C     0.68327   0.04230   0.78750   0.00000  Uiso   1.00
C1134  C     0.98340   0.29103   0.87912   0.00000  Uiso   1.00
C1135  C     0.92770   0.07261   0.76324   0.00000  Uiso   1.00
C1136  C     0.91252   0.16757   0.83061   0.00000  Uiso   1.00
C1137  C     0.73896   0.26067   0.90349   0.00000  Uiso   1.00
C1138  C     0.83327   0.16650   0.74030   0.00000  Uiso   1.00
C1139  C     0.83340   0.16683   0.92636   0.00000  Uiso   1.00
C1140  C     0.83331   0.16644   0.68854   0.00000  Uiso   1.00
C1141  C     0.83335   0.16690   0.97812   0.00000  Uiso   1.00
C1142  C     0.68523   0.12641   0.81607   0.00000  Uiso   1.00
C1143  C     0.98143   0.20692   0.85058   0.00000  Uiso   1.00
C1144  C     0.97621   0.13183   0.80587   0.00000  Uiso   1.00
Cu1145 Cu    0.83333   0.21355   0.83333   0.00000  Uiso   1.00
Cu1146 Cu    0.83333   0.11978   0.83333   0.00000  Uiso   1.00
H1147  H     0.71878   0.07277   0.84452   0.00000  Uiso   1.00
H1148  H     0.93730   0.04383   0.73958   0.00000  Uiso   1.00
H1149  H     0.89723   0.08268   0.74807   0.00000  Uiso   1.00
H1150  H     0.92529   0.05952   0.80126   0.00000  Uiso   1.00
H1151  H     0.69331   0.21973   0.93604   0.00000  Uiso   1.00
H1152  H     0.72936   0.28944   0.92718   0.00000  Uiso   1.00
H1153  H     0.74138   0.27379   0.86549   0.00000  Uiso   1.00
H1154  H     0.76942   0.25058   0.91865   0.00000  Uiso   1.00
H1155  H     0.98920   0.03153   0.80698   0.00000  Uiso   1.00
H1156  H     0.70390   0.01262   0.78932   0.00000  Uiso   1.00
H1157  H     0.67657   0.04913   0.74788   0.00000  Uiso   1.00
H1158  H     0.94793   0.26056   0.82206   0.00000  Uiso   1.00
H1159  H     0.67749   0.30179   0.85967   0.00000  Uiso   1.00
H1160  H     0.99008   0.28421   0.91875   0.00000  Uiso   1.00
H1161  H     0.96279   0.32072   0.87727   0.00000  Uiso   1.00
H1162  H     0.97331   0.11357   0.73063   0.00000  Uiso   1.00
N1163  N     0.83333   0.28402   0.83333   0.00000  Uiso   1.00
N1164  N     0.83333   0.04931   0.83333   0.00000  Uiso   1.00
N1165  N     0.70374   0.08221   0.81192   0.00000  Uiso   1.00
N1166  N     0.96293   0.25113   0.85469   0.00000  Uiso   1.00
N1167  N     0.95651   0.11200   0.76158   0.00000  Uiso   1.00
N1168  N     0.71014   0.22129   0.90511   0.00000  Uiso   1.00
O1169  O     0.77321   0.20625   0.83333   0.00000  Uiso   1.00
O1170  O     0.89345   0.12709   0.83334   0.00000  Uiso   1.00
O1171  O     0.89345   0.20625   0.83334   0.00000  Uiso   1.00
O1172  O     0.77321   0.12709   0.83333   0.00000  Uiso   1.00
O1173  O     0.83333   0.20625   0.76280   0.00000  Uiso   1.00
O1174  O     0.83333   0.12708   0.90387   0.00000  Uiso   1.00
O1175  O     0.83333   0.20625   0.90387   0.00000  Uiso   1.00
O1176  O     0.83333   0.12708   0.76280   0.00000  Uiso   1.00
Br1177 Br    0.11084   0.38561   0.74723   0.00000  Uiso   1.00
Br1178 Br    0.22250   0.61439   0.91942   0.00000  Uiso   1.00
Br1179 Br    0.22872   0.39280   0.91339   0.00000  Uiso   1.00
Br1180 Br    0.10461   0.60720   0.75328   0.00000  Uiso   1.00
C1181  C     0.08748   0.49909   0.83605   0.00000  Uiso   1.00
C1182  C     0.02379   0.53483   0.86079   0.00000  Uiso   1.00
C1183  C     0.29084   0.50274   0.82808   0.00000  Uiso   1.00
C1184  C     0.04249   0.49725   0.83857   0.00000  Uiso   1.00
C1185  C     0.14280   0.35655   0.79912   0.00000  Uiso   1.00
C1186  C     0.19053   0.64345   0.86755   0.00000  Uiso   1.00
C1187  C     0.19114   0.35944   0.86698   0.00000  Uiso   1.00
C1188  C     0.14219   0.64056   0.79969   0.00000  Uiso   1.00
C1189  C     0.01661   0.37563   0.78750   0.00000  Uiso   1.00
C1190  C     0.31673   0.62436   0.87912   0.00000  Uiso   1.00
C1191  C     0.26104   0.40594   0.76324   0.00000  Uiso   1.00
C1192  C     0.24585   0.50090   0.83061   0.00000  Uiso   1.00
C1193  C     0.07229   0.59401   0.90349   0.00000  Uiso   1.00
C1194  C     0.16660   0.49983   0.74030   0.00000  Uiso   1.00
C1195  C     0.16673   0.50017   0.92636   0.00000  Uiso   1.00
C1196  C     0.16665   0.49977   0.68854   0.00000  Uiso   1.00
C1197  C     0.16668   0.50023   0.97812   0.00000  Uiso   1.00
C1198  C     0.01857   0.45974   0.81607   0.00000  Uiso   1.00
C1199  C     0.31476   0.54025   0.85058   0.00000  Uiso   1.00
C1200  C     0.30954   0.46516   0.80587   0.00000  Uiso   1.00
Cu1201 Cu    0.16667   0.54689   0.83333   0.00000  Uiso   1.00
Cu1202 Cu    0.16667   0.45311   0.83333   0.00000  Uiso   1.00
H1203  H     0.05211   0.40610   0.84452   0.00000  Uiso   1.00
H1204  H     0.27064   0.37716   0.73958   0.00000  Uiso   1.00
H1205  H     0.23056   0.41601   0.74807   0.00000  Uiso   1.00
H1206  H     0.25862   0.39285   0.80126   0.00000  Uiso   1.00
H1207  H     0.02664   0.55306   0.93604   0.00000  Uiso   1.00
H1208  H     0.06270   0.62277   0.92718   0.00000  Uiso   1.00
H1209  H     0.07471   0.60713   0.86549   0.00000  Uiso   1.00
H1210  H     0.10276   0.58391   0.91865   0.00000  Uiso   1.00
H1211  H     0.32254   0.36486   0.80698   0.00000  Uiso   1.00
H1212  H     0.03723   0.34595   0.78932   0.00000  Uiso   1.00
H1213  H     0.00990   0.38246   0.74788   0.00000  Uiso   1.00
H1214  H     0.28127   0.59389   0.82206   0.00000  Uiso   1.00
H1215  H     0.01082   0.63512   0.85967   0.00000  Uiso   1.00
H1216  H     0.32342   0.61754   0.91875   0.00000  Uiso   1.00
H1217  H     0.29612   0.65405   0.87727   0.00000  Uiso   1.00
H1218  H     0.30664   0.44690   0.73063   0.00000  Uiso   1.00
N1219  N     0.16667   0.61736   0.83333   0.00000  Uiso   1.00
N1220  N     0.16667   0.38264   0.83333   0.00000  Uiso   1.00
N1221  N     0.03708   0.41554   0.81192   0.00000  Uiso   1.00
N1222  N     0.29626   0.58446   0.85469   0.00000  Uiso   1.00
N1223  N     0.28984   0.44534   0.76158   0.00000  Uiso   1.00
N1224  N     0.04347   0.55462   0.90511   0.00000  Uiso   1.00
O1225  O     0.10655   0.53958   0.83333   0.00000  Uiso   1.00
O1226  O     0.22679   0.46042   0.83334   0.00000  Uiso   1.00
O1227  O     0.22679   0.53958   0.83334   0.00000  Uiso   1.00
O1228  O     0.10655   0.46042   0.83333   0.00000  Uiso   1.00
O1229  O     0.16667   0.53959   0.76280   0.00000  Uiso   1.00
O1230  O     0.16667   0.46041   0.90387   0.00000  Uiso   1.00
O1231  O     0.16667   0.53959   0.90387   0.00000  Uiso   1.00
O1232  O     0.16667   0.46041   0.76280   0.00000  Uiso   1.00
Br1233 Br    0.44417   0.38561   0.74723   0.00000  Uiso   1.00
Br1234 Br    0.55584   0.61439   0.91942   0.00000  Uiso   1.00
Br1235 Br    0.56205   0.39280   0.91339   0.00000  Uiso   1.00
Br1236 Br    0.43794   0.60720   0.75328   0.00000  Uiso   1.00
C1237  C     0.42081   0.49909   0.83605   0.00000  Uiso   1.00
C1238  C     0.35712   0.53483   0.86079   0.00000  Uiso   1.00
C1239  C     0.62417   0.50274   0.82808   0.00000  Uiso   1.00
C1240  C     0.37582   0.49725   0.83857   0.00000  Uiso   1.00
C1241  C     0.47613   0.35655   0.79912   0.00000  Uiso   1.00
C1242  C     0.52387   0.64345   0.86755   0.00000  Uiso   1.00
C1243  C     0.52447   0.35944   0.86698   0.00000  Uiso   1.00
C1244  C     0.47553   0.64056   0.79969   0.00000  Uiso   1.00
C1245  C     0.34994   0.37563   0.78750   0.00000  Uiso   1.00
C1246  C     0.65007   0.62436   0.87912   0.00000  Uiso   1.00
C1247  C     0.59437   0.40594   0.76324   0.00000  Uiso   1.00
C1248  C     0.57919   0.50090   0.83061   0.00000  Uiso   1.00
C1249  C     0.40562   0.59401   0.90349   0.00000  Uiso   1.00
C1250  C     0.49994   0.49983   0.74030   0.00000  Uiso   1.00
C1251  C     0.50006   0.50017   0.92636   0.00000  Uiso   1.00
C1252  C     0.49998   0.49977   0.68854   0.00000  Uiso   1.00
C1253  C     0.50002   0.50023   0.97812   0.00000  Uiso   1.00
C1254  C     0.35190   0.45974   0.81607   0.00000  Uiso   1.00
C1255  C     0.64810   0.54025   0.85058   0.00000  Uiso   1.00
C1256  C     0.64287   0.46516   0.80587   0.00000  Uiso   1.00
Cu1257 Cu    0.50000   0.54689   0.83333   0.00000  Uiso   1.00
Cu1258 Cu    0.50000   0.45311   0.83333   0.00000  Uiso   1.00
H1259  H     0.38545   0.40610   0.84452   0.00000  Uiso   1.00
H1260  H     0.60397   0.37716   0.73958   0.00000  Uiso   1.00
H1261  H     0.56389   0.41601   0.74807   0.00000  Uiso   1.00
H1262  H     0.59196   0.39285   0.80126   0.00000  Uiso   1.00
H1263  H     0.35998   0.55306   0.93604   0.00000  Uiso   1.00
H1264  H     0.39603   0.62277   0.92718   0.00000  Uiso   1.00
H1265  H     0.40805   0.60713   0.86549   0.00000  Uiso   1.00
H1266  H     0.43609   0.58391   0.91865   0.00000  Uiso   1.00
H1267  H     0.65587   0.36486   0.80698   0.00000  Uiso   1.00
H1268  H     0.37057   0.34595   0.78932   0.00000  Uiso   1.00
H1269  H     0.34323   0.38246   0.74788   0.00000  Uiso   1.00
H1270  H     0.61460   0.59389   0.82206   0.00000  Uiso   1.00
H1271  H     0.34415   0.63512   0.85967   0.00000  Uiso   1.00
H1272  H     0.65675   0.61754   0.91875   0.00000  Uiso   1.00
H1273  H     0.62946   0.65405   0.87727   0.00000  Uiso   1.00
H1274  H     0.63997   0.44690   0.73063   0.00000  Uiso   1.00
N1275  N     0.50000   0.61736   0.83333   0.00000  Uiso   1.00
N1276  N     0.50000   0.38264   0.83333   0.00000  Uiso   1.00
N1277  N     0.37041   0.41554   0.81192   0.00000  Uiso   1.00
N1278  N     0.62960   0.58446   0.85469   0.00000  Uiso   1.00
N1279  N     0.62317   0.44534   0.76158   0.00000  Uiso   1.00
N1280  N     0.37680   0.55462   0.90511   0.00000  Uiso   1.00
O1281  O     0.43988   0.53958   0.83333   0.00000  Uiso   1.00
O1282  O     0.56012   0.46042   0.83334   0.00000  Uiso   1.00
O1283  O     0.56012   0.53958   0.83334   0.00000  Uiso   1.00
O1284  O     0.43988   0.46042   0.83333   0.00000  Uiso   1.00
O1285  O     0.50000   0.53959   0.76280   0.00000  Uiso   1.00
O1286  O     0.50000   0.46041   0.90387   0.00000  Uiso   1.00
O1287  O     0.50000   0.53959   0.90387   0.00000  Uiso   1.00
O1288  O     0.50000   0.46041   0.76280   0.00000  Uiso   1.00
Br1289 Br    0.77751   0.38561   0.74723   0.00000  Uiso   1.00
Br1290 Br    0.88917   0.61439   0.91942   0.00000  Uiso   1.00
Br1291 Br    0.89538   0.39280   0.91339   0.00000  Uiso   1.00
Br1292 Br    0.77128   0.60720   0.75328   0.00000  Uiso   1.00
C1293  C     0.75414   0.49909   0.83605   0.00000  Uiso   1.00
C1294  C     0.69045   0.53483   0.86079   0.00000  Uiso   1.00
C1295  C     0.95751   0.50274   0.82808   0.00000  Uiso   1.00
C1296  C     0.70916   0.49725   0.83857   0.00000  Uiso   1.00
C1297  C     0.80947   0.35655   0.79912   0.00000  Uiso   1.00
C1298  C     0.85720   0.64345   0.86755   0.00000  Uiso   1.00
C1299  C     0.85781   0.35944   0.86698   0.00000  Uiso   1.00
C1300  C     0.80886   0.64056   0.79969   0.00000  Uiso   1.00
C1301  C     0.68327   0.37563   0.78750   0.00000  Uiso   1.00
C1302  C     0.98340   0.62436   0.87912   0.00000  Uiso   1.00
C1303  C     0.92770   0.40594   0.76324   0.00000  Uiso   1.00
C1304  C     0.91252   0.50090   0.83061   0.00000  Uiso   1.00
C1305  C     0.73896   0.59401   0.90349   0.00000  Uiso   1.00
C1306  C     0.83327   0.49983   0.74030   0.00000  Uiso   1.00
C1307  C     0.83340   0.50017   0.92636   0.00000  Uiso   1.00
C1308  C     0.83331   0.49977   0.68854   0.00000  Uiso   1.00
C1309  C     0.83335   0.50023   0.97812   0.00000  Uiso   1.00
C1310  C     0.68523   0.45974   0.81607   0.00000  Uiso   1.00
C1311  C     0.98143   0.54025   0.85058   0.00000  Uiso   1.00
C1312  C     0.97621   0.46516   0.80587   0.00000  Uiso   1.00
Cu1313 Cu    0.83333   0.54689   0.83333   0.00000  Uiso   1.00
Cu1314 Cu    0.83333   0.45311   0.83333   0.00000  Uiso   1.00
H1315  H     0.71878   0.40610   0.84452   0.00000  Uiso   1.00
H1316  H     0.93730   0.37716   0.73958   0.00000  Uiso   1.00
H1317  H     0.89723   0.41601   0.74807   0.00000  Uiso   1.00
H1318  H     0.92529   0.39285   0.80126   0.00000  Uiso   1.00
H1319  H     0.69331   0.55306   0.93604   0.00000  Uiso   1.00
H1320  H     0.72936   0.62277   0.92718   0.00000  Uiso   1.00
H1321  H     0.74138   0.60713   0.86549   0.00000  Uiso   1.00
H1322  H     0.76942   0.58391   0.91865   0.00000  Uiso   1.00
H1323  H     0.98920   0.36486   0.80698   0.00000  Uiso   1.00
H1324  H     0.70390   0.34595   0.78932   0.00000  Uiso   1.00
H1325  H     0.67657   0.38246   0.74788   0.00000  Uiso   1.00
H1326  H     0.94793   0.59389   0.82206   0.00000  Uiso   1.00
H1327  H     0.67749   0.63512   0.85967   0.00000  Uiso   1.00
H1328  H     0.99008   0.61754   0.91875   0.00000  Uiso   1.00
H1329  H     0.96279   0.65405   0.87727   0.00000  Uiso   1.00
H1330  H     0.97331   0.44690   0.73063   0.00000  Uiso   1.00
N1331  N     0.83333   0.61736   0.83333   0.00000  Uiso   1.00
N1332  N     0.83333   0.38264   0.83333   0.00000  Uiso   1.00
N1333  N     0.70374   0.41554   0.81192   0.00000  Uiso   1.00
N1334  N     0.96293   0.58446   0.85469   0.00000  Uiso   1.00
N1335  N     0.95651   0.44534   0.76158   0.00000  Uiso   1.00
N1336  N     0.71014   0.55462   0.90511   0.00000  Uiso   1.00
O1337  O     0.77321   0.53958   0.83333   0.00000  Uiso   1.00
O1338  O     0.89345   0.46042   0.83334   0.00000  Uiso   1.00
O1339  O     0.89345   0.53958   0.83334   0.00000  Uiso   1.00
O1340  O     0.77321   0.46042   0.83333   0.00000  Uiso   1.00
O1341  O     0.83333   0.53959   0.76280   0.00000  Uiso   1.00
O1342  O     0.83333   0.46041   0.90387   0.00000  Uiso   1.00
O1343  O     0.83333   0.53959   0.90387   0.00000  Uiso   1.00
O1344  O     0.83333   0.46041   0.76280   0.00000  Uiso   1.00
Br1345 Br    0.11084   0.71894   0.74723   0.00000  Uiso   1.00
Br1346 Br    0.22250   0.94772   0.91942   0.00000  Uiso   1.00
Br1347 Br    0.22872   0.72614   0.91339   0.00000  Uiso   1.00
Br1348 Br    0.10461   0.94053   0.75328   0.00000  Uiso   1.00
C1349  C     0.08748   0.83243   0.83605   0.00000  Uiso   1.00
C1350  C     0.02379   0.86816   0.86079   0.00000  Uiso   1.00
C1351  C     0.29084   0.83607   0.82808   0.00000  Uiso   1.00
C1352  C     0.04249   0.83059   0.83857   0.00000  Uiso   1.00
C1353  C     0.14280   0.68988   0.79912   0.00000  Uiso   1.00
C1354  C     0.19053   0.97679   0.86755   0.00000  Uiso   1.00
C1355  C     0.19114   0.69277   0.86698   0.00000  Uiso   1.00
C1356  C     0.14219   0.97389   0.79969   0.00000  Uiso   1.00
C1357  C     0.01661   0.70897   0.78750   0.00000  Uiso   1.00
C1358  C     0.31673   0.95769   0.87912   0.00000  Uiso   1.00
C1359  C     0.26104   0.73928   0.76324   0.00000  Uiso   1.00
C1360  C     0.24585   0.83424   0.83061   0.00000  Uiso   1.00
C1361  C     0.07229   0.92734   0.90349   0.00000  Uiso   1.00
C1362  C     0.16660   0.83317   0.74030   0.00000  Uiso   1.00
C1363  C     0.16673   0.83350   0.92636   0.00000  Uiso   1.00
C1364  C     0.16665   0.83310   0.68854   0.00000  Uiso   1.00
C1365  C     0.16668   0.83356   0.97812   0.00000  Uiso   1.00
C1366  C     0.01857   0.79307   0.81607   0.00000  Uiso   1.00
C1367  C     0.31476   0.87358   0.85058   0.00000  Uiso   1.00
C1368  C     0.30954   0.79849   0.80587   0.00000  Uiso   1.00
Cu1369 Cu    0.16667   0.88022   0.83333   0.00000  Uiso   1.00
Cu1370 Cu    0.16667   0.78645   0.83333   0.00000  Uiso   1.00
H1371  H     0.05211   0.73944   0.84452   0.00000  Uiso   1.00
H1372  H     0.27064   0.71049   0.73958   0.00000  Uiso   1.00
H1373  H     0.23056   0.74934   0.74807   0.00000  Uiso   1.00
H1374  H     0.25862   0.72619   0.80126   0.00000  Uiso   1.00
H1375  H     0.02664   0.88639   0.93604   0.00000  Uiso   1.00
H1376  H     0.06270   0.95611   0.92718   0.00000  Uiso   1.00
H1377  H     0.07471   0.94046   0.86549   0.00000  Uiso   1.00
H1378  H     0.10276   0.91725   0.91865   0.00000  Uiso   1.00
H1379  H     0.32254   0.69819   0.80698   0.00000  Uiso   1.00
H1380  H     0.03723   0.67928   0.78932   0.00000  Uiso   1.00
H1381  H     0.00990   0.71579   0.74788   0.00000  Uiso   1.00
H1382  H     0.28127   0.92722   0.82206   0.00000  Uiso   1.00
H1383  H     0.01082   0.96845   0.85967   0.00000  Uiso   1.00
H1384  H     0.32342   0.95088   0.91875   0.00000  Uiso   1.00
H1385  H     0.29612   0.98739   0.87727   0.00000  Uiso   1.00
H1386  H     0.30664   0.78024   0.73063   0.00000  Uiso   1.00
N1387  N     0.16667   0.95069   0.83333   0.00000  Uiso   1.00
N1388  N     0.16667   0.71598   0.83333   0.00000  Uiso   1.00
N1389  N     0.03708   0.74888   0.81192   0.00000  Uiso   1.00
N1390  N     0.29626   0.91779   0.85469   0.00000  Uiso   1.00
N1391  N     0.28984   0.77867   0.76158   0.00000  Uiso   1.00
N1392  N     0.04347   0.88796   0.90511   0.00000  Uiso   1.00
O1393  O     0.10655   0.87291   0.83333   0.00000  Uiso   1.00
O1394  O     0.22679   0.79375   0.83334   0.00000  Uiso   1.00
O1395  O     0.22679   0.87291   0.83334   0.00000  Uiso   1.00
O1396  O     0.10655   0.79375   0.83333   0.00000  Uiso   1.00
O1397  O     0.16667   0.87292   0.76280   0.00000  Uiso   1.00
O1398  O     0.16667   0.79375   0.90387   0.00000  Uiso   1.00
O1399  O     0.16667   0.87292   0.90387   0.00000  Uiso   1.00
O1400  O     0.16667   0.79375   0.76280   0.00000  Uiso   1.00
Br1401 Br    0.44417   0.71894   0.74723   0.00000  Uiso   1.00
Br1402 Br    0.55584   0.94772   0.91942   0.00000  Uiso   1.00
Br1403 Br    0.56205   0.72614   0.91339   0.00000  Uiso   1.00
Br1404 Br    0.43794   0.94053   0.75328   0.00000  Uiso   1.00
C1405  C     0.42081   0.83243   0.83605   0.00000  Uiso   1.00
C1406  C     0.35712   0.86816   0.86079   0.00000  Uiso   1.00
C1407  C     0.62417   0.83607   0.82808   0.00000  Uiso   1.00
C1408  C     0.37582   0.83059   0.83857   0.00000  Uiso   1.00
C1409  C     0.47613   0.68988   0.79912   0.00000  Uiso   1.00
C1410  C     0.52387   0.97679   0.86755   0.00000  Uiso   1.00
C1411  C     0.52447   0.69277   0.86698   0.00000  Uiso   1.00
C1412  C     0.47553   0.97389   0.79969   0.00000  Uiso   1.00
C1413  C     0.34994   0.70897   0.78750   0.00000  Uiso   1.00
C1414  C     0.65007   0.95769   0.87912   0.00000  Uiso   1.00
C1415  C     0.59437   0.73928   0.76324   0.00000  Uiso   1.00
C1416  C     0.57919   0.83424   0.83061   0.00000  Uiso   1.00
C1417  C     0.40562   0.92734   0.90349   0.00000  Uiso   1.00
C1418  C     0.49994   0.83317   0.74030   0.00000  Uiso   1.00
C1419  C     0.50006   0.83350   0.92636   0.00000  Uiso   1.00
C1420  C     0.49998   0.83310   0.68854   0.00000  Uiso   1.00
C1421  C     0.50002   0.83356   0.97812   0.00000  Uiso   1.00
C1422  C     0.35190   0.79307   0.81607   0.00000  Uiso   1.00
C1423  C     0.64810   0.87358   0.85058   0.00000  Uiso   1.00
C1424  C     0.64287   0.79849   0.80587   0.00000  Uiso   1.00
Cu1425 Cu    0.50000   0.88022   0.83333   0.00000  Uiso   1.00
Cu1426 Cu    0.50000   0.78645   0.83333   0.00000  Uiso   1.00
H1427  H     0.38545   0.73944   0.84452   0.00000  Uiso   1.00
H1428  H     0.60397   0.71049   0.73958   0.00000  Uiso   1.00
H1429  H     0.56389   0.74934   0.74807   0.00000  Uiso   1.00
H1430  H     0.59196   0.72619   0.80126   0.00000  Uiso   1.00
H1431  H     0.35998   0.88639   0.93604   0.00000  Uiso   1.00
H1432  H     0.39603   0.95611   0.92718   0.00000  Uiso   1.00
H1433  H     0.40805   0.94046   0.86549   0.00000  Uiso   1.00
H1434  H     0.43609   0.91725   0.91865   0.00000  Uiso   1.00
H1435  H     0.65587   0.69819   0.80698   0.00000  Uiso   1.00
H1436  H     0.37057   0.67928   0.78932   0.00000  Uiso   1.00
H1437  H     0.34323   0.71579   0.74788   0.00000  Uiso   1.00
H1438  H     0.61460   0.92722   0.82206   0.00000  Uiso   1.00
H1439  H     0.34415   0.96845   0.85967   0.00000  Uiso   1.00
H1440  H     0.65675   0.95088   0.91875   0.00000  Uiso   1.00
H1441  H     0.62946   0.98739   0.87727   0.00000  Uiso   1.00
H1442  H     0.63997   0.78024   0.73063   0.00000  Uiso   1.00
N1443  N     0.50000   0.95069   0.83333   0.00000  Uiso   1.00
N1444  N     0.50000   0.71598   0.83333   0.00000  Uiso   1.00
N1445  N     0.37041   0.74888   0.81192   0.00000  Uiso   1.00
N1446  N     0.62960   0.91779   0.85469   0.00000  Uiso   1.00
N1447  N     0.62317   0.77867   0.76158   0.00000  Uiso   1.00
N1448  N     0.37680   0.88796   0.90511   0.00000  Uiso   1.00
O1449  O     0.43988   0.87291   0.83333   0.00000  Uiso   1.00
O1450  O     0.56012   0.79375   0.83334   0.00000  Uiso   1.00
O1451  O     0.56012   0.87291   0.83334   0.00000  Uiso   1.00
O1452  O     0.43988   0.79375   0.83333   0.00000  Uiso   1.00
O1453  O     0.50000   0.87292   0.76280   0.00000  Uiso   1.00
O1454  O     0.50000   0.79375   0.90387   0.00000  Uiso   1.00
O1455  O     0.50000   0.87292   0.90387   0.00000  Uiso   1.00
O1456  O     0.50000   0.79375   0.76280   0.00000  Uiso   1.00
Br1457 Br    0.77751   0.71894   0.74723   0.00000  Uiso   1.00
Br1458 Br    0.88917   0.94772   0.91942   0.00000  Uiso   1.00
Br1459 Br    0.89538   0.72614   0.91339   0.00000  Uiso   1.00
Br1460 Br    0.77128   0.94053   0.75328   0.00000  Uiso   1.00
C1461  C     0.75414   0.83243   0.83605   0.00000  Uiso   1.00
C1462  C     0.69045   0.86816   0.86079   0.00000  Uiso   1.00
C1463  C     0.95751   0.83607   0.82808   0.00000  Uiso   1.00
C1464  C     0.70916   0.83059   0.83857   0.00000  Uiso   1.00
C1465  C     0.80947   0.68988   0.79912   0.00000  Uiso   1.00
C1466  C     0.85720   0.97679   0.86755   0.00000  Uiso   1.00
C1467  C     0.85781   0.69277   0.86698   0.00000  Uiso   1.00
C1468  C     0.80886   0.97389   0.79969   0.00000  Uiso   1.00
C1469  C     0.68327   0.70897   0.78750   0.00000  Uiso   1.00
C1470  C     0.98340   0.95769   0.87912   0.00000  Uiso   1.00
C1471  C     0.92770   0.73928   0.76324   0.00000  Uiso   1.00
C1472  C     0.91252   0.83424   0.83061   0.00000  Uiso   1.00
C1473  C     0.73896   0.92734   0.90349   0.00000  Uiso   1.00
C1474  C     0.83327   0.83317   0.74030   0.00000  Uiso   1.00
C1475  C     0.83340   0.83350   0.92636   0.00000  Uiso   1.00
C1476  C     0.83331   0.83310   0.68854   0.00000  Uiso   1.00
C1477  C     0.83335   0.83356   0.97812   0.00000  Uiso   1.00
C1478  C     0.68523   0.79307   0.81607   0.00000  Uiso   1.00
C1479  C     0.98143   0.87358   0.85058   0.00000  Uiso   1.00
C1480  C     0.97621   0.79849   0.80587   0.00000  Uiso   1.00
Cu1481 Cu    0.83333   0.88022   0.83333   0.00000  Uiso   1.00
Cu1482 Cu    0.83333   0.78645   0.83333   0.00000  Uiso   1.00
H1483  H     0.71878   0.73944   0.84452   0.00000  Uiso   1.00
H1484  H     0.93730   0.71049   0.73958   0.00000  Uiso   1.00
H1485  H     0.89723   0.74934   0.74807   0.00000  Uiso   1.00
H1486  H     0.92529   0.72619   0.80126   0.00000  Uiso   1.00
H1487  H     0.69331   0.88639   0.93604   0.00000  Uiso   1.00
H1488  H     0.72936   0.95611   0.92718   0.00000  Uiso   1.00
H1489  H     0.74138   0.94046   0.86549   0.00000  Uiso   1.00
H1490  H     0.76942   0.91725   0.91865   0.00000  Uiso   1.00
H1491  H     0.98920   0.69819   0.80698   0.00000  Uiso   1.00
H1492  H     0.70390   0.67928   0.78932   0.00000  Uiso   1.00
H1493  H     0.67657   0.71579   0.74788   0.00000  Uiso   1.00
H1494  H     0.94793   0.92722   0.82206   0.00000  Uiso   1.00
H1495  H     0.67749   0.96845   0.85967   0.00000  Uiso   1.00
H1496  H     0.99008   0.95088   0.91875   0.00000  Uiso   1.00
H1497  H     0.96279   0.98739   0.87727   0.00000  Uiso   1.00
H1498  H     0.97331   0.78024   0.73063   0.00000  Uiso   1.00
N1499  N     0.83333   0.95069   0.83333   0.00000  Uiso   1.00
N1500  N     0.83333   0.71598   0.83333   0.00000  Uiso   1.00
N1501  N     0.70374   0.74888   0.81192   0.00000  Uiso   1.00
N1502  N     0.96293   0.91779   0.85469   0.00000  Uiso   1.00
N1503  N     0.95651   0.77867   0.76158   0.00000  Uiso   1.00
N1504  N     0.71014   0.88796   0.90511   0.00000  Uiso   1.00
O1505  O     0.77321   0.87291   0.83333   0.00000  Uiso   1.00
O1506  O     0.89345   0.79375   0.83334   0.00000  Uiso   1.00
O1507  O     0.89345   0.87291   0.83334   0.00000  Uiso   1.00
O1508  O     0.77321   0.79375   0.83333   0.00000  Uiso   1.00
O1509  O     0.83333   0.87292   0.76280   0.00000  Uiso   1.00
O1510  O     0.83333   0.79375   0.90387   0.00000  Uiso   1.00
O1511  O     0.83333   0.87292   0.90387   0.00000  Uiso   1.00
O1512  O     0.83333   0.79375   0.76280   0.00000  Uiso   1.00
loop_
_geom_bond_atom_site_label_1
_geom_bond_atom_site_label_2
_geom_bond_distance
_geom_bond_site_symmetry_2
_ccdc_geom_bond_type
Br1    C9      1.924   .     S
Br2    C10     1.924   .     S
Br3    C11     1.930   .     S
Br4    C12     1.930   .     S
C5     C8      1.476   .     S
C5     O52     1.302   .     A
C5     O49     1.308   .     A
C6     N48     1.433   .     S
C6     C8      1.411   .     A
C6     C135    1.412   1_455 S
C7     C23     1.422   .     A
C7     C24     1.411   .     A
C7     C16     1.476   .     S
C8     C22     1.422   .     A
C9     N44     1.376   .     A
C9     C348    1.423   1_545 S
C10    N43     1.376   .     A
C10    C179    1.423   .     S
C11    N44     1.376   .     A
C11    C346    1.423   1_545 S
C12    N43     1.376   .     A
C12    C177    1.423   .     S
C13    H37     1.107   .     S
C13    N45     1.444   .     S
C13    H36     1.110   .     S
C13    H147    1.104   1_455 S
C14    N46     1.444   .     S
C14    H41     1.110   .     S
C14    H40     1.107   .     S
C14    H95     1.104   .     S
C15    H28     1.110   .     S
C15    H30     1.110   .     S
C15    H29     1.107   .     S
C15    N47     1.452   .     S
C16    O51     1.302   .     A
C16    O50     1.308   .     A
C17    N48     1.452   .     S
C17    H33     1.110   .     S
C17    H34     1.107   .     S
C17    H32     1.110   .     S
C18    O56     1.297   .     A
C18    C20     1.406   .     S
C18    O53     1.293   .     A
C19    O54     1.293   .     A
C19    C21     1.406   .     S
C19    O55     1.297   .     A
C20    C1029   1.189   1_554 S
C21    C524    1.189   .     S
C22    N45     1.438   .     S
C22    C136    1.412   1_455 S
C23    N46     1.438   .     S
C23    C62     1.412   .     S
C24    N47     1.433   .     S
C24    C78     1.412   .     S
Cu25   O51     1.986   .     S
Cu25   Cu26    2.706   .     S
Cu25   N43     2.033   .     S
Cu25   O53     1.925   .     S
Cu25   O55     1.930   .     S
Cu25   O49     1.970   .     S
Cu26   O52     1.986   .     S
Cu26   N44     2.033   .     S
Cu26   O54     1.925   .     S
Cu26   O50     1.970   .     S
Cu26   O56     1.930   .     S
H27    N45     1.032   .     S
H31    N48     1.031   .     S
H35    C69     1.104   .     S
H38    N46     1.032   .     S
H39    C126    1.104   1_455 S
H42    N47     1.031   .     S
Br57   C65     1.924   .     S
Br58   C66     1.924   .     S
Br59   C67     1.930   .     S
Br60   C68     1.930   .     S
C61    C64     1.476   .     S
C61    O108    1.302   .     A
C61    O105    1.308   .     A
C62    N104    1.433   .     S
C62    C64     1.411   .     A
C63    C79     1.422   .     A
C63    C80     1.411   .     A
C63    C72     1.476   .     S
C64    C78     1.422   .     A
C65    N100    1.376   .     A
C65    C404    1.423   1_545 S
C66    N99     1.376   .     A
C66    C235    1.423   .     S
C67    N100    1.376   .     A
C67    C402    1.423   1_545 S
C68    N99     1.376   .     A
C68    C233    1.423   .     S
C69    H93     1.107   .     S
C69    N101    1.444   .     S
C69    H92     1.110   .     S
C70    N102    1.444   .     S
C70    H97     1.110   .     S
C70    H96     1.107   .     S
C70    H151    1.104   .     S
C71    H84     1.110   .     S
C71    H86     1.110   .     S
C71    H85     1.107   .     S
C71    N103    1.452   .     S
C72    O107    1.302   .     A
C72    O106    1.308   .     A
C73    N104    1.452   .     S
C73    H89     1.110   .     S
C73    H90     1.107   .     S
C73    H88     1.110   .     S
C74    O112    1.297   .     A
C74    C76     1.406   .     S
C74    O109    1.293   .     A
C75    O110    1.293   .     A
C75    C77     1.406   .     S
C75    O111    1.297   .     A
C76    C1085   1.189   1_554 S
C77    C580    1.189   .     S
C78    N101    1.438   .     S
C79    N102    1.438   .     S
C79    C118    1.412   .     S
C80    N103    1.433   .     S
C80    C134    1.412   .     S
Cu81   O107    1.986   .     S
Cu81   Cu82    2.706   .     S
Cu81   N99     2.033   .     S
Cu81   O109    1.925   .     S
Cu81   O111    1.930   .     S
Cu81   O105    1.970   .     S
Cu82   O108    1.986   .     S
Cu82   N100    2.033   .     S
Cu82   O110    1.925   .     S
Cu82   O106    1.970   .     S
Cu82   O112    1.930   .     S
H83    N101    1.032   .     S
H87    N104    1.031   .     S
H91    C125    1.104   .     S
H94    N102    1.032   .     S
H98    N103    1.031   .     S
Br113  C121    1.924   .     S
Br114  C122    1.924   .     S
Br115  C123    1.930   .     S
Br116  C124    1.930   .     S
C117   C120    1.476   .     S
C117   O164    1.302   .     A
C117   O161    1.308   .     A
C118   N160    1.433   .     S
C118   C120    1.411   .     A
C119   C135    1.422   .     A
C119   C136    1.411   .     A
C119   C128    1.476   .     S
C120   C134    1.422   .     A
C121   N156    1.376   .     A
C121   C460    1.423   1_545 S
C122   N155    1.376   .     A
C122   C291    1.423   .     S
C123   N156    1.376   .     A
C123   C458    1.423   1_545 S
C124   N155    1.376   .     A
C124   C289    1.423   .     S
C125   H149    1.107   .     S
C125   N157    1.444   .     S
C125   H148    1.110   .     S
C126   N158    1.444   .     S
C126   H153    1.110   .     S
C126   H152    1.107   .     S
C126   H39     1.104   1_655 S
C127   H140    1.110   .     S
C127   H142    1.110   .     S
C127   H141    1.107   .     S
C127   N159    1.452   .     S
C128   O163    1.302   .     A
C128   O162    1.308   .     A
C129   N160    1.452   .     S
C129   H145    1.110   .     S
C129   H146    1.107   .     S
C129   H144    1.110   .     S
C130   O168    1.297   .     A
C130   C132    1.406   .     S
C130   O165    1.293   .     A
C131   O166    1.293   .     A
C131   C133    1.406   .     S
C131   O167    1.297   .     A
C132   C1141   1.189   1_554 S
C133   C636    1.189   .     S
C134   N157    1.438   .     S
C135   N158    1.438   .     S
C135   C6      1.412   1_655 S
C136   N159    1.433   .     S
C136   C22     1.412   1_655 S
Cu137  O163    1.986   .     S
Cu137  Cu138   2.706   .     S
Cu137  N155    2.033   .     S
Cu137  O165    1.925   .     S
Cu137  O167    1.930   .     S
Cu137  O161    1.970   .     S
Cu138  O164    1.986   .     S
Cu138  N156    2.033   .     S
Cu138  O166    1.925   .     S
Cu138  O162    1.970   .     S
Cu138  O168    1.930   .     S
H139   N157    1.032   .     S
H143   N160    1.031   .     S
H147   C13     1.104   1_655 S
H150   N158    1.032   .     S
H154   N159    1.031   .     S
Br169  C177    1.924   .     S
Br170  C178    1.924   .     S
Br171  C179    1.930   .     S
Br172  C180    1.930   .     S
C173   C176    1.476   .     S
C173   O220    1.302   .     A
C173   O217    1.308   .     A
C174   N216    1.433   .     S
C174   C176    1.411   .     A
C174   C303    1.412   1_455 S
C175   C191    1.422   .     A
C175   C192    1.411   .     A
C175   C184    1.476   .     S
C176   C190    1.422   .     A
C177   N212    1.376   .     A
C178   N211    1.376   .     A
C178   C347    1.423   .     S
C179   N212    1.376   .     A
C180   N211    1.376   .     A
C180   C345    1.423   .     S
C181   H205    1.107   .     S
C181   N213    1.444   .     S
C181   H204    1.110   .     S
C181   H315    1.104   1_455 S
C182   N214    1.444   .     S
C182   H209    1.110   .     S
C182   H208    1.107   .     S
C182   H263    1.104   .     S
C183   H196    1.110   .     S
C183   H198    1.110   .     S
C183   H197    1.107   .     S
C183   N215    1.452   .     S
C184   O219    1.302   .     A
C184   O218    1.308   .     A
C185   N216    1.452   .     S
C185   H201    1.110   .     S
C185   H202    1.107   .     S
C185   H200    1.110   .     S
C186   O224    1.297   .     A
C186   C188    1.406   .     S
C186   O221    1.293   .     A
C187   O222    1.293   .     A
C187   C189    1.406   .     S
C187   O223    1.297   .     A
C188   C1197   1.189   1_554 S
C189   C692    1.189   .     S
C190   N213    1.438   .     S
C190   C304    1.412   1_455 S
C191   N214    1.438   .     S
C191   C230    1.412   .     S
C192   N215    1.433   .     S
C192   C246    1.412   .     S
Cu193  O219    1.986   .     S
Cu193  Cu194   2.706   .     S
Cu193  N211    2.033   .     S
Cu193  O221    1.925   .     S
Cu193  O223    1.930   .     S
Cu193  O217    1.970   .     S
Cu194  O220    1.986   .     S
Cu194  N212    2.033   .     S
Cu194  O222    1.925   .     S
Cu194  O218    1.970   .     S
Cu194  O224    1.930   .     S
H195   N213    1.032   .     S
H199   N216    1.031   .     S
H203   C237    1.104   .     S
H206   N214    1.032   .     S
H207   C294    1.104   1_455 S
H210   N215    1.031   .     S
Br225  C233    1.924   .     S
Br226  C234    1.924   .     S
Br227  C235    1.930   .     S
Br228  C236    1.930   .     S
C229   C232    1.476   .     S
C229   O276    1.302   .     A
C229   O273    1.308   .     A
C230   N272    1.433   .     S
C230   C232    1.411   .     A
C231   C247    1.422   .     A
C231   C248    1.411   .     A
C231   C240    1.476   .     S
C232   C246    1.422   .     A
C233   N268    1.376   .     A
C234   N267    1.376   .     A
C234   C403    1.423   .     S
C235   N268    1.376   .     A
C236   N267    1.376   .     A
C236   C401    1.423   .     S
C237   H261    1.107   .     S
C237   N269    1.444   .     S
C237   H260    1.110   .     S
C238   N270    1.444   .     S
C238   H265    1.110   .     S
C238   H264    1.107   .     S
C238   H319    1.104   .     S
C239   H252    1.110   .     S
C239   H254    1.110   .     S
C239   H253    1.107   .     S
C239   N271    1.452   .     S
C240   O275    1.302   .     A
C240   O274    1.308   .     A
C241   N272    1.452   .     S
C241   H257    1.110   .     S
C241   H258    1.107   .     S
C241   H256    1.110   .     S
C242   O280    1.297   .     A
C242   C244    1.406   .     S
C242   O277    1.293   .     A
C243   O278    1.293   .     A
C243   C245    1.406   .     S
C243   O279    1.297   .     A
C244   C1253   1.189   1_554 S
C245   C748    1.189   .     S
C246   N269    1.438   .     S
C247   N270    1.438   .     S
C247   C286    1.412   .     S
C248   N271    1.433   .     S
C248   C302    1.412   .     S
Cu249  O275    1.986   .     S
Cu249  Cu250   2.706   .     S
Cu249  N267    2.033   .     S
Cu249  O277    1.925   .     S
Cu249  O279    1.930   .     S
Cu249  O273    1.970   .     S
Cu250  O276    1.986   .     S
Cu250  N268    2.033   .     S
Cu250  O278    1.925   .     S
Cu250  O274    1.970   .     S
Cu250  O280    1.930   .     S
H251   N269    1.032   .     S
H255   N272    1.031   .     S
H259   C293    1.104   .     S
H262   N270    1.032   .     S
H266   N271    1.031   .     S
Br281  C289    1.924   .     S
Br282  C290    1.924   .     S
Br283  C291    1.930   .     S
Br284  C292    1.930   .     S
C285   C288    1.476   .     S
C285   O332    1.302   .     A
C285   O329    1.308   .     A
C286   N328    1.433   .     S
C286   C288    1.411   .     A
C287   C303    1.422   .     A
C287   C304    1.411   .     A
C287   C296    1.476   .     S
C288   C302    1.422   .     A
C289   N324    1.376   .     A
C290   N323    1.376   .     A
C290   C459    1.423   .     S
C291   N324    1.376   .     A
C292   N323    1.376   .     A
C292   C457    1.423   .     S
C293   H317    1.107   .     S
C293   N325    1.444   .     S
C293   H316    1.110   .     S
C294   N326    1.444   .     S
C294   H321    1.110   .     S
C294   H320    1.107   .     S
C294   H207    1.104   1_655 S
C295   H308    1.110   .     S
C295   H310    1.110   .     S
C295   H309    1.107   .     S
C295   N327    1.452   .     S
C296   O331    1.302   .     A
C296   O330    1.308   .     A
C297   N328    1.452   .     S
C297   H313    1.110   .     S
C297   H314    1.107   .     S
C297   H312    1.110   .     S
C298   O336    1.297   .     A
C298   C300    1.406   .     S
C298   O333    1.293   .     A
C299   O334    1.293   .     A
C299   C301    1.406   .     S
C299   O335    1.297   .     A
C300   C1309   1.189   1_554 S
C301   C804    1.189   .     S
C302   N325    1.438   .     S
C303   N326    1.438   .     S
C303   C174    1.412   1_655 S
C304   N327    1.433   .     S
C304   C190    1.412   1_655 S
Cu305  O331    1.986   .     S
Cu305  Cu306   2.706   .     S
Cu305  N323    2.033   .     S
Cu305  O333    1.925   .     S
Cu305  O335    1.930   .     S
Cu305  O329    1.970   .     S
Cu306  O332    1.986   .     S
Cu306  N324    2.033   .     S
Cu306  O334    1.925   .     S
Cu306  O330    1.970   .     S
Cu306  O336    1.930   .     S
H307   N325    1.032   .     S
H311   N328    1.031   .     S
H315   C181    1.104   1_655 S
H318   N326    1.032   .     S
H322   N327    1.031   .     S
Br337  C345    1.924   .     S
Br338  C346    1.924   .     S
Br339  C347    1.930   .     S
Br340  C348    1.930   .     S
C341   C344    1.476   .     S
C341   O388    1.302   .     A
C341   O385    1.308   .     A
C342   N384    1.433   .     S
C342   C344    1.411   .     A
C342   C471    1.412   1_455 S
C343   C359    1.422   .     A
C343   C360    1.411   .     A
C343   C352    1.476   .     S
C344   C358    1.422   .     A
C345   N380    1.376   .     A
C346   N379    1.376   .     A
C346   C11     1.423   1_565 S
C347   N380    1.376   .     A
C348   N379    1.376   .     A
C348   C9      1.423   1_565 S
C349   H373    1.107   .     S
C349   N381    1.444   .     S
C349   H372    1.110   .     S
C349   H483    1.104   1_455 S
C350   N382    1.444   .     S
C350   H377    1.110   .     S
C350   H376    1.107   .     S
C350   H431    1.104   .     S
C351   H364    1.110   .     S
C351   H366    1.110   .     S
C351   H365    1.107   .     S
C351   N383    1.452   .     S
C352   O387    1.302   .     A
C352   O386    1.308   .     A
C353   N384    1.452   .     S
C353   H369    1.110   .     S
C353   H370    1.107   .     S
C353   H368    1.110   .     S
C354   O392    1.297   .     A
C354   C356    1.406   .     S
C354   O389    1.293   .     A
C355   O390    1.293   .     A
C355   C357    1.406   .     S
C355   O391    1.297   .     A
C356   C1365   1.189   1_554 S
C357   C860    1.189   .     S
C358   N381    1.438   .     S
C358   C472    1.412   1_455 S
C359   N382    1.438   .     S
C359   C398    1.412   .     S
C360   N383    1.433   .     S
C360   C414    1.412   .     S
Cu361  O387    1.986   .     S
Cu361  Cu362   2.706   .     S
Cu361  N379    2.033   .     S
Cu361  O389    1.925   .     S
Cu361  O391    1.930   .     S
Cu361  O385    1.970   .     S
Cu362  O388    1.986   .     S
Cu362  N380    2.033   .     S
Cu362  O390    1.925   .     S
Cu362  O386    1.970   .     S
Cu362  O392    1.930   .     S
H363   N381    1.032   .     S
H367   N384    1.031   .     S
H371   C405    1.104   .     S
H374   N382    1.032   .     S
H375   C462    1.104   1_455 S
H378   N383    1.031   .     S
Br393  C401    1.924   .     S
Br394  C402    1.924   .     S
Br395  C403    1.930   .     S
Br396  C404    1.930   .     S
C397   C400    1.476   .     S
C397   O444    1.302   .     A
C397   O441    1.308   .     A
C398   N440    1.433   .     S
C398   C400    1.411   .     A
C399   C415    1.422   .     A
C399   C416    1.411   .     A
C399   C408    1.476   .     S
C400   C414    1.422   .     A
C401   N436    1.376   .     A
C402   N435    1.376   .     A
C402   C67     1.423   1_565 S
C403   N436    1.376   .     A
C404   N435    1.376   .     A
C404   C65     1.423   1_565 S
C405   H429    1.107   .     S
C405   N437    1.444   .     S
C405   H428    1.110   .     S
C406   N438    1.444   .     S
C406   H433    1.110   .     S
C406   H432    1.107   .     S
C406   H487    1.104   .     S
C407   H420    1.110   .     S
C407   H422    1.110   .     S
C407   H421    1.107   .     S
C407   N439    1.452   .     S
C408   O443    1.302   .     A
C408   O442    1.308   .     A
C409   N440    1.452   .     S
C409   H425    1.110   .     S
C409   H426    1.107   .     S
C409   H424    1.110   .     S
C410   O448    1.297   .     A
C410   C412    1.406   .     S
C410   O445    1.293   .     A
C411   O446    1.293   .     A
C411   C413    1.406   .     S
C411   O447    1.297   .     A
C412   C1421   1.189   1_554 S
C413   C916    1.189   .     S
C414   N437    1.438   .     S
C415   N438    1.438   .     S
C415   C454    1.412   .     S
C416   N439    1.433   .     S
C416   C470    1.412   .     S
Cu417  O443    1.986   .     S
Cu417  Cu418   2.706   .     S
Cu417  N435    2.033   .     S
Cu417  O445    1.925   .     S
Cu417  O447    1.930   .     S
Cu417  O441    1.970   .     S
Cu418  O444    1.986   .     S
Cu418  N436    2.033   .     S
Cu418  O446    1.925   .     S
Cu418  O442    1.970   .     S
Cu418  O448    1.930   .     S
H419   N437    1.032   .     S
H423   N440    1.031   .     S
H427   C461    1.104   .     S
H430   N438    1.032   .     S
H434   N439    1.031   .     S
Br449  C457    1.924   .     S
Br450  C458    1.924   .     S
Br451  C459    1.930   .     S
Br452  C460    1.930   .     S
C453   C456    1.476   .     S
C453   O500    1.302   .     A
C453   O497    1.308   .     A
C454   N496    1.433   .     S
C454   C456    1.411   .     A
C455   C471    1.422   .     A
C455   C472    1.411   .     A
C455   C464    1.476   .     S
C456   C470    1.422   .     A
C457   N492    1.376   .     A
C458   N491    1.376   .     A
C458   C123    1.423   1_565 S
C459   N492    1.376   .     A
C460   N491    1.376   .     A
C460   C121    1.423   1_565 S
C461   H485    1.107   .     S
C461   N493    1.444   .     S
C461   H484    1.110   .     S
C462   N494    1.444   .     S
C462   H489    1.110   .     S
C462   H488    1.107   .     S
C462   H375    1.104   1_655 S
C463   H476    1.110   .     S
C463   H478    1.110   .     S
C463   H477    1.107   .     S
C463   N495    1.452   .     S
C464   O499    1.302   .     A
C464   O498    1.308   .     A
C465   N496    1.452   .     S
C465   H481    1.110   .     S
C465   H482    1.107   .     S
C465   H480    1.110   .     S
C466   O504    1.297   .     A
C466   C468    1.406   .     S
C466   O501    1.293   .     A
C467   O502    1.293   .     A
C467   C469    1.406   .     S
C467   O503    1.297   .     A
C468   C1477   1.189   1_554 S
C469   C972    1.189   .     S
C470   N493    1.438   .     S
C471   N494    1.438   .     S
C471   C342    1.412   1_655 S
C472   N495    1.433   .     S
C472   C358    1.412   1_655 S
Cu473  O499    1.986   .     S
Cu473  Cu474   2.706   .     S
Cu473  N491    2.033   .     S
Cu473  O501    1.925   .     S
Cu473  O503    1.930   .     S
Cu473  O497    1.970   .     S
Cu474  O500    1.986   .     S
Cu474  N492    2.033   .     S
Cu474  O502    1.925   .     S
Cu474  O498    1.970   .     S
Cu474  O504    1.930   .     S
H475   N493    1.032   .     S
H479   N496    1.031   .     S
H483   C349    1.104   1_655 S
H486   N494    1.032   .     S
H490   N495    1.031   .     S
Br505  C513    1.924   .     S
Br506  C514    1.924   .     S
Br507  C515    1.930   .     S
Br508  C516    1.930   .     S
C509   C512    1.476   .     S
C509   O556    1.302   .     A
C509   O553    1.308   .     A
C510   N552    1.433   .     S
C510   C512    1.411   .     A
C510   C639    1.412   1_455 S
C511   C527    1.422   .     A
C511   C528    1.411   .     A
C511   C520    1.476   .     S
C512   C526    1.422   .     A
C513   N548    1.376   .     A
C513   C852    1.423   1_545 S
C514   N547    1.376   .     A
C514   C683    1.423   .     S
C515   N548    1.376   .     A
C515   C850    1.423   1_545 S
C516   N547    1.376   .     A
C516   C681    1.423   .     S
C517   H541    1.107   .     S
C517   N549    1.444   .     S
C517   H540    1.110   .     S
C517   H651    1.104   1_455 S
C518   N550    1.444   .     S
C518   H545    1.110   .     S
C518   H544    1.107   .     S
C518   H599    1.104   .     S
C519   H532    1.110   .     S
C519   H534    1.110   .     S
C519   H533    1.107   .     S
C519   N551    1.452   .     S
C520   O555    1.302   .     A
C520   O554    1.308   .     A
C521   N552    1.452   .     S
C521   H537    1.110   .     S
C521   H538    1.107   .     S
C521   H536    1.110   .     S
C522   O560    1.297   .     A
C522   C524    1.406   .     S
C522   O557    1.293   .     A
C523   O558    1.293   .     A
C523   C525    1.406   .     S
C523   O559    1.297   .     A
C525   C1028   1.189   .     S
C526   N549    1.438   .     S
C526   C640    1.412   1_455 S
C527   N550    1.438   .     S
C527   C566    1.412   .     S
C528   N551    1.433   .     S
C528   C582    1.412   .     S
Cu529  O555    1.986   .     S
Cu529  Cu530   2.706   .     S
Cu529  N547    2.033   .     S
Cu529  O557    1.925   .     S
Cu529  O559    1.930   .     S
Cu529  O553    1.970   .     S
Cu530  O556    1.986   .     S
Cu530  N548    2.033   .     S
Cu530  O558    1.925   .     S
Cu530  O554    1.970   .     S
Cu530  O560    1.930   .     S
H531   N549    1.032   .     S
H535   N552    1.031   .     S
H539   C573    1.104   .     S
H542   N550    1.032   .     S
H543   C630    1.104   1_455 S
H546   N551    1.031   .     S
Br561  C569    1.924   .     S
Br562  C570    1.924   .     S
Br563  C571    1.930   .     S
Br564  C572    1.930   .     S
C565   C568    1.476   .     S
C565   O612    1.302   .     A
C565   O609    1.308   .     A
C566   N608    1.433   .     S
C566   C568    1.411   .     A
C567   C583    1.422   .     A
C567   C584    1.411   .     A
C567   C576    1.476   .     S
C568   C582    1.422   .     A
C569   N604    1.376   .     A
C569   C908    1.423   1_545 S
C570   N603    1.376   .     A
C570   C739    1.423   .     S
C571   N604    1.376   .     A
C571   C906    1.423   1_545 S
C572   N603    1.376   .     A
C572   C737    1.423   .     S
C573   H597    1.107   .     S
C573   N605    1.444   .     S
C573   H596    1.110   .     S
C574   N606    1.444   .     S
C574   H601    1.110   .     S
C574   H600    1.107   .     S
C574   H655    1.104   .     S
C575   H588    1.110   .     S
C575   H590    1.110   .     S
C575   H589    1.107   .     S
C575   N607    1.452   .     S
C576   O611    1.302   .     A
C576   O610    1.308   .     A
C577   N608    1.452   .     S
C577   H593    1.110   .     S
C577   H594    1.107   .     S
C577   H592    1.110   .     S
C578   O616    1.297   .     A
C578   C580    1.406   .     S
C578   O613    1.293   .     A
C579   O614    1.293   .     A
C579   C581    1.406   .     S
C579   O615    1.297   .     A
C581   C1084   1.189   .     S
C582   N605    1.438   .     S
C583   N606    1.438   .     S
C583   C622    1.412   .     S
C584   N607    1.433   .     S
C584   C638    1.412   .     S
Cu585  O611    1.986   .     S
Cu585  Cu586   2.706   .     S
Cu585  N603    2.033   .     S
Cu585  O613    1.925   .     S
Cu585  O615    1.930   .     S
Cu585  O609    1.970   .     S
Cu586  O612    1.986   .     S
Cu586  N604    2.033   .     S
Cu586  O614    1.925   .     S
Cu586  O610    1.970   .     S
Cu586  O616    1.930   .     S
H587   N605    1.032   .     S
H591   N608    1.031   .     S
H595   C629    1.104   .     S
H598   N606    1.032   .     S
H602   N607    1.031   .     S
Br617  C625    1.924   .     S
Br618  C626    1.924   .     S
Br619  C627    1.930   .     S
Br620  C628    1.930   .     S
C621   C624    1.476   .     S
C621   O668    1.302   .     A
C621   O665    1.308   .     A
C622   N664    1.433   .     S
C622   C624    1.411   .     A
C623   C639    1.422   .     A
C623   C640    1.411   .     A
C623   C632    1.476   .     S
C624   C638    1.422   .     A
C625   N660    1.376   .     A
C625   C964    1.423   1_545 S
C626   N659    1.376   .     A
C626   C795    1.423   .     S
C627   N660    1.376   .     A
C627   C962    1.423   1_545 S
C628   N659    1.376   .     A
C628   C793    1.423   .     S
C629   H653    1.107   .     S
C629   N661    1.444   .     S
C629   H652    1.110   .     S
C630   N662    1.444   .     S
C630   H657    1.110   .     S
C630   H656    1.107   .     S
C630   H543    1.104   1_655 S
C631   H644    1.110   .     S
C631   H646    1.110   .     S
C631   H645    1.107   .     S
C631   N663    1.452   .     S
C632   O667    1.302   .     A
C632   O666    1.308   .     A
C633   N664    1.452   .     S
C633   H649    1.110   .     S
C633   H650    1.107   .     S
C633   H648    1.110   .     S
C634   O672    1.297   .     A
C634   C636    1.406   .     S
C634   O669    1.293   .     A
C635   O670    1.293   .     A
C635   C637    1.406   .     S
C635   O671    1.297   .     A
C637   C1140   1.189   .     S
C638   N661    1.438   .     S
C639   N662    1.438   .     S
C639   C510    1.412   1_655 S
C640   N663    1.433   .     S
C640   C526    1.412   1_655 S
Cu641  O667    1.986   .     S
Cu641  Cu642   2.706   .     S
Cu641  N659    2.033   .     S
Cu641  O669    1.925   .     S
Cu641  O671    1.930   .     S
Cu641  O665    1.970   .     S
Cu642  O668    1.986   .     S
Cu642  N660    2.033   .     S
Cu642  O670    1.925   .     S
Cu642  O666    1.970   .     S
Cu642  O672    1.930   .     S
H643   N661    1.032   .     S
H647   N664    1.031   .     S
H651   C517    1.104   1_655 S
H654   N662    1.032   .     S
H658   N663    1.031   .     S
Br673  C681    1.924   .     S
Br674  C682    1.924   .     S
Br675  C683    1.930   .     S
Br676  C684    1.930   .     S
C677   C680    1.476   .     S
C677   O724    1.302   .     A
C677   O721    1.308   .     A
C678   N720    1.433   .     S
C678   C680    1.411   .     A
C678   C807    1.412   1_455 S
C679   C695    1.422   .     A
C679   C696    1.411   .     A
C679   C688    1.476   .     S
C680   C694    1.422   .     A
C681   N716    1.376   .     A
C682   N715    1.376   .     A
C682   C851    1.423   .     S
C683   N716    1.376   .     A
C684   N715    1.376   .     A
C684   C849    1.423   .     S
C685   H709    1.107   .     S
C685   N717    1.444   .     S
C685   H708    1.110   .     S
C685   H819    1.104   1_455 S
C686   N718    1.444   .     S
C686   H713    1.110   .     S
C686   H712    1.107   .     S
C686   H767    1.104   .     S
C687   H700    1.110   .     S
C687   H702    1.110   .     S
C687   H701    1.107   .     S
C687   N719    1.452   .     S
C688   O723    1.302   .     A
C688   O722    1.308   .     A
C689   N720    1.452   .     S
C689   H705    1.110   .     S
C689   H706    1.107   .     S
C689   H704    1.110   .     S
C690   O728    1.297   .     A
C690   C692    1.406   .     S
C690   O725    1.293   .     A
C691   O726    1.293   .     A
C691   C693    1.406   .     S
C691   O727    1.297   .     A
C693   C1196   1.189   .     S
C694   N717    1.438   .     S
C694   C808    1.412   1_455 S
C695   N718    1.438   .     S
C695   C734    1.412   .     S
C696   N719    1.433   .     S
C696   C750    1.412   .     S
Cu697  O723    1.986   .     S
Cu697  Cu698   2.706   .     S
Cu697  N715    2.033   .     S
Cu697  O725    1.925   .     S
Cu697  O727    1.930   .     S
Cu697  O721    1.970   .     S
Cu698  O724    1.986   .     S
Cu698  N716    2.033   .     S
Cu698  O726    1.925   .     S
Cu698  O722    1.970   .     S
Cu698  O728    1.930   .     S
H699   N717    1.032   .     S
H703   N720    1.031   .     S
H707   C741    1.104   .     S
H710   N718    1.032   .     S
H711   C798    1.104   1_455 S
H714   N719    1.031   .     S
Br729  C737    1.924   .     S
Br730  C738    1.924   .     S
Br731  C739    1.930   .     S
Br732  C740    1.930   .     S
C733   C736    1.476   .     S
C733   O780    1.302   .     A
C733   O777    1.308   .     A
C734   N776    1.433   .     S
C734   C736    1.411   .     A
C735   C751    1.422   .     A
C735   C752    1.411   .     A
C735   C744    1.476   .     S
C736   C750    1.422   .     A
C737   N772    1.376   .     A
C738   N771    1.376   .     A
C738   C907    1.423   .     S
C739   N772    1.376   .     A
C740   N771    1.376   .     A
C740   C905    1.423   .     S
C741   H765    1.107   .     S
C741   N773    1.444   .     S
C741   H764    1.110   .     S
C742   N774    1.444   .     S
C742   H769    1.110   .     S
C742   H768    1.107   .     S
C742   H823    1.104   .     S
C743   H756    1.110   .     S
C743   H758    1.110   .     S
C743   H757    1.107   .     S
C743   N775    1.452   .     S
C744   O779    1.302   .     A
C744   O778    1.308   .     A
C745   N776    1.452   .     S
C745   H761    1.110   .     S
C745   H762    1.107   .     S
C745   H760    1.110   .     S
C746   O784    1.297   .     A
C746   C748    1.406   .     S
C746   O781    1.293   .     A
C747   O782    1.293   .     A
C747   C749    1.406   .     S
C747   O783    1.297   .     A
C749   C1252   1.189   .     S
C750   N773    1.438   .     S
C751   N774    1.438   .     S
C751   C790    1.412   .     S
C752   N775    1.433   .     S
C752   C806    1.412   .     S
Cu753  O779    1.986   .     S
Cu753  Cu754   2.706   .     S
Cu753  N771    2.033   .     S
Cu753  O781    1.925   .     S
Cu753  O783    1.930   .     S
Cu753  O777    1.970   .     S
Cu754  O780    1.986   .     S
Cu754  N772    2.033   .     S
Cu754  O782    1.925   .     S
Cu754  O778    1.970   .     S
Cu754  O784    1.930   .     S
H755   N773    1.032   .     S
H759   N776    1.031   .     S
H763   C797    1.104   .     S
H766   N774    1.032   .     S
H770   N775    1.031   .     S
Br785  C793    1.924   .     S
Br786  C794    1.924   .     S
Br787  C795    1.930   .     S
Br788  C796    1.930   .     S
C789   C792    1.476   .     S
C789   O836    1.302   .     A
C789   O833    1.308   .     A
C790   N832    1.433   .     S
C790   C792    1.411   .     A
C791   C807    1.422   .     A
C791   C808    1.411   .     A
C791   C800    1.476   .     S
C792   C806    1.422   .     A
C793   N828    1.376   .     A
C794   N827    1.376   .     A
C794   C963    1.423   .     S
C795   N828    1.376   .     A
C796   N827    1.376   .     A
C796   C961    1.423   .     S
C797   H821    1.107   .     S
C797   N829    1.444   .     S
C797   H820    1.110   .     S
C798   N830    1.444   .     S
C798   H825    1.110   .     S
C798   H824    1.107   .     S
C798   H711    1.104   1_655 S
C799   H812    1.110   .     S
C799   H814    1.110   .     S
C799   H813    1.107   .     S
C799   N831    1.452   .     S
C800   O835    1.302   .     A
C800   O834    1.308   .     A
C801   N832    1.452   .     S
C801   H817    1.110   .     S
C801   H818    1.107   .     S
C801   H816    1.110   .     S
C802   O840    1.297   .     A
C802   C804    1.406   .     S
C802   O837    1.293   .     A
C803   O838    1.293   .     A
C803   C805    1.406   .     S
C803   O839    1.297   .     A
C805   C1308   1.189   .     S
C806   N829    1.438   .     S
C807   N830    1.438   .     S
C807   C678    1.412   1_655 S
C808   N831    1.433   .     S
C808   C694    1.412   1_655 S
Cu809  O835    1.986   .     S
Cu809  Cu810   2.706   .     S
Cu809  N827    2.033   .     S
Cu809  O837    1.925   .     S
Cu809  O839    1.930   .     S
Cu809  O833    1.970   .     S
Cu810  O836    1.986   .     S
Cu810  N828    2.033   .     S
Cu810  O838    1.925   .     S
Cu810  O834    1.970   .     S
Cu810  O840    1.930   .     S
H811   N829    1.032   .     S
H815   N832    1.031   .     S
H819   C685    1.104   1_655 S
H822   N830    1.032   .     S
H826   N831    1.031   .     S
Br841  C849    1.924   .     S
Br842  C850    1.924   .     S
Br843  C851    1.930   .     S
Br844  C852    1.930   .     S
C845   C848    1.476   .     S
C845   O892    1.302   .     A
C845   O889    1.308   .     A
C846   N888    1.433   .     S
C846   C848    1.411   .     A
C846   C975    1.412   1_455 S
C847   C863    1.422   .     A
C847   C864    1.411   .     A
C847   C856    1.476   .     S
C848   C862    1.422   .     A
C849   N884    1.376   .     A
C850   N883    1.376   .     A
C850   C515    1.423   1_565 S
C851   N884    1.376   .     A
C852   N883    1.376   .     A
C852   C513    1.423   1_565 S
C853   H877    1.107   .     S
C853   N885    1.444   .     S
C853   H876    1.110   .     S
C853   H987    1.104   1_455 S
C854   N886    1.444   .     S
C854   H881    1.110   .     S
C854   H880    1.107   .     S
C854   H935    1.104   .     S
C855   H868    1.110   .     S
C855   H870    1.110   .     S
C855   H869    1.107   .     S
C855   N887    1.452   .     S
C856   O891    1.302   .     A
C856   O890    1.308   .     A
C857   N888    1.452   .     S
C857   H873    1.110   .     S
C857   H874    1.107   .     S
C857   H872    1.110   .     S
C858   O896    1.297   .     A
C858   C860    1.406   .     S
C858   O893    1.293   .     A
C859   O894    1.293   .     A
C859   C861    1.406   .     S
C859   O895    1.297   .     A
C861   C1364   1.189   .     S
C862   N885    1.438   .     S
C862   C976    1.412   1_455 S
C863   N886    1.438   .     S
C863   C902    1.412   .     S
C864   N887    1.433   .     S
C864   C918    1.412   .     S
Cu865  O891    1.986   .     S
Cu865  Cu866   2.706   .     S
Cu865  N883    2.033   .     S
Cu865  O893    1.925   .     S
Cu865  O895    1.930   .     S
Cu865  O889    1.970   .     S
Cu866  O892    1.986   .     S
Cu866  N884    2.033   .     S
Cu866  O894    1.925   .     S
Cu866  O890    1.970   .     S
Cu866  O896    1.930   .     S
H867   N885    1.032   .     S
H871   N888    1.031   .     S
H875   C909    1.104   .     S
H878   N886    1.032   .     S
H879   C966    1.104   1_455 S
H882   N887    1.031   .     S
Br897  C905    1.924   .     S
Br898  C906    1.924   .     S
Br899  C907    1.930   .     S
Br900  C908    1.930   .     S
C901   C904    1.476   .     S
C901   O948    1.302   .     A
C901   O945    1.308   .     A
C902   N944    1.433   .     S
C902   C904    1.411   .     A
C903   C919    1.422   .     A
C903   C920    1.411   .     A
C903   C912    1.476   .     S
C904   C918    1.422   .     A
C905   N940    1.376   .     A
C906   N939    1.376   .     A
C906   C571    1.423   1_565 S
C907   N940    1.376   .     A
C908   N939    1.376   .     A
C908   C569    1.423   1_565 S
C909   H933    1.107   .     S
C909   N941    1.444   .     S
C909   H932    1.110   .     S
C910   N942    1.444   .     S
C910   H937    1.110   .     S
C910   H936    1.107   .     S
C910   H991    1.104   .     S
C911   H924    1.110   .     S
C911   H926    1.110   .     S
C911   H925    1.107   .     S
C911   N943    1.452   .     S
C912   O947    1.302   .     A
C912   O946    1.308   .     A
C913   N944    1.452   .     S
C913   H929    1.110   .     S
C913   H930    1.107   .     S
C913   H928    1.110   .     S
C914   O952    1.297   .     A
C914   C916    1.406   .     S
C914   O949    1.293   .     A
C915   O950    1.293   .     A
C915   C917    1.406   .     S
C915   O951    1.297   .     A
C917   C1420   1.189   .     S
C918   N941    1.438   .     S
C919   N942    1.438   .     S
C919   C958    1.412   .     S
C920   N943    1.433   .     S
C920   C974    1.412   .     S
Cu921  O947    1.986   .     S
Cu921  Cu922   2.706   .     S
Cu921  N939    2.033   .     S
Cu921  O949    1.925   .     S
Cu921  O951    1.930   .     S
Cu921  O945    1.970   .     S
Cu922  O948    1.986   .     S
Cu922  N940    2.033   .     S
Cu922  O950    1.925   .     S
Cu922  O946    1.970   .     S
Cu922  O952    1.930   .     S
H923   N941    1.032   .     S
H927   N944    1.031   .     S
H931   C965    1.104   .     S
H934   N942    1.032   .     S
H938   N943    1.031   .     S
Br953  C961    1.924   .     S
Br954  C962    1.924   .     S
Br955  C963    1.930   .     S
Br956  C964    1.930   .     S
C957   C960    1.476   .     S
C957   O1004   1.302   .     A
C957   O1001   1.308   .     A
C958   N1000   1.433   .     S
C958   C960    1.411   .     A
C959   C975    1.422   .     A
C959   C976    1.411   .     A
C959   C968    1.476   .     S
C960   C974    1.422   .     A
C961   N996    1.376   .     A
C962   N995    1.376   .     A
C962   C627    1.423   1_565 S
C963   N996    1.376   .     A
C964   N995    1.376   .     A
C964   C625    1.423   1_565 S
C965   H989    1.107   .     S
C965   N997    1.444   .     S
C965   H988    1.110   .     S
C966   N998    1.444   .     S
C966   H993    1.110   .     S
C966   H992    1.107   .     S
C966   H879    1.104   1_655 S
C967   H980    1.110   .     S
C967   H982    1.110   .     S
C967   H981    1.107   .     S
C967   N999    1.452   .     S
C968   O1003   1.302   .     A
C968   O1002   1.308   .     A
C969   N1000   1.452   .     S
C969   H985    1.110   .     S
C969   H986    1.107   .     S
C969   H984    1.110   .     S
C970   O1008   1.297   .     A
C970   C972    1.406   .     S
C970   O1005   1.293   .     A
C971   O1006   1.293   .     A
C971   C973    1.406   .     S
C971   O1007   1.297   .     A
C973   C1476   1.189   .     S
C974   N997    1.438   .     S
C975   N998    1.438   .     S
C975   C846    1.412   1_655 S
C976   N999    1.433   .     S
C976   C862    1.412   1_655 S
Cu977  O1003   1.986   .     S
Cu977  Cu978   2.706   .     S
Cu977  N995    2.033   .     S
Cu977  O1005   1.925   .     S
Cu977  O1007   1.930   .     S
Cu977  O1001   1.970   .     S
Cu978  O1004   1.986   .     S
Cu978  N996    2.033   .     S
Cu978  O1006   1.925   .     S
Cu978  O1002   1.970   .     S
Cu978  O1008   1.930   .     S
H979   N997    1.032   .     S
H983   N1000   1.031   .     S
H987   C853    1.104   1_655 S
H990   N998    1.032   .     S
H994   N999    1.031   .     S
Br1009 C1017   1.924   .     S
Br1010 C1018   1.924   .     S
Br1011 C1019   1.930   .     S
Br1012 C1020   1.930   .     S
C1013  C1016   1.476   .     S
C1013  O1060   1.302   .     A
C1013  O1057   1.308   .     A
C1014  N1056   1.433   .     S
C1014  C1016   1.411   .     A
C1014  C1143   1.412   1_455 S
C1015  C1031   1.422   .     A
C1015  C1032   1.411   .     A
C1015  C1024   1.476   .     S
C1016  C1030   1.422   .     A
C1017  N1052   1.376   .     A
C1017  C1356   1.423   1_545 S
C1018  N1051   1.376   .     A
C1018  C1187   1.423   .     S
C1019  N1052   1.376   .     A
C1019  C1354   1.423   1_545 S
C1020  N1051   1.376   .     A
C1020  C1185   1.423   .     S
C1021  H1045   1.107   .     S
C1021  N1053   1.444   .     S
C1021  H1044   1.110   .     S
C1021  H1155   1.104   1_455 S
C1022  N1054   1.444   .     S
C1022  H1049   1.110   .     S
C1022  H1048   1.107   .     S
C1022  H1103   1.104   .     S
C1023  H1036   1.110   .     S
C1023  H1038   1.110   .     S
C1023  H1037   1.107   .     S
C1023  N1055   1.452   .     S
C1024  O1059   1.302   .     A
C1024  O1058   1.308   .     A
C1025  N1056   1.452   .     S
C1025  H1041   1.110   .     S
C1025  H1042   1.107   .     S
C1025  H1040   1.110   .     S
C1026  O1064   1.297   .     A
C1026  C1028   1.406   .     S
C1026  O1061   1.293   .     A
C1027  O1062   1.293   .     A
C1027  C1029   1.406   .     S
C1027  O1063   1.297   .     A
C1029  C20     1.189   1_556 S
C1030  N1053   1.438   .     S
C1030  C1144   1.412   1_455 S
C1031  N1054   1.438   .     S
C1031  C1070   1.412   .     S
C1032  N1055   1.433   .     S
C1032  C1086   1.412   .     S
Cu1033 O1059   1.986   .     S
Cu1033 Cu1034  2.706   .     S
Cu1033 N1051   2.033   .     S
Cu1033 O1061   1.925   .     S
Cu1033 O1063   1.930   .     S
Cu1033 O1057   1.970   .     S
Cu1034 O1060   1.986   .     S
Cu1034 N1052   2.033   .     S
Cu1034 O1062   1.925   .     S
Cu1034 O1058   1.970   .     S
Cu1034 O1064   1.930   .     S
H1035  N1053   1.032   .     S
H1039  N1056   1.031   .     S
H1043  C1077   1.104   .     S
H1046  N1054   1.032   .     S
H1047  C1134   1.104   1_455 S
H1050  N1055   1.031   .     S
Br1065 C1073   1.924   .     S
Br1066 C1074   1.924   .     S
Br1067 C1075   1.930   .     S
Br1068 C1076   1.930   .     S
C1069  C1072   1.476   .     S
C1069  O1116   1.302   .     A
C1069  O1113   1.308   .     A
C1070  N1112   1.433   .     S
C1070  C1072   1.411   .     A
C1071  C1087   1.422   .     A
C1071  C1088   1.411   .     A
C1071  C1080   1.476   .     S
C1072  C1086   1.422   .     A
C1073  N1108   1.376   .     A
C1073  C1412   1.423   1_545 S
C1074  N1107   1.376   .     A
C1074  C1243   1.423   .     S
C1075  N1108   1.376   .     A
C1075  C1410   1.423   1_545 S
C1076  N1107   1.376   .     A
C1076  C1241   1.423   .     S
C1077  H1101   1.107   .     S
C1077  N1109   1.444   .     S
C1077  H1100   1.110   .     S
C1078  N1110   1.444   .     S
C1078  H1105   1.110   .     S
C1078  H1104   1.107   .     S
C1078  H1159   1.104   .     S
C1079  H1092   1.110   .     S
C1079  H1094   1.110   .     S
C1079  H1093   1.107   .     S
C1079  N1111   1.452   .     S
C1080  O1115   1.302   .     A
C1080  O1114   1.308   .     A
C1081  N1112   1.452   .     S
C1081  H1097   1.110   .     S
C1081  H1098   1.107   .     S
C1081  H1096   1.110   .     S
C1082  O1120   1.297   .     A
C1082  C1084   1.406   .     S
C1082  O1117   1.293   .     A
C1083  O1118   1.293   .     A
C1083  C1085   1.406   .     S
C1083  O1119   1.297   .     A
C1085  C76     1.189   1_556 S
C1086  N1109   1.438   .     S
C1087  N1110   1.438   .     S
C1087  C1126   1.412   .     S
C1088  N1111   1.433   .     S
C1088  C1142   1.412   .     S
Cu1089 O1115   1.986   .     S
Cu1089 Cu1090  2.706   .     S
Cu1089 N1107   2.033   .     S
Cu1089 O1117   1.925   .     S
Cu1089 O1119   1.930   .     S
Cu1089 O1113   1.970   .     S
Cu1090 O1116   1.986   .     S
Cu1090 N1108   2.033   .     S
Cu1090 O1118   1.925   .     S
Cu1090 O1114   1.970   .     S
Cu1090 O1120   1.930   .     S
H1091  N1109   1.032   .     S
H1095  N1112   1.031   .     S
H1099  C1133   1.104   .     S
H1102  N1110   1.032   .     S
H1106  N1111   1.031   .     S
Br1121 C1129   1.924   .     S
Br1122 C1130   1.924   .     S
Br1123 C1131   1.930   .     S
Br1124 C1132   1.930   .     S
C1125  C1128   1.476   .     S
C1125  O1172   1.302   .     A
C1125  O1169   1.308   .     A
C1126  N1168   1.433   .     S
C1126  C1128   1.411   .     A
C1127  C1143   1.422   .     A
C1127  C1144   1.411   .     A
C1127  C1136   1.476   .     S
C1128  C1142   1.422   .     A
C1129  N1164   1.376   .     A
C1129  C1468   1.423   1_545 S
C1130  N1163   1.376   .     A
C1130  C1299   1.423   .     S
C1131  N1164   1.376   .     A
C1131  C1466   1.423   1_545 S
C1132  N1163   1.376   .     A
C1132  C1297   1.423   .     S
C1133  H1157   1.107   .     S
C1133  N1165   1.444   .     S
C1133  H1156   1.110   .     S
C1134  N1166   1.444   .     S
C1134  H1161   1.110   .     S
C1134  H1160   1.107   .     S
C1134  H1047   1.104   1_655 S
C1135  H1148   1.110   .     S
C1135  H1150   1.110   .     S
C1135  H1149   1.107   .     S
C1135  N1167   1.452   .     S
C1136  O1171   1.302   .     A
C1136  O1170   1.308   .     A
C1137  N1168   1.452   .     S
C1137  H1153   1.110   .     S
C1137  H1154   1.107   .     S
C1137  H1152   1.110   .     S
C1138  O1176   1.297   .     A
C1138  C1140   1.406   .     S
C1138  O1173   1.293   .     A
C1139  O1174   1.293   .     A
C1139  C1141   1.406   .     S
C1139  O1175   1.297   .     A
C1141  C132    1.189   1_556 S
C1142  N1165   1.438   .     S
C1143  N1166   1.438   .     S
C1143  C1014   1.412   1_655 S
C1144  N1167   1.433   .     S
C1144  C1030   1.412   1_655 S
Cu1145 O1171   1.986   .     S
Cu1145 Cu1146  2.706   .     S
Cu1145 N1163   2.033   .     S
Cu1145 O1173   1.925   .     S
Cu1145 O1175   1.930   .     S
Cu1145 O1169   1.970   .     S
Cu1146 O1172   1.986   .     S
Cu1146 N1164   2.033   .     S
Cu1146 O1174   1.925   .     S
Cu1146 O1170   1.970   .     S
Cu1146 O1176   1.930   .     S
H1147  N1165   1.032   .     S
H1151  N1168   1.031   .     S
H1155  C1021   1.104   1_655 S
H1158  N1166   1.032   .     S
H1162  N1167   1.031   .     S
Br1177 C1185   1.924   .     S
Br1178 C1186   1.924   .     S
Br1179 C1187   1.930   .     S
Br1180 C1188   1.930   .     S
C1181  C1184   1.476   .     S
C1181  O1228   1.302   .     A
C1181  O1225   1.308   .     A
C1182  N1224   1.433   .     S
C1182  C1184   1.411   .     A
C1182  C1311   1.412   1_455 S
C1183  C1199   1.422   .     A
C1183  C1200   1.411   .     A
C1183  C1192   1.476   .     S
C1184  C1198   1.422   .     A
C1185  N1220   1.376   .     A
C1186  N1219   1.376   .     A
C1186  C1355   1.423   .     S
C1187  N1220   1.376   .     A
C1188  N1219   1.376   .     A
C1188  C1353   1.423   .     S
C1189  H1213   1.107   .     S
C1189  N1221   1.444   .     S
C1189  H1212   1.110   .     S
C1189  H1323   1.104   1_455 S
C1190  N1222   1.444   .     S
C1190  H1217   1.110   .     S
C1190  H1216   1.107   .     S
C1190  H1271   1.104   .     S
C1191  H1204   1.110   .     S
C1191  H1206   1.110   .     S
C1191  H1205   1.107   .     S
C1191  N1223   1.452   .     S
C1192  O1227   1.302   .     A
C1192  O1226   1.308   .     A
C1193  N1224   1.452   .     S
C1193  H1209   1.110   .     S
C1193  H1210   1.107   .     S
C1193  H1208   1.110   .     S
C1194  O1232   1.297   .     A
C1194  C1196   1.406   .     S
C1194  O1229   1.293   .     A
C1195  O1230   1.293   .     A
C1195  C1197   1.406   .     S
C1195  O1231   1.297   .     A
C1197  C188    1.189   1_556 S
C1198  N1221   1.438   .     S
C1198  C1312   1.412   1_455 S
C1199  N1222   1.438   .     S
C1199  C1238   1.412   .     S
C1200  N1223   1.433   .     S
C1200  C1254   1.412   .     S
Cu1201 O1227   1.986   .     S
Cu1201 Cu1202  2.706   .     S
Cu1201 N1219   2.033   .     S
Cu1201 O1229   1.925   .     S
Cu1201 O1231   1.930   .     S
Cu1201 O1225   1.970   .     S
Cu1202 O1228   1.986   .     S
Cu1202 N1220   2.033   .     S
Cu1202 O1230   1.925   .     S
Cu1202 O1226   1.970   .     S
Cu1202 O1232   1.930   .     S
H1203  N1221   1.032   .     S
H1207  N1224   1.031   .     S
H1211  C1245   1.104   .     S
H1214  N1222   1.032   .     S
H1215  C1302   1.104   1_455 S
H1218  N1223   1.031   .     S
Br1233 C1241   1.924   .     S
Br1234 C1242   1.924   .     S
Br1235 C1243   1.930   .     S
Br1236 C1244   1.930   .     S
C1237  C1240   1.476   .     S
C1237  O1284   1.302   .     A
C1237  O1281   1.308   .     A
C1238  N1280   1.433   .     S
C1238  C1240   1.411   .     A
C1239  C1255   1.422   .     A
C1239  C1256   1.411   .     A
C1239  C1248   1.476   .     S
C1240  C1254   1.422   .     A
C1241  N1276   1.376   .     A
C1242  N1275   1.376   .     A
C1242  C1411   1.423   .     S
C1243  N1276   1.376   .     A
C1244  N1275   1.376   .     A
C1244  C1409   1.423   .     S
C1245  H1269   1.107   .     S
C1245  N1277   1.444   .     S
C1245  H1268   1.110   .     S
C1246  N1278   1.444   .     S
C1246  H1273   1.110   .     S
C1246  H1272   1.107   .     S
C1246  H1327   1.104   .     S
C1247  H1260   1.110   .     S
C1247  H1262   1.110   .     S
C1247  H1261   1.107   .     S
C1247  N1279   1.452   .     S
C1248  O1283   1.302   .     A
C1248  O1282   1.308   .     A
C1249  N1280   1.452   .     S
C1249  H1265   1.110   .     S
C1249  H1266   1.107   .     S
C1249  H1264   1.110   .     S
C1250  O1288   1.297   .     A
C1250  C1252   1.406   .     S
C1250  O1285   1.293   .     A
C1251  O1286   1.293   .     A
C1251  C1253   1.406   .     S
C1251  O1287   1.297   .     A
C1253  C244    1.189   1_556 S
C1254  N1277   1.438   .     S
C1255  N1278   1.438   .     S
C1255  C1294   1.412   .     S
C1256  N1279   1.433   .     S
C1256  C1310   1.412   .     S
Cu1257 O1283   1.986   .     S
Cu1257 Cu1258  2.706   .     S
Cu1257 N1275   2.033   .     S
Cu1257 O1285   1.925   .     S
Cu1257 O1287   1.930   .     S
Cu1257 O1281   1.970   .     S
Cu1258 O1284   1.986   .     S
Cu1258 N1276   2.033   .     S
Cu1258 O1286   1.925   .     S
Cu1258 O1282   1.970   .     S
Cu1258 O1288   1.930   .     S
H1259  N1277   1.032   .     S
H1263  N1280   1.031   .     S
H1267  C1301   1.104   .     S
H1270  N1278   1.032   .     S
H1274  N1279   1.031   .     S
Br1289 C1297   1.924   .     S
Br1290 C1298   1.924   .     S
Br1291 C1299   1.930   .     S
Br1292 C1300   1.930   .     S
C1293  C1296   1.476   .     S
C1293  O1340   1.302   .     A
C1293  O1337   1.308   .     A
C1294  N1336   1.433   .     S
C1294  C1296   1.411   .     A
C1295  C1311   1.422   .     A
C1295  C1312   1.411   .     A
C1295  C1304   1.476   .     S
C1296  C1310   1.422   .     A
C1297  N1332   1.376   .     A
C1298  N1331   1.376   .     A
C1298  C1467   1.423   .     S
C1299  N1332   1.376   .     A
C1300  N1331   1.376   .     A
C1300  C1465   1.423   .     S
C1301  H1325   1.107   .     S
C1301  N1333   1.444   .     S
C1301  H1324   1.110   .     S
C1302  N1334   1.444   .     S
C1302  H1329   1.110   .     S
C1302  H1328   1.107   .     S
C1302  H1215   1.104   1_655 S
C1303  H1316   1.110   .     S
C1303  H1318   1.110   .     S
C1303  H1317   1.107   .     S
C1303  N1335   1.452   .     S
C1304  O1339   1.302   .     A
C1304  O1338   1.308   .     A
C1305  N1336   1.452   .     S
C1305  H1321   1.110   .     S
C1305  H1322   1.107   .     S
C1305  H1320   1.110   .     S
C1306  O1344   1.297   .     A
C1306  C1308   1.406   .     S
C1306  O1341   1.293   .     A
C1307  O1342   1.293   .     A
C1307  C1309   1.406   .     S
C1307  O1343   1.297   .     A
C1309  C300    1.189   1_556 S
C1310  N1333   1.438   .     S
C1311  N1334   1.438   .     S
C1311  C1182   1.412   1_655 S
C1312  N1335   1.433   .     S
C1312  C1198   1.412   1_655 S
Cu1313 O1339   1.986   .     S
Cu1313 Cu1314  2.706   .     S
Cu1313 N1331   2.033   .     S
Cu1313 O1341   1.925   .     S
Cu1313 O1343   1.930   .     S
Cu1313 O1337   1.970   .     S
Cu1314 O1340   1.986   .     S
Cu1314 N1332   2.033   .     S
Cu1314 O1342   1.925   .     S
Cu1314 O1338   1.970   .     S
Cu1314 O1344   1.930   .     S
H1315  N1333   1.032   .     S
H1319  N1336   1.031   .     S
H1323  C1189   1.104   1_655 S
H1326  N1334   1.032   .     S
H1330  N1335   1.031   .     S
Br1345 C1353   1.924   .     S
Br1346 C1354   1.924   .     S
Br1347 C1355   1.930   .     S
Br1348 C1356   1.930   .     S
C1349  C1352   1.476   .     S
C1349  O1396   1.302   .     A
C1349  O1393   1.308   .     A
C1350  N1392   1.433   .     S
C1350  C1352   1.411   .     A
C1350  C1479   1.412   1_455 S
C1351  C1367   1.422   .     A
C1351  C1368   1.411   .     A
C1351  C1360   1.476   .     S
C1352  C1366   1.422   .     A
C1353  N1388   1.376   .     A
C1354  N1387   1.376   .     A
C1354  C1019   1.423   1_565 S
C1355  N1388   1.376   .     A
C1356  N1387   1.376   .     A
C1356  C1017   1.423   1_565 S
C1357  H1381   1.107   .     S
C1357  N1389   1.444   .     S
C1357  H1380   1.110   .     S
C1357  H1491   1.104   1_455 S
C1358  N1390   1.444   .     S
C1358  H1385   1.110   .     S
C1358  H1384   1.107   .     S
C1358  H1439   1.104   .     S
C1359  H1372   1.110   .     S
C1359  H1374   1.110   .     S
C1359  H1373   1.107   .     S
C1359  N1391   1.452   .     S
C1360  O1395   1.302   .     A
C1360  O1394   1.308   .     A
C1361  N1392   1.452   .     S
C1361  H1377   1.110   .     S
C1361  H1378   1.107   .     S
C1361  H1376   1.110   .     S
C1362  O1400   1.297   .     A
C1362  C1364   1.406   .     S
C1362  O1397   1.293   .     A
C1363  O1398   1.293   .     A
C1363  C1365   1.406   .     S
C1363  O1399   1.297   .     A
C1365  C356    1.189   1_556 S
C1366  N1389   1.438   .     S
C1366  C1480   1.412   1_455 S
C1367  N1390   1.438   .     S
C1367  C1406   1.412   .     S
C1368  N1391   1.433   .     S
C1368  C1422   1.412   .     S
Cu1369 O1395   1.986   .     S
Cu1369 Cu1370  2.706   .     S
Cu1369 N1387   2.033   .     S
Cu1369 O1397   1.925   .     S
Cu1369 O1399   1.930   .     S
Cu1369 O1393   1.970   .     S
Cu1370 O1396   1.986   .     S
Cu1370 N1388   2.033   .     S
Cu1370 O1398   1.925   .     S
Cu1370 O1394   1.970   .     S
Cu1370 O1400   1.930   .     S
H1371  N1389   1.032   .     S
H1375  N1392   1.031   .     S
H1379  C1413   1.104   .     S
H1382  N1390   1.032   .     S
H1383  C1470   1.104   1_455 S
H1386  N1391   1.031   .     S
Br1401 C1409   1.924   .     S
Br1402 C1410   1.924   .     S
Br1403 C1411   1.930   .     S
Br1404 C1412   1.930   .     S
C1405  C1408   1.476   .     S
C1405  O1452   1.302   .     A
C1405  O1449   1.308   .     A
C1406  N1448   1.433   .     S
C1406  C1408   1.411   .     A
C1407  C1423   1.422   .     A
C1407  C1424   1.411   .     A
C1407  C1416   1.476   .     S
C1408  C1422   1.422   .     A
C1409  N1444   1.376   .     A
C1410  N1443   1.376   .     A
C1410  C1075   1.423   1_565 S
C1411  N1444   1.376   .     A
C1412  N1443   1.376   .     A
C1412  C1073   1.423   1_565 S
C1413  H1437   1.107   .     S
C1413  N1445   1.444   .     S
C1413  H1436   1.110   .     S
C1414  N1446   1.444   .     S
C1414  H1441   1.110   .     S
C1414  H1440   1.107   .     S
C1414  H1495   1.104   .     S
C1415  H1428   1.110   .     S
C1415  H1430   1.110   .     S
C1415  H1429   1.107   .     S
C1415  N1447   1.452   .     S
C1416  O1451   1.302   .     A
C1416  O1450   1.308   .     A
C1417  N1448   1.452   .     S
C1417  H1433   1.110   .     S
C1417  H1434   1.107   .     S
C1417  H1432   1.110   .     S
C1418  O1456   1.297   .     A
C1418  C1420   1.406   .     S
C1418  O1453   1.293   .     A
C1419  O1454   1.293   .     A
C1419  C1421   1.406   .     S
C1419  O1455   1.297   .     A
C1421  C412    1.189   1_556 S
C1422  N1445   1.438   .     S
C1423  N1446   1.438   .     S
C1423  C1462   1.412   .     S
C1424  N1447   1.433   .     S
C1424  C1478   1.412   .     S
Cu1425 O1451   1.986   .     S
Cu1425 Cu1426  2.706   .     S
Cu1425 N1443   2.033   .     S
Cu1425 O1453   1.925   .     S
Cu1425 O1455   1.930   .     S
Cu1425 O1449   1.970   .     S
Cu1426 O1452   1.986   .     S
Cu1426 N1444   2.033   .     S
Cu1426 O1454   1.925   .     S
Cu1426 O1450   1.970   .     S
Cu1426 O1456   1.930   .     S
H1427  N1445   1.032   .     S
H1431  N1448   1.031   .     S
H1435  C1469   1.104   .     S
H1438  N1446   1.032   .     S
H1442  N1447   1.031   .     S
Br1457 C1465   1.924   .     S
Br1458 C1466   1.924   .     S
Br1459 C1467   1.930   .     S
Br1460 C1468   1.930   .     S
C1461  C1464   1.476   .     S
C1461  O1508   1.302   .     A
C1461  O1505   1.308   .     A
C1462  N1504   1.433   .     S
C1462  C1464   1.411   .     A
C1463  C1479   1.422   .     A
C1463  C1480   1.411   .     A
C1463  C1472   1.476   .     S
C1464  C1478   1.422   .     A
C1465  N1500   1.376   .     A
C1466  N1499   1.376   .     A
C1466  C1131   1.423   1_565 S
C1467  N1500   1.376   .     A
C1468  N1499   1.376   .     A
C1468  C1129   1.423   1_565 S
C1469  H1493   1.107   .     S
C1469  N1501   1.444   .     S
C1469  H1492   1.110   .     S
C1470  N1502   1.444   .     S
C1470  H1497   1.110   .     S
C1470  H1496   1.107   .     S
C1470  H1383   1.104   1_655 S
C1471  H1484   1.110   .     S
C1471  H1486   1.110   .     S
C1471  H1485   1.107   .     S
C1471  N1503   1.452   .     S
C1472  O1507   1.302   .     A
C1472  O1506   1.308   .     A
C1473  N1504   1.452   .     S
C1473  H1489   1.110   .     S
C1473  H1490   1.107   .     S
C1473  H1488   1.110   .     S
C1474  O1512   1.297   .     A
C1474  C1476   1.406   .     S
C1474  O1509   1.293   .     A
C1475  O1510   1.293   .     A
C1475  C1477   1.406   .     S
C1475  O1511   1.297   .     A
C1477  C468    1.189   1_556 S
C1478  N1501   1.438   .     S
C1479  N1502   1.438   .     S
C1479  C1350   1.412   1_655 S
C1480  N1503   1.433   .     S
C1480  C1366   1.412   1_655 S
Cu1481 O1507   1.986   .     S
Cu1481 Cu1482  2.706   .     S
Cu1481 N1499   2.033   .     S
Cu1481 O1509   1.925   .     S
Cu1481 O1511   1.930   .     S
Cu1481 O1505   1.970   .     S
Cu1482 O1508   1.986   .     S
Cu1482 N1500   2.033   .     S
Cu1482 O1510   1.925   .     S
Cu1482 O1506   1.970   .     S
Cu1482 O1512   1.930   .     S
H1483  N1501   1.032   .     S
H1487  N1504   1.031   .     S
H1491  C1357   1.104   1_655 S
H1494  N1502   1.032   .     S
H1498  N1503   1.031   .     S
