data_str_m2_o1_o18_pcu_sym.32
_audit_creation_date              2020-01-03
_audit_creation_method            'Materials Studio'
_symmetry_space_group_name_H-M    'P1'
_symmetry_Int_Tables_number       1
_symmetry_cell_setting            triclinic
loop_
_symmetry_equiv_pos_as_xyz
  x,y,z
_cell_length_a                    28.8068
_cell_length_b                    32.4524
_cell_length_c                    31.0333
_cell_angle_alpha                 88.0942
_cell_angle_beta                  73.3696
_cell_angle_gamma                 90.4249
loop_
_atom_site_label
_atom_site_type_symbol
_atom_site_fract_x
_atom_site_fract_y
_atom_site_fract_z
_atom_site_U_iso_or_equiv
_atom_site_adp_type
_atom_site_occupancy
C1     C     0.33314   0.08747   0.25025   0.00000  Uiso   1.00
C2     C     0.02852   0.02074   0.27227   0.00000  Uiso   1.00
C3     C     0.00046   0.29052   0.24945   0.00000  Uiso   1.00
C4     C     0.33305   0.04283   0.25025   0.00000  Uiso   1.00
C5     C     0.18221   0.13832   0.27633   0.00000  Uiso   1.00
C6     C     0.15145   0.19441   0.22301   0.00000  Uiso   1.00
C7     C     0.13264   0.13949   0.27688   0.00000  Uiso   1.00
C8     C     0.20056   0.19413   0.22357   0.00000  Uiso   1.00
C9     C     0.30575   0.16689   0.33624   0.00000  Uiso   1.00
C10    C     0.02749   0.16514   0.16407   0.00000  Uiso   1.00
C11    C     0.29057   0.16587   0.38600   0.00000  Uiso   1.00
C12    C     0.00024   0.24587   0.24965   0.00000  Uiso   1.00
C13    C     0.04288   0.15578   0.11612   0.00000  Uiso   1.00
C14    C     0.30986   0.17080   0.45694   0.00000  Uiso   1.00
C15    C     0.03213   0.11713   0.05401   0.00000  Uiso   1.00
C16    C     0.32475   0.17072   0.41011   0.00000  Uiso   1.00
C17    C     0.01379   0.13122   0.09748   0.00000  Uiso   1.00
C18    C     0.24147   0.15968   0.40984   0.00000  Uiso   1.00
C19    C     0.09019   0.16612   0.09080   0.00000  Uiso   1.00
C20    C     0.22698   0.15413   0.45703   0.00000  Uiso   1.00
C21    C     0.11143   0.14725   0.04981   0.00000  Uiso   1.00
C22    C     0.26094   0.16326   0.48078   0.00000  Uiso   1.00
C23    C     0.19648   0.15895   0.05096   0.00000  Uiso   1.00
C24    C     0.08094   0.12503   0.02973   0.00000  Uiso   1.00
C25    C     0.17874   0.14238   0.48139   0.00000  Uiso   1.00
C26    C     0.16186   0.15080   0.02770   0.00000  Uiso   1.00
C27    C     0.19648   0.10257   0.30197   0.00000  Uiso   1.00
C28    C     0.13990   0.22703   0.19207   0.00000  Uiso   1.00
C29    C     0.14809   0.11951   0.46216   0.00000  Uiso   1.00
C30    C     0.24523   0.16473   0.02779   0.00000  Uiso   1.00
C31    C     0.10016   0.11055   0.48628   0.00000  Uiso   1.00
C32    C     0.30471   0.02195   0.22773   0.00000  Uiso   1.00
C33    C     0.02899   0.31141   0.27178   0.00000  Uiso   1.00
C34    C     0.30507   0.31261   0.22734   0.00000  Uiso   1.00
Cu35   Cu    0.04689   0.16667   0.25000   0.00000  Uiso   1.00
Cu36   Cu    0.28645   0.16666   0.25000   0.00000  Uiso   1.00
F37    F     0.27671   0.17291   0.05175   0.00000  Uiso   1.00
F38    F     0.16569   0.10088   0.42236   0.00000  Uiso   1.00
F39    F     0.27787   0.04282   0.20493   0.00000  Uiso   1.00
F40    F     0.05617   0.29057   0.29425   0.00000  Uiso   1.00
F41    F     0.27849   0.29307   0.20422   0.00000  Uiso   1.00
F42    F     0.05514   0.04027   0.29537   0.00000  Uiso   1.00
F43    F     0.09974   0.11276   0.30388   0.00000  Uiso   1.00
F44    F     0.23325   0.22091   0.19635   0.00000  Uiso   1.00
F45    F     0.07269   0.08771   0.46662   0.00000  Uiso   1.00
F46    F     0.11367   0.19713   0.10476   0.00000  Uiso   1.00
F47    F     0.20729   0.16373   0.38762   0.00000  Uiso   1.00
F48    F     0.30129   0.12002   0.12159   0.00000  Uiso   1.00
F49    F     0.03916   0.17737   0.38856   0.00000  Uiso   1.00
F50    F     0.01028   0.17834   0.47869   0.00000  Uiso   1.00
F51    F     0.00246   0.09447   0.03659   0.00000  Uiso   1.00
F52    F     0.18485   0.15615   0.09658   0.00000  Uiso   1.00
H53    H     0.21143   0.07778   0.27847   0.00000  Uiso   1.00
H54    H     0.22226   0.11118   0.32026   0.00000  Uiso   1.00
H55    H     0.16496   0.08889   0.32819   0.00000  Uiso   1.00
H56    H     0.14391   0.25795   0.20501   0.00000  Uiso   1.00
H57    H     0.16585   0.22520   0.15797   0.00000  Uiso   1.00
H58    H     0.10401   0.22494   0.18722   0.00000  Uiso   1.00
N59    N     0.11736   0.16668   0.24999   0.00000  Uiso   1.00
N60    N     0.21597   0.16666   0.25001   0.00000  Uiso   1.00
O61    O     0.03958   0.10655   0.25000   0.00000  Uiso   1.00
O62    O     0.29375   0.22678   0.25000   0.00000  Uiso   1.00
O63    O     0.29372   0.10654   0.25001   0.00000  Uiso   1.00
O64    O     0.03961   0.22679   0.25000   0.00000  Uiso   1.00
O65    O     0.01852   0.16668   0.31491   0.00000  Uiso   1.00
O66    O     0.31481   0.16666   0.18509   0.00000  Uiso   1.00
O67    O     0.27267   0.16667   0.31492   0.00000  Uiso   1.00
O68    O     0.06067   0.16667   0.18508   0.00000  Uiso   1.00
C69    C     0.66647   0.08747   0.25025   0.00000  Uiso   1.00
C70    C     0.36185   0.02074   0.27227   0.00000  Uiso   1.00
C71    C     0.33380   0.29052   0.24945   0.00000  Uiso   1.00
C72    C     0.66638   0.04283   0.25025   0.00000  Uiso   1.00
C73    C     0.51555   0.13832   0.27633   0.00000  Uiso   1.00
C74    C     0.48479   0.19441   0.22301   0.00000  Uiso   1.00
C75    C     0.46597   0.13949   0.27688   0.00000  Uiso   1.00
C76    C     0.53389   0.19413   0.22357   0.00000  Uiso   1.00
C77    C     0.63908   0.16689   0.33624   0.00000  Uiso   1.00
C78    C     0.36082   0.16514   0.16407   0.00000  Uiso   1.00
C79    C     0.62391   0.16587   0.38600   0.00000  Uiso   1.00
C80    C     0.33357   0.24587   0.24965   0.00000  Uiso   1.00
C81    C     0.37622   0.15578   0.11612   0.00000  Uiso   1.00
C82    C     0.64319   0.17080   0.45694   0.00000  Uiso   1.00
C83    C     0.36547   0.11713   0.05401   0.00000  Uiso   1.00
C84    C     0.65809   0.17072   0.41011   0.00000  Uiso   1.00
C85    C     0.34713   0.13122   0.09748   0.00000  Uiso   1.00
C86    C     0.57480   0.15968   0.40984   0.00000  Uiso   1.00
C87    C     0.42353   0.16612   0.09080   0.00000  Uiso   1.00
C88    C     0.56031   0.15413   0.45703   0.00000  Uiso   1.00
C89    C     0.44476   0.14725   0.04981   0.00000  Uiso   1.00
C90    C     0.59427   0.16326   0.48078   0.00000  Uiso   1.00
C91    C     0.52982   0.15895   0.05096   0.00000  Uiso   1.00
C92    C     0.41428   0.12503   0.02973   0.00000  Uiso   1.00
C93    C     0.51207   0.14238   0.48139   0.00000  Uiso   1.00
C94    C     0.49519   0.15080   0.02770   0.00000  Uiso   1.00
C95    C     0.52981   0.10257   0.30197   0.00000  Uiso   1.00
C96    C     0.47323   0.22703   0.19207   0.00000  Uiso   1.00
C97    C     0.48142   0.11951   0.46216   0.00000  Uiso   1.00
C98    C     0.57857   0.16473   0.02779   0.00000  Uiso   1.00
C99    C     0.43349   0.11055   0.48628   0.00000  Uiso   1.00
C100   C     0.63804   0.02195   0.22773   0.00000  Uiso   1.00
C101   C     0.36233   0.31141   0.27178   0.00000  Uiso   1.00
C102   C     0.63841   0.31261   0.22734   0.00000  Uiso   1.00
Cu103  Cu    0.38022   0.16667   0.25000   0.00000  Uiso   1.00
Cu104  Cu    0.61978   0.16666   0.25000   0.00000  Uiso   1.00
F105   F     0.61004   0.17291   0.05175   0.00000  Uiso   1.00
F106   F     0.49903   0.10088   0.42236   0.00000  Uiso   1.00
F107   F     0.61121   0.04282   0.20493   0.00000  Uiso   1.00
F108   F     0.38950   0.29057   0.29425   0.00000  Uiso   1.00
F109   F     0.61183   0.29307   0.20422   0.00000  Uiso   1.00
F110   F     0.38847   0.04027   0.29537   0.00000  Uiso   1.00
F111   F     0.43307   0.11276   0.30388   0.00000  Uiso   1.00
F112   F     0.56658   0.22091   0.19635   0.00000  Uiso   1.00
F113   F     0.40602   0.08771   0.46662   0.00000  Uiso   1.00
F114   F     0.44700   0.19713   0.10476   0.00000  Uiso   1.00
F115   F     0.54062   0.16373   0.38762   0.00000  Uiso   1.00
F116   F     0.63462   0.12002   0.12159   0.00000  Uiso   1.00
F117   F     0.37249   0.17737   0.38856   0.00000  Uiso   1.00
F118   F     0.34362   0.17834   0.47869   0.00000  Uiso   1.00
F119   F     0.33579   0.09447   0.03659   0.00000  Uiso   1.00
F120   F     0.51818   0.15615   0.09658   0.00000  Uiso   1.00
H121   H     0.54476   0.07778   0.27847   0.00000  Uiso   1.00
H122   H     0.55560   0.11118   0.32026   0.00000  Uiso   1.00
H123   H     0.49829   0.08889   0.32819   0.00000  Uiso   1.00
H124   H     0.47725   0.25795   0.20501   0.00000  Uiso   1.00
H125   H     0.49919   0.22520   0.15797   0.00000  Uiso   1.00
H126   H     0.43734   0.22494   0.18722   0.00000  Uiso   1.00
N127   N     0.45069   0.16668   0.24999   0.00000  Uiso   1.00
N128   N     0.54931   0.16666   0.25001   0.00000  Uiso   1.00
O129   O     0.37291   0.10655   0.25000   0.00000  Uiso   1.00
O130   O     0.62709   0.22678   0.25000   0.00000  Uiso   1.00
O131   O     0.62706   0.10654   0.25001   0.00000  Uiso   1.00
O132   O     0.37294   0.22679   0.25000   0.00000  Uiso   1.00
O133   O     0.35186   0.16668   0.31491   0.00000  Uiso   1.00
O134   O     0.64814   0.16666   0.18509   0.00000  Uiso   1.00
O135   O     0.60600   0.16667   0.31492   0.00000  Uiso   1.00
O136   O     0.39400   0.16667   0.18508   0.00000  Uiso   1.00
C137   C     0.99980   0.08747   0.25025   0.00000  Uiso   1.00
C138   C     0.69519   0.02074   0.27227   0.00000  Uiso   1.00
C139   C     0.66713   0.29052   0.24945   0.00000  Uiso   1.00
C140   C     0.99971   0.04283   0.25025   0.00000  Uiso   1.00
C141   C     0.84888   0.13832   0.27633   0.00000  Uiso   1.00
C142   C     0.81812   0.19441   0.22301   0.00000  Uiso   1.00
C143   C     0.79931   0.13949   0.27688   0.00000  Uiso   1.00
C144   C     0.86722   0.19413   0.22357   0.00000  Uiso   1.00
C145   C     0.97241   0.16689   0.33624   0.00000  Uiso   1.00
C146   C     0.69415   0.16514   0.16407   0.00000  Uiso   1.00
C147   C     0.95724   0.16587   0.38600   0.00000  Uiso   1.00
C148   C     0.66691   0.24587   0.24965   0.00000  Uiso   1.00
C149   C     0.70955   0.15578   0.11612   0.00000  Uiso   1.00
C150   C     0.97653   0.17080   0.45694   0.00000  Uiso   1.00
C151   C     0.69880   0.11713   0.05401   0.00000  Uiso   1.00
C152   C     0.99142   0.17072   0.41011   0.00000  Uiso   1.00
C153   C     0.68046   0.13122   0.09748   0.00000  Uiso   1.00
C154   C     0.90813   0.15968   0.40984   0.00000  Uiso   1.00
C155   C     0.75686   0.16612   0.09080   0.00000  Uiso   1.00
C156   C     0.89364   0.15413   0.45703   0.00000  Uiso   1.00
C157   C     0.77809   0.14725   0.04981   0.00000  Uiso   1.00
C158   C     0.92761   0.16326   0.48078   0.00000  Uiso   1.00
C159   C     0.86315   0.15895   0.05096   0.00000  Uiso   1.00
C160   C     0.74761   0.12503   0.02973   0.00000  Uiso   1.00
C161   C     0.84540   0.14238   0.48139   0.00000  Uiso   1.00
C162   C     0.82853   0.15080   0.02770   0.00000  Uiso   1.00
C163   C     0.86315   0.10257   0.30197   0.00000  Uiso   1.00
C164   C     0.80657   0.22703   0.19207   0.00000  Uiso   1.00
C165   C     0.81475   0.11951   0.46216   0.00000  Uiso   1.00
C166   C     0.91190   0.16473   0.02779   0.00000  Uiso   1.00
C167   C     0.76683   0.11055   0.48628   0.00000  Uiso   1.00
C168   C     0.97137   0.02195   0.22773   0.00000  Uiso   1.00
C169   C     0.69566   0.31141   0.27178   0.00000  Uiso   1.00
C170   C     0.97174   0.31261   0.22734   0.00000  Uiso   1.00
Cu171  Cu    0.71355   0.16667   0.25000   0.00000  Uiso   1.00
Cu172  Cu    0.95311   0.16666   0.25000   0.00000  Uiso   1.00
F173   F     0.94337   0.17291   0.05175   0.00000  Uiso   1.00
F174   F     0.83236   0.10088   0.42236   0.00000  Uiso   1.00
F175   F     0.94454   0.04282   0.20493   0.00000  Uiso   1.00
F176   F     0.72283   0.29057   0.29425   0.00000  Uiso   1.00
F177   F     0.94516   0.29307   0.20422   0.00000  Uiso   1.00
F178   F     0.72180   0.04027   0.29537   0.00000  Uiso   1.00
F179   F     0.76640   0.11276   0.30388   0.00000  Uiso   1.00
F180   F     0.89992   0.22091   0.19635   0.00000  Uiso   1.00
F181   F     0.73936   0.08771   0.46662   0.00000  Uiso   1.00
F182   F     0.78033   0.19713   0.10476   0.00000  Uiso   1.00
F183   F     0.87396   0.16373   0.38762   0.00000  Uiso   1.00
F184   F     0.96796   0.12002   0.12159   0.00000  Uiso   1.00
F185   F     0.70582   0.17737   0.38856   0.00000  Uiso   1.00
F186   F     0.67695   0.17834   0.47869   0.00000  Uiso   1.00
F187   F     0.66913   0.09447   0.03659   0.00000  Uiso   1.00
F188   F     0.85151   0.15615   0.09658   0.00000  Uiso   1.00
H189   H     0.87809   0.07778   0.27847   0.00000  Uiso   1.00
H190   H     0.88893   0.11118   0.32026   0.00000  Uiso   1.00
H191   H     0.83163   0.08889   0.32819   0.00000  Uiso   1.00
H192   H     0.81058   0.25795   0.20501   0.00000  Uiso   1.00
H193   H     0.83252   0.22520   0.15797   0.00000  Uiso   1.00
H194   H     0.77068   0.22494   0.18722   0.00000  Uiso   1.00
N195   N     0.78403   0.16668   0.24999   0.00000  Uiso   1.00
N196   N     0.88264   0.16666   0.25001   0.00000  Uiso   1.00
O197   O     0.70625   0.10655   0.25000   0.00000  Uiso   1.00
O198   O     0.96042   0.22678   0.25000   0.00000  Uiso   1.00
O199   O     0.96039   0.10654   0.25001   0.00000  Uiso   1.00
O200   O     0.70628   0.22679   0.25000   0.00000  Uiso   1.00
O201   O     0.68519   0.16668   0.31491   0.00000  Uiso   1.00
O202   O     0.98148   0.16666   0.18509   0.00000  Uiso   1.00
O203   O     0.93933   0.16667   0.31492   0.00000  Uiso   1.00
O204   O     0.72733   0.16667   0.18508   0.00000  Uiso   1.00
C205   C     0.33314   0.42081   0.25025   0.00000  Uiso   1.00
C206   C     0.02852   0.35407   0.27227   0.00000  Uiso   1.00
C207   C     0.00046   0.62385   0.24945   0.00000  Uiso   1.00
C208   C     0.33305   0.37616   0.25025   0.00000  Uiso   1.00
C209   C     0.18221   0.47165   0.27633   0.00000  Uiso   1.00
C210   C     0.15145   0.52774   0.22301   0.00000  Uiso   1.00
C211   C     0.13264   0.47282   0.27688   0.00000  Uiso   1.00
C212   C     0.20056   0.52747   0.22357   0.00000  Uiso   1.00
C213   C     0.30575   0.50022   0.33624   0.00000  Uiso   1.00
C214   C     0.02749   0.49847   0.16407   0.00000  Uiso   1.00
C215   C     0.29057   0.49920   0.38600   0.00000  Uiso   1.00
C216   C     0.00024   0.57920   0.24965   0.00000  Uiso   1.00
C217   C     0.04288   0.48911   0.11612   0.00000  Uiso   1.00
C218   C     0.30986   0.50413   0.45694   0.00000  Uiso   1.00
C219   C     0.03213   0.45046   0.05401   0.00000  Uiso   1.00
C220   C     0.32475   0.50405   0.41011   0.00000  Uiso   1.00
C221   C     0.01379   0.46456   0.09748   0.00000  Uiso   1.00
C222   C     0.24147   0.49301   0.40984   0.00000  Uiso   1.00
C223   C     0.09019   0.49945   0.09080   0.00000  Uiso   1.00
C224   C     0.22698   0.48747   0.45703   0.00000  Uiso   1.00
C225   C     0.11143   0.48059   0.04981   0.00000  Uiso   1.00
C226   C     0.26094   0.49660   0.48078   0.00000  Uiso   1.00
C227   C     0.19648   0.49228   0.05096   0.00000  Uiso   1.00
C228   C     0.08094   0.45836   0.02973   0.00000  Uiso   1.00
C229   C     0.17874   0.47571   0.48139   0.00000  Uiso   1.00
C230   C     0.16186   0.48413   0.02770   0.00000  Uiso   1.00
C231   C     0.19648   0.43590   0.30197   0.00000  Uiso   1.00
C232   C     0.13990   0.56036   0.19207   0.00000  Uiso   1.00
C233   C     0.14809   0.45284   0.46216   0.00000  Uiso   1.00
C234   C     0.24523   0.49807   0.02779   0.00000  Uiso   1.00
C235   C     0.10016   0.44388   0.48628   0.00000  Uiso   1.00
C236   C     0.30471   0.35529   0.22773   0.00000  Uiso   1.00
C237   C     0.02899   0.64475   0.27178   0.00000  Uiso   1.00
C238   C     0.30507   0.64595   0.22734   0.00000  Uiso   1.00
Cu239  Cu    0.04689   0.50001   0.25000   0.00000  Uiso   1.00
Cu240  Cu    0.28645   0.49999   0.25000   0.00000  Uiso   1.00
F241   F     0.27671   0.50624   0.05175   0.00000  Uiso   1.00
F242   F     0.16569   0.43421   0.42236   0.00000  Uiso   1.00
F243   F     0.27787   0.37615   0.20493   0.00000  Uiso   1.00
F244   F     0.05617   0.62390   0.29425   0.00000  Uiso   1.00
F245   F     0.27849   0.62640   0.20422   0.00000  Uiso   1.00
F246   F     0.05514   0.37361   0.29537   0.00000  Uiso   1.00
F247   F     0.09974   0.44609   0.30388   0.00000  Uiso   1.00
F248   F     0.23325   0.55424   0.19635   0.00000  Uiso   1.00
F249   F     0.07269   0.42105   0.46662   0.00000  Uiso   1.00
F250   F     0.11367   0.53046   0.10476   0.00000  Uiso   1.00
F251   F     0.20729   0.49706   0.38762   0.00000  Uiso   1.00
F252   F     0.30129   0.45335   0.12159   0.00000  Uiso   1.00
F253   F     0.03916   0.51070   0.38856   0.00000  Uiso   1.00
F254   F     0.01028   0.51168   0.47869   0.00000  Uiso   1.00
F255   F     0.00246   0.42780   0.03659   0.00000  Uiso   1.00
F256   F     0.18485   0.48948   0.09658   0.00000  Uiso   1.00
H257   H     0.21143   0.41111   0.27847   0.00000  Uiso   1.00
H258   H     0.22226   0.44451   0.32026   0.00000  Uiso   1.00
H259   H     0.16496   0.42223   0.32819   0.00000  Uiso   1.00
H260   H     0.14391   0.59129   0.20501   0.00000  Uiso   1.00
H261   H     0.16585   0.55853   0.15797   0.00000  Uiso   1.00
H262   H     0.10401   0.55828   0.18722   0.00000  Uiso   1.00
N263   N     0.11736   0.50001   0.24999   0.00000  Uiso   1.00
N264   N     0.21597   0.49999   0.25001   0.00000  Uiso   1.00
O265   O     0.03958   0.43989   0.25000   0.00000  Uiso   1.00
O266   O     0.29375   0.56011   0.25000   0.00000  Uiso   1.00
O267   O     0.29372   0.43988   0.25001   0.00000  Uiso   1.00
O268   O     0.03961   0.56012   0.25000   0.00000  Uiso   1.00
O269   O     0.01852   0.50001   0.31491   0.00000  Uiso   1.00
O270   O     0.31481   0.49999   0.18509   0.00000  Uiso   1.00
O271   O     0.27267   0.50000   0.31492   0.00000  Uiso   1.00
O272   O     0.06067   0.50000   0.18508   0.00000  Uiso   1.00
C273   C     0.66647   0.42081   0.25025   0.00000  Uiso   1.00
C274   C     0.36185   0.35407   0.27227   0.00000  Uiso   1.00
C275   C     0.33380   0.62385   0.24945   0.00000  Uiso   1.00
C276   C     0.66638   0.37616   0.25025   0.00000  Uiso   1.00
C277   C     0.51555   0.47165   0.27633   0.00000  Uiso   1.00
C278   C     0.48479   0.52774   0.22301   0.00000  Uiso   1.00
C279   C     0.46597   0.47282   0.27688   0.00000  Uiso   1.00
C280   C     0.53389   0.52747   0.22357   0.00000  Uiso   1.00
C281   C     0.63908   0.50022   0.33624   0.00000  Uiso   1.00
C282   C     0.36082   0.49847   0.16407   0.00000  Uiso   1.00
C283   C     0.62391   0.49920   0.38600   0.00000  Uiso   1.00
C284   C     0.33357   0.57920   0.24965   0.00000  Uiso   1.00
C285   C     0.37622   0.48911   0.11612   0.00000  Uiso   1.00
C286   C     0.64319   0.50413   0.45694   0.00000  Uiso   1.00
C287   C     0.36547   0.45046   0.05401   0.00000  Uiso   1.00
C288   C     0.65809   0.50405   0.41011   0.00000  Uiso   1.00
C289   C     0.34713   0.46456   0.09748   0.00000  Uiso   1.00
C290   C     0.57480   0.49301   0.40984   0.00000  Uiso   1.00
C291   C     0.42353   0.49945   0.09080   0.00000  Uiso   1.00
C292   C     0.56031   0.48747   0.45703   0.00000  Uiso   1.00
C293   C     0.44476   0.48059   0.04981   0.00000  Uiso   1.00
C294   C     0.59427   0.49660   0.48078   0.00000  Uiso   1.00
C295   C     0.52982   0.49228   0.05096   0.00000  Uiso   1.00
C296   C     0.41428   0.45836   0.02973   0.00000  Uiso   1.00
C297   C     0.51207   0.47571   0.48139   0.00000  Uiso   1.00
C298   C     0.49519   0.48413   0.02770   0.00000  Uiso   1.00
C299   C     0.52981   0.43590   0.30197   0.00000  Uiso   1.00
C300   C     0.47323   0.56036   0.19207   0.00000  Uiso   1.00
C301   C     0.48142   0.45284   0.46216   0.00000  Uiso   1.00
C302   C     0.57857   0.49807   0.02779   0.00000  Uiso   1.00
C303   C     0.43349   0.44388   0.48628   0.00000  Uiso   1.00
C304   C     0.63804   0.35529   0.22773   0.00000  Uiso   1.00
C305   C     0.36233   0.64475   0.27178   0.00000  Uiso   1.00
C306   C     0.63841   0.64595   0.22734   0.00000  Uiso   1.00
Cu307  Cu    0.38022   0.50001   0.25000   0.00000  Uiso   1.00
Cu308  Cu    0.61978   0.49999   0.25000   0.00000  Uiso   1.00
F309   F     0.61004   0.50624   0.05175   0.00000  Uiso   1.00
F310   F     0.49903   0.43421   0.42236   0.00000  Uiso   1.00
F311   F     0.61121   0.37615   0.20493   0.00000  Uiso   1.00
F312   F     0.38950   0.62390   0.29425   0.00000  Uiso   1.00
F313   F     0.61183   0.62640   0.20422   0.00000  Uiso   1.00
F314   F     0.38847   0.37361   0.29537   0.00000  Uiso   1.00
F315   F     0.43307   0.44609   0.30388   0.00000  Uiso   1.00
F316   F     0.56658   0.55424   0.19635   0.00000  Uiso   1.00
F317   F     0.40602   0.42105   0.46662   0.00000  Uiso   1.00
F318   F     0.44700   0.53046   0.10476   0.00000  Uiso   1.00
F319   F     0.54062   0.49706   0.38762   0.00000  Uiso   1.00
F320   F     0.63462   0.45335   0.12159   0.00000  Uiso   1.00
F321   F     0.37249   0.51070   0.38856   0.00000  Uiso   1.00
F322   F     0.34362   0.51168   0.47869   0.00000  Uiso   1.00
F323   F     0.33579   0.42780   0.03659   0.00000  Uiso   1.00
F324   F     0.51818   0.48948   0.09658   0.00000  Uiso   1.00
H325   H     0.54476   0.41111   0.27847   0.00000  Uiso   1.00
H326   H     0.55560   0.44451   0.32026   0.00000  Uiso   1.00
H327   H     0.49829   0.42223   0.32819   0.00000  Uiso   1.00
H328   H     0.47725   0.59129   0.20501   0.00000  Uiso   1.00
H329   H     0.49919   0.55853   0.15797   0.00000  Uiso   1.00
H330   H     0.43734   0.55828   0.18722   0.00000  Uiso   1.00
N331   N     0.45069   0.50001   0.24999   0.00000  Uiso   1.00
N332   N     0.54931   0.49999   0.25001   0.00000  Uiso   1.00
O333   O     0.37291   0.43989   0.25000   0.00000  Uiso   1.00
O334   O     0.62709   0.56011   0.25000   0.00000  Uiso   1.00
O335   O     0.62706   0.43988   0.25001   0.00000  Uiso   1.00
O336   O     0.37294   0.56012   0.25000   0.00000  Uiso   1.00
O337   O     0.35186   0.50001   0.31491   0.00000  Uiso   1.00
O338   O     0.64814   0.49999   0.18509   0.00000  Uiso   1.00
O339   O     0.60600   0.50000   0.31492   0.00000  Uiso   1.00
O340   O     0.39400   0.50000   0.18508   0.00000  Uiso   1.00
C341   C     0.99980   0.42081   0.25025   0.00000  Uiso   1.00
C342   C     0.69519   0.35407   0.27227   0.00000  Uiso   1.00
C343   C     0.66713   0.62385   0.24945   0.00000  Uiso   1.00
C344   C     0.99971   0.37616   0.25025   0.00000  Uiso   1.00
C345   C     0.84888   0.47165   0.27633   0.00000  Uiso   1.00
C346   C     0.81812   0.52774   0.22301   0.00000  Uiso   1.00
C347   C     0.79931   0.47282   0.27688   0.00000  Uiso   1.00
C348   C     0.86722   0.52747   0.22357   0.00000  Uiso   1.00
C349   C     0.97241   0.50022   0.33624   0.00000  Uiso   1.00
C350   C     0.69415   0.49847   0.16407   0.00000  Uiso   1.00
C351   C     0.95724   0.49920   0.38600   0.00000  Uiso   1.00
C352   C     0.66691   0.57920   0.24965   0.00000  Uiso   1.00
C353   C     0.70955   0.48911   0.11612   0.00000  Uiso   1.00
C354   C     0.97653   0.50413   0.45694   0.00000  Uiso   1.00
C355   C     0.69880   0.45046   0.05401   0.00000  Uiso   1.00
C356   C     0.99142   0.50405   0.41011   0.00000  Uiso   1.00
C357   C     0.68046   0.46456   0.09748   0.00000  Uiso   1.00
C358   C     0.90813   0.49301   0.40984   0.00000  Uiso   1.00
C359   C     0.75686   0.49945   0.09080   0.00000  Uiso   1.00
C360   C     0.89364   0.48747   0.45703   0.00000  Uiso   1.00
C361   C     0.77809   0.48059   0.04981   0.00000  Uiso   1.00
C362   C     0.92761   0.49660   0.48078   0.00000  Uiso   1.00
C363   C     0.86315   0.49228   0.05096   0.00000  Uiso   1.00
C364   C     0.74761   0.45836   0.02973   0.00000  Uiso   1.00
C365   C     0.84540   0.47571   0.48139   0.00000  Uiso   1.00
C366   C     0.82853   0.48413   0.02770   0.00000  Uiso   1.00
C367   C     0.86315   0.43590   0.30197   0.00000  Uiso   1.00
C368   C     0.80657   0.56036   0.19207   0.00000  Uiso   1.00
C369   C     0.81475   0.45284   0.46216   0.00000  Uiso   1.00
C370   C     0.91190   0.49807   0.02779   0.00000  Uiso   1.00
C371   C     0.76683   0.44388   0.48628   0.00000  Uiso   1.00
C372   C     0.97137   0.35529   0.22773   0.00000  Uiso   1.00
C373   C     0.69566   0.64475   0.27178   0.00000  Uiso   1.00
C374   C     0.97174   0.64595   0.22734   0.00000  Uiso   1.00
Cu375  Cu    0.71355   0.50001   0.25000   0.00000  Uiso   1.00
Cu376  Cu    0.95311   0.49999   0.25000   0.00000  Uiso   1.00
F377   F     0.94337   0.50624   0.05175   0.00000  Uiso   1.00
F378   F     0.83236   0.43421   0.42236   0.00000  Uiso   1.00
F379   F     0.94454   0.37615   0.20493   0.00000  Uiso   1.00
F380   F     0.72283   0.62390   0.29425   0.00000  Uiso   1.00
F381   F     0.94516   0.62640   0.20422   0.00000  Uiso   1.00
F382   F     0.72180   0.37361   0.29537   0.00000  Uiso   1.00
F383   F     0.76640   0.44609   0.30388   0.00000  Uiso   1.00
F384   F     0.89992   0.55424   0.19635   0.00000  Uiso   1.00
F385   F     0.73936   0.42105   0.46662   0.00000  Uiso   1.00
F386   F     0.78033   0.53046   0.10476   0.00000  Uiso   1.00
F387   F     0.87396   0.49706   0.38762   0.00000  Uiso   1.00
F388   F     0.96796   0.45335   0.12159   0.00000  Uiso   1.00
F389   F     0.70582   0.51070   0.38856   0.00000  Uiso   1.00
F390   F     0.67695   0.51168   0.47869   0.00000  Uiso   1.00
F391   F     0.66913   0.42780   0.03659   0.00000  Uiso   1.00
F392   F     0.85151   0.48948   0.09658   0.00000  Uiso   1.00
H393   H     0.87809   0.41111   0.27847   0.00000  Uiso   1.00
H394   H     0.88893   0.44451   0.32026   0.00000  Uiso   1.00
H395   H     0.83163   0.42223   0.32819   0.00000  Uiso   1.00
H396   H     0.81058   0.59129   0.20501   0.00000  Uiso   1.00
H397   H     0.83252   0.55853   0.15797   0.00000  Uiso   1.00
H398   H     0.77068   0.55828   0.18722   0.00000  Uiso   1.00
N399   N     0.78403   0.50001   0.24999   0.00000  Uiso   1.00
N400   N     0.88264   0.49999   0.25001   0.00000  Uiso   1.00
O401   O     0.70625   0.43989   0.25000   0.00000  Uiso   1.00
O402   O     0.96042   0.56011   0.25000   0.00000  Uiso   1.00
O403   O     0.96039   0.43988   0.25001   0.00000  Uiso   1.00
O404   O     0.70628   0.56012   0.25000   0.00000  Uiso   1.00
O405   O     0.68519   0.50001   0.31491   0.00000  Uiso   1.00
O406   O     0.98148   0.49999   0.18509   0.00000  Uiso   1.00
O407   O     0.93933   0.50000   0.31492   0.00000  Uiso   1.00
O408   O     0.72733   0.50000   0.18508   0.00000  Uiso   1.00
C409   C     0.33314   0.75414   0.25025   0.00000  Uiso   1.00
C410   C     0.02852   0.68741   0.27227   0.00000  Uiso   1.00
C411   C     0.00046   0.95719   0.24945   0.00000  Uiso   1.00
C412   C     0.33305   0.70950   0.25025   0.00000  Uiso   1.00
C413   C     0.18221   0.80499   0.27633   0.00000  Uiso   1.00
C414   C     0.15145   0.86108   0.22301   0.00000  Uiso   1.00
C415   C     0.13264   0.80615   0.27688   0.00000  Uiso   1.00
C416   C     0.20056   0.86080   0.22357   0.00000  Uiso   1.00
C417   C     0.30575   0.83355   0.33624   0.00000  Uiso   1.00
C418   C     0.02749   0.83181   0.16407   0.00000  Uiso   1.00
C419   C     0.29057   0.83254   0.38600   0.00000  Uiso   1.00
C420   C     0.00024   0.91253   0.24965   0.00000  Uiso   1.00
C421   C     0.04288   0.82245   0.11612   0.00000  Uiso   1.00
C422   C     0.30986   0.83746   0.45694   0.00000  Uiso   1.00
C423   C     0.03213   0.78379   0.05401   0.00000  Uiso   1.00
C424   C     0.32475   0.83738   0.41011   0.00000  Uiso   1.00
C425   C     0.01379   0.79789   0.09748   0.00000  Uiso   1.00
C426   C     0.24147   0.82634   0.40984   0.00000  Uiso   1.00
C427   C     0.09019   0.83278   0.09080   0.00000  Uiso   1.00
C428   C     0.22698   0.82080   0.45703   0.00000  Uiso   1.00
C429   C     0.11143   0.81392   0.04981   0.00000  Uiso   1.00
C430   C     0.26094   0.82993   0.48078   0.00000  Uiso   1.00
C431   C     0.19648   0.82561   0.05096   0.00000  Uiso   1.00
C432   C     0.08094   0.79169   0.02973   0.00000  Uiso   1.00
C433   C     0.17874   0.80905   0.48139   0.00000  Uiso   1.00
C434   C     0.16186   0.81746   0.02770   0.00000  Uiso   1.00
C435   C     0.19648   0.76924   0.30197   0.00000  Uiso   1.00
C436   C     0.13990   0.89369   0.19207   0.00000  Uiso   1.00
C437   C     0.14809   0.78618   0.46216   0.00000  Uiso   1.00
C438   C     0.24523   0.83140   0.02779   0.00000  Uiso   1.00
C439   C     0.10016   0.77722   0.48628   0.00000  Uiso   1.00
C440   C     0.30471   0.68862   0.22773   0.00000  Uiso   1.00
C441   C     0.02899   0.97808   0.27178   0.00000  Uiso   1.00
C442   C     0.30507   0.97928   0.22734   0.00000  Uiso   1.00
Cu443  Cu    0.04689   0.83334   0.25000   0.00000  Uiso   1.00
Cu444  Cu    0.28645   0.83333   0.25000   0.00000  Uiso   1.00
F445   F     0.27671   0.83958   0.05175   0.00000  Uiso   1.00
F446   F     0.16569   0.76755   0.42236   0.00000  Uiso   1.00
F447   F     0.27787   0.70949   0.20493   0.00000  Uiso   1.00
F448   F     0.05617   0.95723   0.29425   0.00000  Uiso   1.00
F449   F     0.27849   0.95974   0.20422   0.00000  Uiso   1.00
F450   F     0.05514   0.70694   0.29537   0.00000  Uiso   1.00
F451   F     0.09974   0.77942   0.30388   0.00000  Uiso   1.00
F452   F     0.23325   0.88757   0.19635   0.00000  Uiso   1.00
F453   F     0.07269   0.75438   0.46662   0.00000  Uiso   1.00
F454   F     0.11367   0.86379   0.10476   0.00000  Uiso   1.00
F455   F     0.20729   0.83039   0.38762   0.00000  Uiso   1.00
F456   F     0.30129   0.78669   0.12159   0.00000  Uiso   1.00
F457   F     0.03916   0.84404   0.38856   0.00000  Uiso   1.00
F458   F     0.01028   0.84501   0.47869   0.00000  Uiso   1.00
F459   F     0.00246   0.76114   0.03659   0.00000  Uiso   1.00
F460   F     0.18485   0.82282   0.09658   0.00000  Uiso   1.00
H461   H     0.21143   0.74445   0.27847   0.00000  Uiso   1.00
H462   H     0.22226   0.77784   0.32026   0.00000  Uiso   1.00
H463   H     0.16496   0.75556   0.32819   0.00000  Uiso   1.00
H464   H     0.14391   0.92462   0.20501   0.00000  Uiso   1.00
H465   H     0.16585   0.89187   0.15797   0.00000  Uiso   1.00
H466   H     0.10401   0.89161   0.18722   0.00000  Uiso   1.00
N467   N     0.11736   0.83334   0.24999   0.00000  Uiso   1.00
N468   N     0.21597   0.83332   0.25001   0.00000  Uiso   1.00
O469   O     0.03958   0.77322   0.25000   0.00000  Uiso   1.00
O470   O     0.29375   0.89345   0.25000   0.00000  Uiso   1.00
O471   O     0.29372   0.77321   0.25001   0.00000  Uiso   1.00
O472   O     0.03961   0.89346   0.25000   0.00000  Uiso   1.00
O473   O     0.01852   0.83334   0.31491   0.00000  Uiso   1.00
O474   O     0.31481   0.83332   0.18509   0.00000  Uiso   1.00
O475   O     0.27267   0.83333   0.31492   0.00000  Uiso   1.00
O476   O     0.06067   0.83333   0.18508   0.00000  Uiso   1.00
C477   C     0.66647   0.75414   0.25025   0.00000  Uiso   1.00
C478   C     0.36185   0.68741   0.27227   0.00000  Uiso   1.00
C479   C     0.33380   0.95719   0.24945   0.00000  Uiso   1.00
C480   C     0.66638   0.70950   0.25025   0.00000  Uiso   1.00
C481   C     0.51555   0.80499   0.27633   0.00000  Uiso   1.00
C482   C     0.48479   0.86108   0.22301   0.00000  Uiso   1.00
C483   C     0.46597   0.80615   0.27688   0.00000  Uiso   1.00
C484   C     0.53389   0.86080   0.22357   0.00000  Uiso   1.00
C485   C     0.63908   0.83355   0.33624   0.00000  Uiso   1.00
C486   C     0.36082   0.83181   0.16407   0.00000  Uiso   1.00
C487   C     0.62391   0.83254   0.38600   0.00000  Uiso   1.00
C488   C     0.33357   0.91253   0.24965   0.00000  Uiso   1.00
C489   C     0.37622   0.82245   0.11612   0.00000  Uiso   1.00
C490   C     0.64319   0.83746   0.45694   0.00000  Uiso   1.00
C491   C     0.36547   0.78379   0.05401   0.00000  Uiso   1.00
C492   C     0.65809   0.83738   0.41011   0.00000  Uiso   1.00
C493   C     0.34713   0.79789   0.09748   0.00000  Uiso   1.00
C494   C     0.57480   0.82634   0.40984   0.00000  Uiso   1.00
C495   C     0.42353   0.83278   0.09080   0.00000  Uiso   1.00
C496   C     0.56031   0.82080   0.45703   0.00000  Uiso   1.00
C497   C     0.44476   0.81392   0.04981   0.00000  Uiso   1.00
C498   C     0.59427   0.82993   0.48078   0.00000  Uiso   1.00
C499   C     0.52982   0.82561   0.05096   0.00000  Uiso   1.00
C500   C     0.41428   0.79169   0.02973   0.00000  Uiso   1.00
C501   C     0.51207   0.80905   0.48139   0.00000  Uiso   1.00
C502   C     0.49519   0.81746   0.02770   0.00000  Uiso   1.00
C503   C     0.52981   0.76924   0.30197   0.00000  Uiso   1.00
C504   C     0.47323   0.89369   0.19207   0.00000  Uiso   1.00
C505   C     0.48142   0.78618   0.46216   0.00000  Uiso   1.00
C506   C     0.57857   0.83140   0.02779   0.00000  Uiso   1.00
C507   C     0.43349   0.77722   0.48628   0.00000  Uiso   1.00
C508   C     0.63804   0.68862   0.22773   0.00000  Uiso   1.00
C509   C     0.36233   0.97808   0.27178   0.00000  Uiso   1.00
C510   C     0.63841   0.97928   0.22734   0.00000  Uiso   1.00
Cu511  Cu    0.38022   0.83334   0.25000   0.00000  Uiso   1.00
Cu512  Cu    0.61978   0.83333   0.25000   0.00000  Uiso   1.00
F513   F     0.61004   0.83958   0.05175   0.00000  Uiso   1.00
F514   F     0.49903   0.76755   0.42236   0.00000  Uiso   1.00
F515   F     0.61121   0.70949   0.20493   0.00000  Uiso   1.00
F516   F     0.38950   0.95723   0.29425   0.00000  Uiso   1.00
F517   F     0.61183   0.95974   0.20422   0.00000  Uiso   1.00
F518   F     0.38847   0.70694   0.29537   0.00000  Uiso   1.00
F519   F     0.43307   0.77942   0.30388   0.00000  Uiso   1.00
F520   F     0.56658   0.88757   0.19635   0.00000  Uiso   1.00
F521   F     0.40602   0.75438   0.46662   0.00000  Uiso   1.00
F522   F     0.44700   0.86379   0.10476   0.00000  Uiso   1.00
F523   F     0.54062   0.83039   0.38762   0.00000  Uiso   1.00
F524   F     0.63462   0.78669   0.12159   0.00000  Uiso   1.00
F525   F     0.37249   0.84404   0.38856   0.00000  Uiso   1.00
F526   F     0.34362   0.84501   0.47869   0.00000  Uiso   1.00
F527   F     0.33579   0.76114   0.03659   0.00000  Uiso   1.00
F528   F     0.51818   0.82282   0.09658   0.00000  Uiso   1.00
H529   H     0.54476   0.74445   0.27847   0.00000  Uiso   1.00
H530   H     0.55560   0.77784   0.32026   0.00000  Uiso   1.00
H531   H     0.49829   0.75556   0.32819   0.00000  Uiso   1.00
H532   H     0.47725   0.92462   0.20501   0.00000  Uiso   1.00
H533   H     0.49919   0.89187   0.15797   0.00000  Uiso   1.00
H534   H     0.43734   0.89161   0.18722   0.00000  Uiso   1.00
N535   N     0.45069   0.83334   0.24999   0.00000  Uiso   1.00
N536   N     0.54931   0.83332   0.25001   0.00000  Uiso   1.00
O537   O     0.37291   0.77322   0.25000   0.00000  Uiso   1.00
O538   O     0.62709   0.89345   0.25000   0.00000  Uiso   1.00
O539   O     0.62706   0.77321   0.25001   0.00000  Uiso   1.00
O540   O     0.37294   0.89346   0.25000   0.00000  Uiso   1.00
O541   O     0.35186   0.83334   0.31491   0.00000  Uiso   1.00
O542   O     0.64814   0.83332   0.18509   0.00000  Uiso   1.00
O543   O     0.60600   0.83333   0.31492   0.00000  Uiso   1.00
O544   O     0.39400   0.83333   0.18508   0.00000  Uiso   1.00
C545   C     0.99980   0.75414   0.25025   0.00000  Uiso   1.00
C546   C     0.69519   0.68741   0.27227   0.00000  Uiso   1.00
C547   C     0.66713   0.95719   0.24945   0.00000  Uiso   1.00
C548   C     0.99971   0.70950   0.25025   0.00000  Uiso   1.00
C549   C     0.84888   0.80499   0.27633   0.00000  Uiso   1.00
C550   C     0.81812   0.86108   0.22301   0.00000  Uiso   1.00
C551   C     0.79931   0.80615   0.27688   0.00000  Uiso   1.00
C552   C     0.86722   0.86080   0.22357   0.00000  Uiso   1.00
C553   C     0.97241   0.83355   0.33624   0.00000  Uiso   1.00
C554   C     0.69415   0.83181   0.16407   0.00000  Uiso   1.00
C555   C     0.95724   0.83254   0.38600   0.00000  Uiso   1.00
C556   C     0.66691   0.91253   0.24965   0.00000  Uiso   1.00
C557   C     0.70955   0.82245   0.11612   0.00000  Uiso   1.00
C558   C     0.97653   0.83746   0.45694   0.00000  Uiso   1.00
C559   C     0.69880   0.78379   0.05401   0.00000  Uiso   1.00
C560   C     0.99142   0.83738   0.41011   0.00000  Uiso   1.00
C561   C     0.68046   0.79789   0.09748   0.00000  Uiso   1.00
C562   C     0.90813   0.82634   0.40984   0.00000  Uiso   1.00
C563   C     0.75686   0.83278   0.09080   0.00000  Uiso   1.00
C564   C     0.89364   0.82080   0.45703   0.00000  Uiso   1.00
C565   C     0.77809   0.81392   0.04981   0.00000  Uiso   1.00
C566   C     0.92761   0.82993   0.48078   0.00000  Uiso   1.00
C567   C     0.86315   0.82561   0.05096   0.00000  Uiso   1.00
C568   C     0.74761   0.79169   0.02973   0.00000  Uiso   1.00
C569   C     0.84540   0.80905   0.48139   0.00000  Uiso   1.00
C570   C     0.82853   0.81746   0.02770   0.00000  Uiso   1.00
C571   C     0.86315   0.76924   0.30197   0.00000  Uiso   1.00
C572   C     0.80657   0.89369   0.19207   0.00000  Uiso   1.00
C573   C     0.81475   0.78618   0.46216   0.00000  Uiso   1.00
C574   C     0.91190   0.83140   0.02779   0.00000  Uiso   1.00
C575   C     0.76683   0.77722   0.48628   0.00000  Uiso   1.00
C576   C     0.97137   0.68862   0.22773   0.00000  Uiso   1.00
C577   C     0.69566   0.97808   0.27178   0.00000  Uiso   1.00
C578   C     0.97174   0.97928   0.22734   0.00000  Uiso   1.00
Cu579  Cu    0.71355   0.83334   0.25000   0.00000  Uiso   1.00
Cu580  Cu    0.95311   0.83333   0.25000   0.00000  Uiso   1.00
F581   F     0.94337   0.83958   0.05175   0.00000  Uiso   1.00
F582   F     0.83236   0.76755   0.42236   0.00000  Uiso   1.00
F583   F     0.94454   0.70949   0.20493   0.00000  Uiso   1.00
F584   F     0.72283   0.95723   0.29425   0.00000  Uiso   1.00
F585   F     0.94516   0.95974   0.20422   0.00000  Uiso   1.00
F586   F     0.72180   0.70694   0.29537   0.00000  Uiso   1.00
F587   F     0.76640   0.77942   0.30388   0.00000  Uiso   1.00
F588   F     0.89992   0.88757   0.19635   0.00000  Uiso   1.00
F589   F     0.73936   0.75438   0.46662   0.00000  Uiso   1.00
F590   F     0.78033   0.86379   0.10476   0.00000  Uiso   1.00
F591   F     0.87396   0.83039   0.38762   0.00000  Uiso   1.00
F592   F     0.96796   0.78669   0.12159   0.00000  Uiso   1.00
F593   F     0.70582   0.84404   0.38856   0.00000  Uiso   1.00
F594   F     0.67695   0.84501   0.47869   0.00000  Uiso   1.00
F595   F     0.66913   0.76114   0.03659   0.00000  Uiso   1.00
F596   F     0.85151   0.82282   0.09658   0.00000  Uiso   1.00
H597   H     0.87809   0.74445   0.27847   0.00000  Uiso   1.00
H598   H     0.88893   0.77784   0.32026   0.00000  Uiso   1.00
H599   H     0.83163   0.75556   0.32819   0.00000  Uiso   1.00
H600   H     0.81058   0.92462   0.20501   0.00000  Uiso   1.00
H601   H     0.83252   0.89187   0.15797   0.00000  Uiso   1.00
H602   H     0.77068   0.89161   0.18722   0.00000  Uiso   1.00
N603   N     0.78403   0.83334   0.24999   0.00000  Uiso   1.00
N604   N     0.88264   0.83332   0.25001   0.00000  Uiso   1.00
O605   O     0.70625   0.77322   0.25000   0.00000  Uiso   1.00
O606   O     0.96042   0.89345   0.25000   0.00000  Uiso   1.00
O607   O     0.96039   0.77321   0.25001   0.00000  Uiso   1.00
O608   O     0.70628   0.89346   0.25000   0.00000  Uiso   1.00
O609   O     0.68519   0.83334   0.31491   0.00000  Uiso   1.00
O610   O     0.98148   0.83332   0.18509   0.00000  Uiso   1.00
O611   O     0.93933   0.83333   0.31492   0.00000  Uiso   1.00
O612   O     0.72733   0.83333   0.18508   0.00000  Uiso   1.00
C613   C     0.33314   0.08747   0.75025   0.00000  Uiso   1.00
C614   C     0.02852   0.02074   0.77227   0.00000  Uiso   1.00
C615   C     0.00046   0.29052   0.74945   0.00000  Uiso   1.00
C616   C     0.33305   0.04283   0.75025   0.00000  Uiso   1.00
C617   C     0.18221   0.13832   0.77633   0.00000  Uiso   1.00
C618   C     0.15145   0.19441   0.72301   0.00000  Uiso   1.00
C619   C     0.13264   0.13949   0.77688   0.00000  Uiso   1.00
C620   C     0.20056   0.19413   0.72357   0.00000  Uiso   1.00
C621   C     0.30575   0.16689   0.83624   0.00000  Uiso   1.00
C622   C     0.02749   0.16514   0.66407   0.00000  Uiso   1.00
C623   C     0.29057   0.16587   0.88600   0.00000  Uiso   1.00
C624   C     0.00024   0.24587   0.74965   0.00000  Uiso   1.00
C625   C     0.04288   0.15578   0.61612   0.00000  Uiso   1.00
C626   C     0.30986   0.17080   0.95694   0.00000  Uiso   1.00
C627   C     0.03213   0.11713   0.55401   0.00000  Uiso   1.00
C628   C     0.32475   0.17072   0.91011   0.00000  Uiso   1.00
C629   C     0.01379   0.13122   0.59748   0.00000  Uiso   1.00
C630   C     0.24147   0.15968   0.90984   0.00000  Uiso   1.00
C631   C     0.09019   0.16612   0.59080   0.00000  Uiso   1.00
C632   C     0.22698   0.15413   0.95703   0.00000  Uiso   1.00
C633   C     0.11143   0.14725   0.54981   0.00000  Uiso   1.00
C634   C     0.26094   0.16326   0.98078   0.00000  Uiso   1.00
C635   C     0.19648   0.15895   0.55096   0.00000  Uiso   1.00
C636   C     0.08094   0.12503   0.52973   0.00000  Uiso   1.00
C637   C     0.17874   0.14238   0.98139   0.00000  Uiso   1.00
C638   C     0.16186   0.15080   0.52770   0.00000  Uiso   1.00
C639   C     0.19648   0.10257   0.80197   0.00000  Uiso   1.00
C640   C     0.13990   0.22703   0.69207   0.00000  Uiso   1.00
C641   C     0.14809   0.11951   0.96216   0.00000  Uiso   1.00
C642   C     0.24523   0.16473   0.52779   0.00000  Uiso   1.00
C643   C     0.10016   0.11055   0.98628   0.00000  Uiso   1.00
C644   C     0.30471   0.02195   0.72773   0.00000  Uiso   1.00
C645   C     0.02899   0.31141   0.77178   0.00000  Uiso   1.00
C646   C     0.30507   0.31261   0.72734   0.00000  Uiso   1.00
Cu647  Cu    0.04689   0.16667   0.75000   0.00000  Uiso   1.00
Cu648  Cu    0.28645   0.16666   0.75000   0.00000  Uiso   1.00
F649   F     0.27671   0.17291   0.55175   0.00000  Uiso   1.00
F650   F     0.16569   0.10088   0.92236   0.00000  Uiso   1.00
F651   F     0.27787   0.04282   0.70493   0.00000  Uiso   1.00
F652   F     0.05617   0.29057   0.79425   0.00000  Uiso   1.00
F653   F     0.27849   0.29307   0.70422   0.00000  Uiso   1.00
F654   F     0.05514   0.04027   0.79537   0.00000  Uiso   1.00
F655   F     0.09974   0.11276   0.80388   0.00000  Uiso   1.00
F656   F     0.23325   0.22091   0.69635   0.00000  Uiso   1.00
F657   F     0.07269   0.08771   0.96662   0.00000  Uiso   1.00
F658   F     0.11367   0.19713   0.60476   0.00000  Uiso   1.00
F659   F     0.20729   0.16373   0.88762   0.00000  Uiso   1.00
F660   F     0.30129   0.12002   0.62159   0.00000  Uiso   1.00
F661   F     0.03916   0.17737   0.88856   0.00000  Uiso   1.00
F662   F     0.01028   0.17834   0.97869   0.00000  Uiso   1.00
F663   F     0.00246   0.09447   0.53659   0.00000  Uiso   1.00
F664   F     0.18485   0.15615   0.59658   0.00000  Uiso   1.00
H665   H     0.21143   0.07778   0.77847   0.00000  Uiso   1.00
H666   H     0.22226   0.11118   0.82026   0.00000  Uiso   1.00
H667   H     0.16496   0.08889   0.82819   0.00000  Uiso   1.00
H668   H     0.14391   0.25795   0.70501   0.00000  Uiso   1.00
H669   H     0.16585   0.22520   0.65797   0.00000  Uiso   1.00
H670   H     0.10401   0.22494   0.68722   0.00000  Uiso   1.00
N671   N     0.11736   0.16668   0.74999   0.00000  Uiso   1.00
N672   N     0.21597   0.16666   0.75001   0.00000  Uiso   1.00
O673   O     0.03958   0.10655   0.75000   0.00000  Uiso   1.00
O674   O     0.29375   0.22678   0.75000   0.00000  Uiso   1.00
O675   O     0.29372   0.10654   0.75001   0.00000  Uiso   1.00
O676   O     0.03961   0.22679   0.75000   0.00000  Uiso   1.00
O677   O     0.01852   0.16668   0.81491   0.00000  Uiso   1.00
O678   O     0.31481   0.16666   0.68509   0.00000  Uiso   1.00
O679   O     0.27267   0.16667   0.81492   0.00000  Uiso   1.00
O680   O     0.06067   0.16667   0.68508   0.00000  Uiso   1.00
C681   C     0.66647   0.08747   0.75025   0.00000  Uiso   1.00
C682   C     0.36185   0.02074   0.77227   0.00000  Uiso   1.00
C683   C     0.33380   0.29052   0.74945   0.00000  Uiso   1.00
C684   C     0.66638   0.04283   0.75025   0.00000  Uiso   1.00
C685   C     0.51555   0.13832   0.77633   0.00000  Uiso   1.00
C686   C     0.48479   0.19441   0.72301   0.00000  Uiso   1.00
C687   C     0.46597   0.13949   0.77688   0.00000  Uiso   1.00
C688   C     0.53389   0.19413   0.72357   0.00000  Uiso   1.00
C689   C     0.63908   0.16689   0.83624   0.00000  Uiso   1.00
C690   C     0.36082   0.16514   0.66407   0.00000  Uiso   1.00
C691   C     0.62391   0.16587   0.88600   0.00000  Uiso   1.00
C692   C     0.33357   0.24587   0.74965   0.00000  Uiso   1.00
C693   C     0.37622   0.15578   0.61612   0.00000  Uiso   1.00
C694   C     0.64319   0.17080   0.95694   0.00000  Uiso   1.00
C695   C     0.36547   0.11713   0.55401   0.00000  Uiso   1.00
C696   C     0.65809   0.17072   0.91011   0.00000  Uiso   1.00
C697   C     0.34713   0.13122   0.59748   0.00000  Uiso   1.00
C698   C     0.57480   0.15968   0.90984   0.00000  Uiso   1.00
C699   C     0.42353   0.16612   0.59080   0.00000  Uiso   1.00
C700   C     0.56031   0.15413   0.95703   0.00000  Uiso   1.00
C701   C     0.44476   0.14725   0.54981   0.00000  Uiso   1.00
C702   C     0.59427   0.16326   0.98078   0.00000  Uiso   1.00
C703   C     0.52982   0.15895   0.55096   0.00000  Uiso   1.00
C704   C     0.41428   0.12503   0.52973   0.00000  Uiso   1.00
C705   C     0.51207   0.14238   0.98139   0.00000  Uiso   1.00
C706   C     0.49519   0.15080   0.52770   0.00000  Uiso   1.00
C707   C     0.52981   0.10257   0.80197   0.00000  Uiso   1.00
C708   C     0.47323   0.22703   0.69207   0.00000  Uiso   1.00
C709   C     0.48142   0.11951   0.96216   0.00000  Uiso   1.00
C710   C     0.57857   0.16473   0.52779   0.00000  Uiso   1.00
C711   C     0.43349   0.11055   0.98628   0.00000  Uiso   1.00
C712   C     0.63804   0.02195   0.72773   0.00000  Uiso   1.00
C713   C     0.36233   0.31141   0.77178   0.00000  Uiso   1.00
C714   C     0.63841   0.31261   0.72734   0.00000  Uiso   1.00
Cu715  Cu    0.38022   0.16667   0.75000   0.00000  Uiso   1.00
Cu716  Cu    0.61978   0.16666   0.75000   0.00000  Uiso   1.00
F717   F     0.61004   0.17291   0.55175   0.00000  Uiso   1.00
F718   F     0.49903   0.10088   0.92236   0.00000  Uiso   1.00
F719   F     0.61121   0.04282   0.70493   0.00000  Uiso   1.00
F720   F     0.38950   0.29057   0.79425   0.00000  Uiso   1.00
F721   F     0.61183   0.29307   0.70422   0.00000  Uiso   1.00
F722   F     0.38847   0.04027   0.79537   0.00000  Uiso   1.00
F723   F     0.43307   0.11276   0.80388   0.00000  Uiso   1.00
F724   F     0.56658   0.22091   0.69635   0.00000  Uiso   1.00
F725   F     0.40602   0.08771   0.96662   0.00000  Uiso   1.00
F726   F     0.44700   0.19713   0.60476   0.00000  Uiso   1.00
F727   F     0.54062   0.16373   0.88762   0.00000  Uiso   1.00
F728   F     0.63462   0.12002   0.62159   0.00000  Uiso   1.00
F729   F     0.37249   0.17737   0.88856   0.00000  Uiso   1.00
F730   F     0.34362   0.17834   0.97869   0.00000  Uiso   1.00
F731   F     0.33579   0.09447   0.53659   0.00000  Uiso   1.00
F732   F     0.51818   0.15615   0.59658   0.00000  Uiso   1.00
H733   H     0.54476   0.07778   0.77847   0.00000  Uiso   1.00
H734   H     0.55560   0.11118   0.82026   0.00000  Uiso   1.00
H735   H     0.49829   0.08889   0.82819   0.00000  Uiso   1.00
H736   H     0.47725   0.25795   0.70501   0.00000  Uiso   1.00
H737   H     0.49919   0.22520   0.65797   0.00000  Uiso   1.00
H738   H     0.43734   0.22494   0.68722   0.00000  Uiso   1.00
N739   N     0.45069   0.16668   0.74999   0.00000  Uiso   1.00
N740   N     0.54931   0.16666   0.75001   0.00000  Uiso   1.00
O741   O     0.37291   0.10655   0.75000   0.00000  Uiso   1.00
O742   O     0.62709   0.22678   0.75000   0.00000  Uiso   1.00
O743   O     0.62706   0.10654   0.75001   0.00000  Uiso   1.00
O744   O     0.37294   0.22679   0.75000   0.00000  Uiso   1.00
O745   O     0.35186   0.16668   0.81491   0.00000  Uiso   1.00
O746   O     0.64814   0.16666   0.68509   0.00000  Uiso   1.00
O747   O     0.60600   0.16667   0.81492   0.00000  Uiso   1.00
O748   O     0.39400   0.16667   0.68508   0.00000  Uiso   1.00
C749   C     0.99980   0.08747   0.75025   0.00000  Uiso   1.00
C750   C     0.69519   0.02074   0.77227   0.00000  Uiso   1.00
C751   C     0.66713   0.29052   0.74945   0.00000  Uiso   1.00
C752   C     0.99971   0.04283   0.75025   0.00000  Uiso   1.00
C753   C     0.84888   0.13832   0.77633   0.00000  Uiso   1.00
C754   C     0.81812   0.19441   0.72301   0.00000  Uiso   1.00
C755   C     0.79931   0.13949   0.77688   0.00000  Uiso   1.00
C756   C     0.86722   0.19413   0.72357   0.00000  Uiso   1.00
C757   C     0.97241   0.16689   0.83624   0.00000  Uiso   1.00
C758   C     0.69415   0.16514   0.66407   0.00000  Uiso   1.00
C759   C     0.95724   0.16587   0.88600   0.00000  Uiso   1.00
C760   C     0.66691   0.24587   0.74965   0.00000  Uiso   1.00
C761   C     0.70955   0.15578   0.61612   0.00000  Uiso   1.00
C762   C     0.97653   0.17080   0.95694   0.00000  Uiso   1.00
C763   C     0.69880   0.11713   0.55401   0.00000  Uiso   1.00
C764   C     0.99142   0.17072   0.91011   0.00000  Uiso   1.00
C765   C     0.68046   0.13122   0.59748   0.00000  Uiso   1.00
C766   C     0.90813   0.15968   0.90984   0.00000  Uiso   1.00
C767   C     0.75686   0.16612   0.59080   0.00000  Uiso   1.00
C768   C     0.89364   0.15413   0.95703   0.00000  Uiso   1.00
C769   C     0.77809   0.14725   0.54981   0.00000  Uiso   1.00
C770   C     0.92761   0.16326   0.98078   0.00000  Uiso   1.00
C771   C     0.86315   0.15895   0.55096   0.00000  Uiso   1.00
C772   C     0.74761   0.12503   0.52973   0.00000  Uiso   1.00
C773   C     0.84540   0.14238   0.98139   0.00000  Uiso   1.00
C774   C     0.82853   0.15080   0.52770   0.00000  Uiso   1.00
C775   C     0.86315   0.10257   0.80197   0.00000  Uiso   1.00
C776   C     0.80657   0.22703   0.69207   0.00000  Uiso   1.00
C777   C     0.81475   0.11951   0.96216   0.00000  Uiso   1.00
C778   C     0.91190   0.16473   0.52779   0.00000  Uiso   1.00
C779   C     0.76683   0.11055   0.98628   0.00000  Uiso   1.00
C780   C     0.97137   0.02195   0.72773   0.00000  Uiso   1.00
C781   C     0.69566   0.31141   0.77178   0.00000  Uiso   1.00
C782   C     0.97174   0.31261   0.72734   0.00000  Uiso   1.00
Cu783  Cu    0.71355   0.16667   0.75000   0.00000  Uiso   1.00
Cu784  Cu    0.95311   0.16666   0.75000   0.00000  Uiso   1.00
F785   F     0.94337   0.17291   0.55175   0.00000  Uiso   1.00
F786   F     0.83236   0.10088   0.92236   0.00000  Uiso   1.00
F787   F     0.94454   0.04282   0.70493   0.00000  Uiso   1.00
F788   F     0.72283   0.29057   0.79425   0.00000  Uiso   1.00
F789   F     0.94516   0.29307   0.70422   0.00000  Uiso   1.00
F790   F     0.72180   0.04027   0.79537   0.00000  Uiso   1.00
F791   F     0.76640   0.11276   0.80388   0.00000  Uiso   1.00
F792   F     0.89992   0.22091   0.69635   0.00000  Uiso   1.00
F793   F     0.73936   0.08771   0.96662   0.00000  Uiso   1.00
F794   F     0.78033   0.19713   0.60476   0.00000  Uiso   1.00
F795   F     0.87396   0.16373   0.88762   0.00000  Uiso   1.00
F796   F     0.96796   0.12002   0.62159   0.00000  Uiso   1.00
F797   F     0.70582   0.17737   0.88856   0.00000  Uiso   1.00
F798   F     0.67695   0.17834   0.97869   0.00000  Uiso   1.00
F799   F     0.66913   0.09447   0.53659   0.00000  Uiso   1.00
F800   F     0.85151   0.15615   0.59658   0.00000  Uiso   1.00
H801   H     0.87809   0.07778   0.77847   0.00000  Uiso   1.00
H802   H     0.88893   0.11118   0.82026   0.00000  Uiso   1.00
H803   H     0.83163   0.08889   0.82819   0.00000  Uiso   1.00
H804   H     0.81058   0.25795   0.70501   0.00000  Uiso   1.00
H805   H     0.83252   0.22520   0.65797   0.00000  Uiso   1.00
H806   H     0.77068   0.22494   0.68722   0.00000  Uiso   1.00
N807   N     0.78403   0.16668   0.74999   0.00000  Uiso   1.00
N808   N     0.88264   0.16666   0.75001   0.00000  Uiso   1.00
O809   O     0.70625   0.10655   0.75000   0.00000  Uiso   1.00
O810   O     0.96042   0.22678   0.75000   0.00000  Uiso   1.00
O811   O     0.96039   0.10654   0.75001   0.00000  Uiso   1.00
O812   O     0.70628   0.22679   0.75000   0.00000  Uiso   1.00
O813   O     0.68519   0.16668   0.81491   0.00000  Uiso   1.00
O814   O     0.98148   0.16666   0.68509   0.00000  Uiso   1.00
O815   O     0.93933   0.16667   0.81492   0.00000  Uiso   1.00
O816   O     0.72733   0.16667   0.68508   0.00000  Uiso   1.00
C817   C     0.33314   0.42081   0.75025   0.00000  Uiso   1.00
C818   C     0.02852   0.35407   0.77227   0.00000  Uiso   1.00
C819   C     0.00046   0.62385   0.74945   0.00000  Uiso   1.00
C820   C     0.33305   0.37616   0.75025   0.00000  Uiso   1.00
C821   C     0.18221   0.47165   0.77633   0.00000  Uiso   1.00
C822   C     0.15145   0.52774   0.72301   0.00000  Uiso   1.00
C823   C     0.13264   0.47282   0.77688   0.00000  Uiso   1.00
C824   C     0.20056   0.52747   0.72357   0.00000  Uiso   1.00
C825   C     0.30575   0.50022   0.83624   0.00000  Uiso   1.00
C826   C     0.02749   0.49847   0.66407   0.00000  Uiso   1.00
C827   C     0.29057   0.49920   0.88600   0.00000  Uiso   1.00
C828   C     0.00024   0.57920   0.74965   0.00000  Uiso   1.00
C829   C     0.04288   0.48911   0.61612   0.00000  Uiso   1.00
C830   C     0.30986   0.50413   0.95694   0.00000  Uiso   1.00
C831   C     0.03213   0.45046   0.55401   0.00000  Uiso   1.00
C832   C     0.32475   0.50405   0.91011   0.00000  Uiso   1.00
C833   C     0.01379   0.46456   0.59748   0.00000  Uiso   1.00
C834   C     0.24147   0.49301   0.90984   0.00000  Uiso   1.00
C835   C     0.09019   0.49945   0.59080   0.00000  Uiso   1.00
C836   C     0.22698   0.48747   0.95703   0.00000  Uiso   1.00
C837   C     0.11143   0.48059   0.54981   0.00000  Uiso   1.00
C838   C     0.26094   0.49660   0.98078   0.00000  Uiso   1.00
C839   C     0.19648   0.49228   0.55096   0.00000  Uiso   1.00
C840   C     0.08094   0.45836   0.52973   0.00000  Uiso   1.00
C841   C     0.17874   0.47571   0.98139   0.00000  Uiso   1.00
C842   C     0.16186   0.48413   0.52770   0.00000  Uiso   1.00
C843   C     0.19648   0.43590   0.80197   0.00000  Uiso   1.00
C844   C     0.13990   0.56036   0.69207   0.00000  Uiso   1.00
C845   C     0.14809   0.45284   0.96216   0.00000  Uiso   1.00
C846   C     0.24523   0.49807   0.52779   0.00000  Uiso   1.00
C847   C     0.10016   0.44388   0.98628   0.00000  Uiso   1.00
C848   C     0.30471   0.35529   0.72773   0.00000  Uiso   1.00
C849   C     0.02899   0.64475   0.77178   0.00000  Uiso   1.00
C850   C     0.30507   0.64595   0.72734   0.00000  Uiso   1.00
Cu851  Cu    0.04689   0.50001   0.75000   0.00000  Uiso   1.00
Cu852  Cu    0.28645   0.49999   0.75000   0.00000  Uiso   1.00
F853   F     0.27671   0.50624   0.55175   0.00000  Uiso   1.00
F854   F     0.16569   0.43421   0.92236   0.00000  Uiso   1.00
F855   F     0.27787   0.37615   0.70493   0.00000  Uiso   1.00
F856   F     0.05617   0.62390   0.79425   0.00000  Uiso   1.00
F857   F     0.27849   0.62640   0.70422   0.00000  Uiso   1.00
F858   F     0.05514   0.37361   0.79537   0.00000  Uiso   1.00
F859   F     0.09974   0.44609   0.80388   0.00000  Uiso   1.00
F860   F     0.23325   0.55424   0.69635   0.00000  Uiso   1.00
F861   F     0.07269   0.42105   0.96662   0.00000  Uiso   1.00
F862   F     0.11367   0.53046   0.60476   0.00000  Uiso   1.00
F863   F     0.20729   0.49706   0.88762   0.00000  Uiso   1.00
F864   F     0.30129   0.45335   0.62159   0.00000  Uiso   1.00
F865   F     0.03916   0.51070   0.88856   0.00000  Uiso   1.00
F866   F     0.01028   0.51168   0.97869   0.00000  Uiso   1.00
F867   F     0.00246   0.42780   0.53659   0.00000  Uiso   1.00
F868   F     0.18485   0.48948   0.59658   0.00000  Uiso   1.00
H869   H     0.21143   0.41111   0.77847   0.00000  Uiso   1.00
H870   H     0.22226   0.44451   0.82026   0.00000  Uiso   1.00
H871   H     0.16496   0.42223   0.82819   0.00000  Uiso   1.00
H872   H     0.14391   0.59129   0.70501   0.00000  Uiso   1.00
H873   H     0.16585   0.55853   0.65797   0.00000  Uiso   1.00
H874   H     0.10401   0.55828   0.68722   0.00000  Uiso   1.00
N875   N     0.11736   0.50001   0.74999   0.00000  Uiso   1.00
N876   N     0.21597   0.49999   0.75001   0.00000  Uiso   1.00
O877   O     0.03958   0.43989   0.75000   0.00000  Uiso   1.00
O878   O     0.29375   0.56011   0.75000   0.00000  Uiso   1.00
O879   O     0.29372   0.43988   0.75001   0.00000  Uiso   1.00
O880   O     0.03961   0.56012   0.75000   0.00000  Uiso   1.00
O881   O     0.01852   0.50001   0.81491   0.00000  Uiso   1.00
O882   O     0.31481   0.49999   0.68509   0.00000  Uiso   1.00
O883   O     0.27267   0.50000   0.81492   0.00000  Uiso   1.00
O884   O     0.06067   0.50000   0.68508   0.00000  Uiso   1.00
C885   C     0.66647   0.42081   0.75025   0.00000  Uiso   1.00
C886   C     0.36185   0.35407   0.77227   0.00000  Uiso   1.00
C887   C     0.33380   0.62385   0.74945   0.00000  Uiso   1.00
C888   C     0.66638   0.37616   0.75025   0.00000  Uiso   1.00
C889   C     0.51555   0.47165   0.77633   0.00000  Uiso   1.00
C890   C     0.48479   0.52774   0.72301   0.00000  Uiso   1.00
C891   C     0.46597   0.47282   0.77688   0.00000  Uiso   1.00
C892   C     0.53389   0.52747   0.72357   0.00000  Uiso   1.00
C893   C     0.63908   0.50022   0.83624   0.00000  Uiso   1.00
C894   C     0.36082   0.49847   0.66407   0.00000  Uiso   1.00
C895   C     0.62391   0.49920   0.88600   0.00000  Uiso   1.00
C896   C     0.33357   0.57920   0.74965   0.00000  Uiso   1.00
C897   C     0.37622   0.48911   0.61612   0.00000  Uiso   1.00
C898   C     0.64319   0.50413   0.95694   0.00000  Uiso   1.00
C899   C     0.36547   0.45046   0.55401   0.00000  Uiso   1.00
C900   C     0.65809   0.50405   0.91011   0.00000  Uiso   1.00
C901   C     0.34713   0.46456   0.59748   0.00000  Uiso   1.00
C902   C     0.57480   0.49301   0.90984   0.00000  Uiso   1.00
C903   C     0.42353   0.49945   0.59080   0.00000  Uiso   1.00
C904   C     0.56031   0.48747   0.95703   0.00000  Uiso   1.00
C905   C     0.44476   0.48059   0.54981   0.00000  Uiso   1.00
C906   C     0.59427   0.49660   0.98078   0.00000  Uiso   1.00
C907   C     0.52982   0.49228   0.55096   0.00000  Uiso   1.00
C908   C     0.41428   0.45836   0.52973   0.00000  Uiso   1.00
C909   C     0.51207   0.47571   0.98139   0.00000  Uiso   1.00
C910   C     0.49519   0.48413   0.52770   0.00000  Uiso   1.00
C911   C     0.52981   0.43590   0.80197   0.00000  Uiso   1.00
C912   C     0.47323   0.56036   0.69207   0.00000  Uiso   1.00
C913   C     0.48142   0.45284   0.96216   0.00000  Uiso   1.00
C914   C     0.57857   0.49807   0.52779   0.00000  Uiso   1.00
C915   C     0.43349   0.44388   0.98628   0.00000  Uiso   1.00
C916   C     0.63804   0.35529   0.72773   0.00000  Uiso   1.00
C917   C     0.36233   0.64475   0.77178   0.00000  Uiso   1.00
C918   C     0.63841   0.64595   0.72734   0.00000  Uiso   1.00
Cu919  Cu    0.38022   0.50001   0.75000   0.00000  Uiso   1.00
Cu920  Cu    0.61978   0.49999   0.75000   0.00000  Uiso   1.00
F921   F     0.61004   0.50624   0.55175   0.00000  Uiso   1.00
F922   F     0.49903   0.43421   0.92236   0.00000  Uiso   1.00
F923   F     0.61121   0.37615   0.70493   0.00000  Uiso   1.00
F924   F     0.38950   0.62390   0.79425   0.00000  Uiso   1.00
F925   F     0.61183   0.62640   0.70422   0.00000  Uiso   1.00
F926   F     0.38847   0.37361   0.79537   0.00000  Uiso   1.00
F927   F     0.43307   0.44609   0.80388   0.00000  Uiso   1.00
F928   F     0.56658   0.55424   0.69635   0.00000  Uiso   1.00
F929   F     0.40602   0.42105   0.96662   0.00000  Uiso   1.00
F930   F     0.44700   0.53046   0.60476   0.00000  Uiso   1.00
F931   F     0.54062   0.49706   0.88762   0.00000  Uiso   1.00
F932   F     0.63462   0.45335   0.62159   0.00000  Uiso   1.00
F933   F     0.37249   0.51070   0.88856   0.00000  Uiso   1.00
F934   F     0.34362   0.51168   0.97869   0.00000  Uiso   1.00
F935   F     0.33579   0.42780   0.53659   0.00000  Uiso   1.00
F936   F     0.51818   0.48948   0.59658   0.00000  Uiso   1.00
H937   H     0.54476   0.41111   0.77847   0.00000  Uiso   1.00
H938   H     0.55560   0.44451   0.82026   0.00000  Uiso   1.00
H939   H     0.49829   0.42223   0.82819   0.00000  Uiso   1.00
H940   H     0.47725   0.59129   0.70501   0.00000  Uiso   1.00
H941   H     0.49919   0.55853   0.65797   0.00000  Uiso   1.00
H942   H     0.43734   0.55828   0.68722   0.00000  Uiso   1.00
N943   N     0.45069   0.50001   0.74999   0.00000  Uiso   1.00
N944   N     0.54931   0.49999   0.75001   0.00000  Uiso   1.00
O945   O     0.37291   0.43989   0.75000   0.00000  Uiso   1.00
O946   O     0.62709   0.56011   0.75000   0.00000  Uiso   1.00
O947   O     0.62706   0.43988   0.75001   0.00000  Uiso   1.00
O948   O     0.37294   0.56012   0.75000   0.00000  Uiso   1.00
O949   O     0.35186   0.50001   0.81491   0.00000  Uiso   1.00
O950   O     0.64814   0.49999   0.68509   0.00000  Uiso   1.00
O951   O     0.60600   0.50000   0.81492   0.00000  Uiso   1.00
O952   O     0.39400   0.50000   0.68508   0.00000  Uiso   1.00
C953   C     0.99980   0.42081   0.75025   0.00000  Uiso   1.00
C954   C     0.69519   0.35407   0.77227   0.00000  Uiso   1.00
C955   C     0.66713   0.62385   0.74945   0.00000  Uiso   1.00
C956   C     0.99971   0.37616   0.75025   0.00000  Uiso   1.00
C957   C     0.84888   0.47165   0.77633   0.00000  Uiso   1.00
C958   C     0.81812   0.52774   0.72301   0.00000  Uiso   1.00
C959   C     0.79931   0.47282   0.77688   0.00000  Uiso   1.00
C960   C     0.86722   0.52747   0.72357   0.00000  Uiso   1.00
C961   C     0.97241   0.50022   0.83624   0.00000  Uiso   1.00
C962   C     0.69415   0.49847   0.66407   0.00000  Uiso   1.00
C963   C     0.95724   0.49920   0.88600   0.00000  Uiso   1.00
C964   C     0.66691   0.57920   0.74965   0.00000  Uiso   1.00
C965   C     0.70955   0.48911   0.61612   0.00000  Uiso   1.00
C966   C     0.97653   0.50413   0.95694   0.00000  Uiso   1.00
C967   C     0.69880   0.45046   0.55401   0.00000  Uiso   1.00
C968   C     0.99142   0.50405   0.91011   0.00000  Uiso   1.00
C969   C     0.68046   0.46456   0.59748   0.00000  Uiso   1.00
C970   C     0.90813   0.49301   0.90984   0.00000  Uiso   1.00
C971   C     0.75686   0.49945   0.59080   0.00000  Uiso   1.00
C972   C     0.89364   0.48747   0.95703   0.00000  Uiso   1.00
C973   C     0.77809   0.48059   0.54981   0.00000  Uiso   1.00
C974   C     0.92761   0.49660   0.98078   0.00000  Uiso   1.00
C975   C     0.86315   0.49228   0.55096   0.00000  Uiso   1.00
C976   C     0.74761   0.45836   0.52973   0.00000  Uiso   1.00
C977   C     0.84540   0.47571   0.98139   0.00000  Uiso   1.00
C978   C     0.82853   0.48413   0.52770   0.00000  Uiso   1.00
C979   C     0.86315   0.43590   0.80197   0.00000  Uiso   1.00
C980   C     0.80657   0.56036   0.69207   0.00000  Uiso   1.00
C981   C     0.81475   0.45284   0.96216   0.00000  Uiso   1.00
C982   C     0.91190   0.49807   0.52779   0.00000  Uiso   1.00
C983   C     0.76683   0.44388   0.98628   0.00000  Uiso   1.00
C984   C     0.97137   0.35529   0.72773   0.00000  Uiso   1.00
C985   C     0.69566   0.64475   0.77178   0.00000  Uiso   1.00
C986   C     0.97174   0.64595   0.72734   0.00000  Uiso   1.00
Cu987  Cu    0.71355   0.50001   0.75000   0.00000  Uiso   1.00
Cu988  Cu    0.95311   0.49999   0.75000   0.00000  Uiso   1.00
F989   F     0.94337   0.50624   0.55175   0.00000  Uiso   1.00
F990   F     0.83236   0.43421   0.92236   0.00000  Uiso   1.00
F991   F     0.94454   0.37615   0.70493   0.00000  Uiso   1.00
F992   F     0.72283   0.62390   0.79425   0.00000  Uiso   1.00
F993   F     0.94516   0.62640   0.70422   0.00000  Uiso   1.00
F994   F     0.72180   0.37361   0.79537   0.00000  Uiso   1.00
F995   F     0.76640   0.44609   0.80388   0.00000  Uiso   1.00
F996   F     0.89992   0.55424   0.69635   0.00000  Uiso   1.00
F997   F     0.73936   0.42105   0.96662   0.00000  Uiso   1.00
F998   F     0.78033   0.53046   0.60476   0.00000  Uiso   1.00
F999   F     0.87396   0.49706   0.88762   0.00000  Uiso   1.00
F1000  F     0.96796   0.45335   0.62159   0.00000  Uiso   1.00
F1001  F     0.70582   0.51070   0.88856   0.00000  Uiso   1.00
F1002  F     0.67695   0.51168   0.97869   0.00000  Uiso   1.00
F1003  F     0.66913   0.42780   0.53659   0.00000  Uiso   1.00
F1004  F     0.85151   0.48948   0.59658   0.00000  Uiso   1.00
H1005  H     0.87809   0.41111   0.77847   0.00000  Uiso   1.00
H1006  H     0.88893   0.44451   0.82026   0.00000  Uiso   1.00
H1007  H     0.83163   0.42223   0.82819   0.00000  Uiso   1.00
H1008  H     0.81058   0.59129   0.70501   0.00000  Uiso   1.00
H1009  H     0.83252   0.55853   0.65797   0.00000  Uiso   1.00
H1010  H     0.77068   0.55828   0.68722   0.00000  Uiso   1.00
N1011  N     0.78403   0.50001   0.74999   0.00000  Uiso   1.00
N1012  N     0.88264   0.49999   0.75001   0.00000  Uiso   1.00
O1013  O     0.70625   0.43989   0.75000   0.00000  Uiso   1.00
O1014  O     0.96042   0.56011   0.75000   0.00000  Uiso   1.00
O1015  O     0.96039   0.43988   0.75001   0.00000  Uiso   1.00
O1016  O     0.70628   0.56012   0.75000   0.00000  Uiso   1.00
O1017  O     0.68519   0.50001   0.81491   0.00000  Uiso   1.00
O1018  O     0.98148   0.49999   0.68509   0.00000  Uiso   1.00
O1019  O     0.93933   0.50000   0.81492   0.00000  Uiso   1.00
O1020  O     0.72733   0.50000   0.68508   0.00000  Uiso   1.00
C1021  C     0.33314   0.75414   0.75025   0.00000  Uiso   1.00
C1022  C     0.02852   0.68741   0.77227   0.00000  Uiso   1.00
C1023  C     0.00046   0.95719   0.74945   0.00000  Uiso   1.00
C1024  C     0.33305   0.70950   0.75025   0.00000  Uiso   1.00
C1025  C     0.18221   0.80499   0.77633   0.00000  Uiso   1.00
C1026  C     0.15145   0.86108   0.72301   0.00000  Uiso   1.00
C1027  C     0.13264   0.80615   0.77688   0.00000  Uiso   1.00
C1028  C     0.20056   0.86080   0.72357   0.00000  Uiso   1.00
C1029  C     0.30575   0.83355   0.83624   0.00000  Uiso   1.00
C1030  C     0.02749   0.83181   0.66407   0.00000  Uiso   1.00
C1031  C     0.29057   0.83254   0.88600   0.00000  Uiso   1.00
C1032  C     0.00024   0.91253   0.74965   0.00000  Uiso   1.00
C1033  C     0.04288   0.82245   0.61612   0.00000  Uiso   1.00
C1034  C     0.30986   0.83746   0.95694   0.00000  Uiso   1.00
C1035  C     0.03213   0.78379   0.55401   0.00000  Uiso   1.00
C1036  C     0.32475   0.83738   0.91011   0.00000  Uiso   1.00
C1037  C     0.01379   0.79789   0.59748   0.00000  Uiso   1.00
C1038  C     0.24147   0.82634   0.90984   0.00000  Uiso   1.00
C1039  C     0.09019   0.83278   0.59080   0.00000  Uiso   1.00
C1040  C     0.22698   0.82080   0.95703   0.00000  Uiso   1.00
C1041  C     0.11143   0.81392   0.54981   0.00000  Uiso   1.00
C1042  C     0.26094   0.82993   0.98078   0.00000  Uiso   1.00
C1043  C     0.19648   0.82561   0.55096   0.00000  Uiso   1.00
C1044  C     0.08094   0.79169   0.52973   0.00000  Uiso   1.00
C1045  C     0.17874   0.80905   0.98139   0.00000  Uiso   1.00
C1046  C     0.16186   0.81746   0.52770   0.00000  Uiso   1.00
C1047  C     0.19648   0.76924   0.80197   0.00000  Uiso   1.00
C1048  C     0.13990   0.89369   0.69207   0.00000  Uiso   1.00
C1049  C     0.14809   0.78618   0.96216   0.00000  Uiso   1.00
C1050  C     0.24523   0.83140   0.52779   0.00000  Uiso   1.00
C1051  C     0.10016   0.77722   0.98628   0.00000  Uiso   1.00
C1052  C     0.30471   0.68862   0.72773   0.00000  Uiso   1.00
C1053  C     0.02899   0.97808   0.77178   0.00000  Uiso   1.00
C1054  C     0.30507   0.97928   0.72734   0.00000  Uiso   1.00
Cu1055 Cu    0.04689   0.83334   0.75000   0.00000  Uiso   1.00
Cu1056 Cu    0.28645   0.83333   0.75000   0.00000  Uiso   1.00
F1057  F     0.27671   0.83958   0.55175   0.00000  Uiso   1.00
F1058  F     0.16569   0.76755   0.92236   0.00000  Uiso   1.00
F1059  F     0.27787   0.70949   0.70493   0.00000  Uiso   1.00
F1060  F     0.05617   0.95723   0.79425   0.00000  Uiso   1.00
F1061  F     0.27849   0.95974   0.70422   0.00000  Uiso   1.00
F1062  F     0.05514   0.70694   0.79537   0.00000  Uiso   1.00
F1063  F     0.09974   0.77942   0.80388   0.00000  Uiso   1.00
F1064  F     0.23325   0.88757   0.69635   0.00000  Uiso   1.00
F1065  F     0.07269   0.75438   0.96662   0.00000  Uiso   1.00
F1066  F     0.11367   0.86379   0.60476   0.00000  Uiso   1.00
F1067  F     0.20729   0.83039   0.88762   0.00000  Uiso   1.00
F1068  F     0.30129   0.78669   0.62159   0.00000  Uiso   1.00
F1069  F     0.03916   0.84404   0.88856   0.00000  Uiso   1.00
F1070  F     0.01028   0.84501   0.97869   0.00000  Uiso   1.00
F1071  F     0.00246   0.76114   0.53659   0.00000  Uiso   1.00
F1072  F     0.18485   0.82282   0.59658   0.00000  Uiso   1.00
H1073  H     0.21143   0.74445   0.77847   0.00000  Uiso   1.00
H1074  H     0.22226   0.77784   0.82026   0.00000  Uiso   1.00
H1075  H     0.16496   0.75556   0.82819   0.00000  Uiso   1.00
H1076  H     0.14391   0.92462   0.70501   0.00000  Uiso   1.00
H1077  H     0.16585   0.89187   0.65797   0.00000  Uiso   1.00
H1078  H     0.10401   0.89161   0.68722   0.00000  Uiso   1.00
N1079  N     0.11736   0.83334   0.74999   0.00000  Uiso   1.00
N1080  N     0.21597   0.83332   0.75001   0.00000  Uiso   1.00
O1081  O     0.03958   0.77322   0.75000   0.00000  Uiso   1.00
O1082  O     0.29375   0.89345   0.75000   0.00000  Uiso   1.00
O1083  O     0.29372   0.77321   0.75001   0.00000  Uiso   1.00
O1084  O     0.03961   0.89346   0.75000   0.00000  Uiso   1.00
O1085  O     0.01852   0.83334   0.81491   0.00000  Uiso   1.00
O1086  O     0.31481   0.83332   0.68509   0.00000  Uiso   1.00
O1087  O     0.27267   0.83333   0.81492   0.00000  Uiso   1.00
O1088  O     0.06067   0.83333   0.68508   0.00000  Uiso   1.00
C1089  C     0.66647   0.75414   0.75025   0.00000  Uiso   1.00
C1090  C     0.36185   0.68741   0.77227   0.00000  Uiso   1.00
C1091  C     0.33380   0.95719   0.74945   0.00000  Uiso   1.00
C1092  C     0.66638   0.70950   0.75025   0.00000  Uiso   1.00
C1093  C     0.51555   0.80499   0.77633   0.00000  Uiso   1.00
C1094  C     0.48479   0.86108   0.72301   0.00000  Uiso   1.00
C1095  C     0.46597   0.80615   0.77688   0.00000  Uiso   1.00
C1096  C     0.53389   0.86080   0.72357   0.00000  Uiso   1.00
C1097  C     0.63908   0.83355   0.83624   0.00000  Uiso   1.00
C1098  C     0.36082   0.83181   0.66407   0.00000  Uiso   1.00
C1099  C     0.62391   0.83254   0.88600   0.00000  Uiso   1.00
C1100  C     0.33357   0.91253   0.74965   0.00000  Uiso   1.00
C1101  C     0.37622   0.82245   0.61612   0.00000  Uiso   1.00
C1102  C     0.64319   0.83746   0.95694   0.00000  Uiso   1.00
C1103  C     0.36547   0.78379   0.55401   0.00000  Uiso   1.00
C1104  C     0.65809   0.83738   0.91011   0.00000  Uiso   1.00
C1105  C     0.34713   0.79789   0.59748   0.00000  Uiso   1.00
C1106  C     0.57480   0.82634   0.90984   0.00000  Uiso   1.00
C1107  C     0.42353   0.83278   0.59080   0.00000  Uiso   1.00
C1108  C     0.56031   0.82080   0.95703   0.00000  Uiso   1.00
C1109  C     0.44476   0.81392   0.54981   0.00000  Uiso   1.00
C1110  C     0.59427   0.82993   0.98078   0.00000  Uiso   1.00
C1111  C     0.52982   0.82561   0.55096   0.00000  Uiso   1.00
C1112  C     0.41428   0.79169   0.52973   0.00000  Uiso   1.00
C1113  C     0.51207   0.80905   0.98139   0.00000  Uiso   1.00
C1114  C     0.49519   0.81746   0.52770   0.00000  Uiso   1.00
C1115  C     0.52981   0.76924   0.80197   0.00000  Uiso   1.00
C1116  C     0.47323   0.89369   0.69207   0.00000  Uiso   1.00
C1117  C     0.48142   0.78618   0.96216   0.00000  Uiso   1.00
C1118  C     0.57857   0.83140   0.52779   0.00000  Uiso   1.00
C1119  C     0.43349   0.77722   0.98628   0.00000  Uiso   1.00
C1120  C     0.63804   0.68862   0.72773   0.00000  Uiso   1.00
C1121  C     0.36233   0.97808   0.77178   0.00000  Uiso   1.00
C1122  C     0.63841   0.97928   0.72734   0.00000  Uiso   1.00
Cu1123 Cu    0.38022   0.83334   0.75000   0.00000  Uiso   1.00
Cu1124 Cu    0.61978   0.83333   0.75000   0.00000  Uiso   1.00
F1125  F     0.61004   0.83958   0.55175   0.00000  Uiso   1.00
F1126  F     0.49903   0.76755   0.92236   0.00000  Uiso   1.00
F1127  F     0.61121   0.70949   0.70493   0.00000  Uiso   1.00
F1128  F     0.38950   0.95723   0.79425   0.00000  Uiso   1.00
F1129  F     0.61183   0.95974   0.70422   0.00000  Uiso   1.00
F1130  F     0.38847   0.70694   0.79537   0.00000  Uiso   1.00
F1131  F     0.43307   0.77942   0.80388   0.00000  Uiso   1.00
F1132  F     0.56658   0.88757   0.69635   0.00000  Uiso   1.00
F1133  F     0.40602   0.75438   0.96662   0.00000  Uiso   1.00
F1134  F     0.44700   0.86379   0.60476   0.00000  Uiso   1.00
F1135  F     0.54062   0.83039   0.88762   0.00000  Uiso   1.00
F1136  F     0.63462   0.78669   0.62159   0.00000  Uiso   1.00
F1137  F     0.37249   0.84404   0.88856   0.00000  Uiso   1.00
F1138  F     0.34362   0.84501   0.97869   0.00000  Uiso   1.00
F1139  F     0.33579   0.76114   0.53659   0.00000  Uiso   1.00
F1140  F     0.51818   0.82282   0.59658   0.00000  Uiso   1.00
H1141  H     0.54476   0.74445   0.77847   0.00000  Uiso   1.00
H1142  H     0.55560   0.77784   0.82026   0.00000  Uiso   1.00
H1143  H     0.49829   0.75556   0.82819   0.00000  Uiso   1.00
H1144  H     0.47725   0.92462   0.70501   0.00000  Uiso   1.00
H1145  H     0.49919   0.89187   0.65797   0.00000  Uiso   1.00
H1146  H     0.43734   0.89161   0.68722   0.00000  Uiso   1.00
N1147  N     0.45069   0.83334   0.74999   0.00000  Uiso   1.00
N1148  N     0.54931   0.83332   0.75001   0.00000  Uiso   1.00
O1149  O     0.37291   0.77322   0.75000   0.00000  Uiso   1.00
O1150  O     0.62709   0.89345   0.75000   0.00000  Uiso   1.00
O1151  O     0.62706   0.77321   0.75001   0.00000  Uiso   1.00
O1152  O     0.37294   0.89346   0.75000   0.00000  Uiso   1.00
O1153  O     0.35186   0.83334   0.81491   0.00000  Uiso   1.00
O1154  O     0.64814   0.83332   0.68509   0.00000  Uiso   1.00
O1155  O     0.60600   0.83333   0.81492   0.00000  Uiso   1.00
O1156  O     0.39400   0.83333   0.68508   0.00000  Uiso   1.00
C1157  C     0.99980   0.75414   0.75025   0.00000  Uiso   1.00
C1158  C     0.69519   0.68741   0.77227   0.00000  Uiso   1.00
C1159  C     0.66713   0.95719   0.74945   0.00000  Uiso   1.00
C1160  C     0.99971   0.70950   0.75025   0.00000  Uiso   1.00
C1161  C     0.84888   0.80499   0.77633   0.00000  Uiso   1.00
C1162  C     0.81812   0.86108   0.72301   0.00000  Uiso   1.00
C1163  C     0.79931   0.80615   0.77688   0.00000  Uiso   1.00
C1164  C     0.86722   0.86080   0.72357   0.00000  Uiso   1.00
C1165  C     0.97241   0.83355   0.83624   0.00000  Uiso   1.00
C1166  C     0.69415   0.83181   0.66407   0.00000  Uiso   1.00
C1167  C     0.95724   0.83254   0.88600   0.00000  Uiso   1.00
C1168  C     0.66691   0.91253   0.74965   0.00000  Uiso   1.00
C1169  C     0.70955   0.82245   0.61612   0.00000  Uiso   1.00
C1170  C     0.97653   0.83746   0.95694   0.00000  Uiso   1.00
C1171  C     0.69880   0.78379   0.55401   0.00000  Uiso   1.00
C1172  C     0.99142   0.83738   0.91011   0.00000  Uiso   1.00
C1173  C     0.68046   0.79789   0.59748   0.00000  Uiso   1.00
C1174  C     0.90813   0.82634   0.90984   0.00000  Uiso   1.00
C1175  C     0.75686   0.83278   0.59080   0.00000  Uiso   1.00
C1176  C     0.89364   0.82080   0.95703   0.00000  Uiso   1.00
C1177  C     0.77809   0.81392   0.54981   0.00000  Uiso   1.00
C1178  C     0.92761   0.82993   0.98078   0.00000  Uiso   1.00
C1179  C     0.86315   0.82561   0.55096   0.00000  Uiso   1.00
C1180  C     0.74761   0.79169   0.52973   0.00000  Uiso   1.00
C1181  C     0.84540   0.80905   0.98139   0.00000  Uiso   1.00
C1182  C     0.82853   0.81746   0.52770   0.00000  Uiso   1.00
C1183  C     0.86315   0.76924   0.80197   0.00000  Uiso   1.00
C1184  C     0.80657   0.89369   0.69207   0.00000  Uiso   1.00
C1185  C     0.81475   0.78618   0.96216   0.00000  Uiso   1.00
C1186  C     0.91190   0.83140   0.52779   0.00000  Uiso   1.00
C1187  C     0.76683   0.77722   0.98628   0.00000  Uiso   1.00
C1188  C     0.97137   0.68862   0.72773   0.00000  Uiso   1.00
C1189  C     0.69566   0.97808   0.77178   0.00000  Uiso   1.00
C1190  C     0.97174   0.97928   0.72734   0.00000  Uiso   1.00
Cu1191 Cu    0.71355   0.83334   0.75000   0.00000  Uiso   1.00
Cu1192 Cu    0.95311   0.83333   0.75000   0.00000  Uiso   1.00
F1193  F     0.94337   0.83958   0.55175   0.00000  Uiso   1.00
F1194  F     0.83236   0.76755   0.92236   0.00000  Uiso   1.00
F1195  F     0.94454   0.70949   0.70493   0.00000  Uiso   1.00
F1196  F     0.72283   0.95723   0.79425   0.00000  Uiso   1.00
F1197  F     0.94516   0.95974   0.70422   0.00000  Uiso   1.00
F1198  F     0.72180   0.70694   0.79537   0.00000  Uiso   1.00
F1199  F     0.76640   0.77942   0.80388   0.00000  Uiso   1.00
F1200  F     0.89992   0.88757   0.69635   0.00000  Uiso   1.00
F1201  F     0.73936   0.75438   0.96662   0.00000  Uiso   1.00
F1202  F     0.78033   0.86379   0.60476   0.00000  Uiso   1.00
F1203  F     0.87396   0.83039   0.88762   0.00000  Uiso   1.00
F1204  F     0.96796   0.78669   0.62159   0.00000  Uiso   1.00
F1205  F     0.70582   0.84404   0.88856   0.00000  Uiso   1.00
F1206  F     0.67695   0.84501   0.97869   0.00000  Uiso   1.00
F1207  F     0.66913   0.76114   0.53659   0.00000  Uiso   1.00
F1208  F     0.85151   0.82282   0.59658   0.00000  Uiso   1.00
H1209  H     0.87809   0.74445   0.77847   0.00000  Uiso   1.00
H1210  H     0.88893   0.77784   0.82026   0.00000  Uiso   1.00
H1211  H     0.83163   0.75556   0.82819   0.00000  Uiso   1.00
H1212  H     0.81058   0.92462   0.70501   0.00000  Uiso   1.00
H1213  H     0.83252   0.89187   0.65797   0.00000  Uiso   1.00
H1214  H     0.77068   0.89161   0.68722   0.00000  Uiso   1.00
N1215  N     0.78403   0.83334   0.74999   0.00000  Uiso   1.00
N1216  N     0.88264   0.83332   0.75001   0.00000  Uiso   1.00
O1217  O     0.70625   0.77322   0.75000   0.00000  Uiso   1.00
O1218  O     0.96042   0.89345   0.75000   0.00000  Uiso   1.00
O1219  O     0.96039   0.77321   0.75001   0.00000  Uiso   1.00
O1220  O     0.70628   0.89346   0.75000   0.00000  Uiso   1.00
O1221  O     0.68519   0.83334   0.81491   0.00000  Uiso   1.00
O1222  O     0.98148   0.83332   0.68509   0.00000  Uiso   1.00
O1223  O     0.93933   0.83333   0.81492   0.00000  Uiso   1.00
O1224  O     0.72733   0.83333   0.68508   0.00000  Uiso   1.00
loop_
_geom_bond_atom_site_label_1
_geom_bond_atom_site_label_2
_geom_bond_distance
_geom_bond_site_symmetry_2
_ccdc_geom_bond_type
C1     C4      1.449   .     S
C1     O63     1.299   .     A
C1     O129    1.296   .     S
C2     F42     1.357   .     S
C2     C140    1.404   1_455 S
C2     C441    1.385   1_545 S
C3     C33     1.401   .     A
C3     C12     1.449   .     S
C3     C170    1.404   1_455 S
C4     C32     1.401   .     A
C4     C70     1.404   .     S
C5     C7      1.424   .     A
C5     N60     1.393   .     A
C5     C27     1.510   .     S
C6     C28     1.508   .     S
C6     C8      1.420   .     A
C6     N59     1.393   .     A
C7     N59     1.355   .     A
C7     F43     1.356   .     S
C8     N60     1.353   .     A
C8     F44     1.356   .     S
C9     O67     1.306   .     A
C9     C11     1.479   .     S
C9     O133    1.304   .     S
C10    O68     1.304   .     A
C10    C13     1.469   .     S
C10    O202    1.301   1_455 S
C11    C18     1.406   .     A
C11    C16     1.408   .     A
C12    O64     1.299   .     A
C12    O198    1.297   1_455 S
C13    C17     1.404   .     A
C13    C19     1.396   .     A
C14    C22     1.407   .     A
C14    C16     1.393   .     A
C14    F118    1.358   .     S
C15    C17     1.395   .     A
C15    F51     1.358   .     S
C15    C24     1.409   .     A
C16    F117    1.358   .     S
C17    F184    1.358   1_455 S
C18    C20     1.408   .     A
C18    F47     1.359   .     S
C19    C21     1.407   .     A
C19    F46     1.358   .     S
C20    C22     1.418   .     A
C20    C25     1.421   .     A
C21    C26     1.420   .     A
C21    C24     1.419   .     A
C22    C642    1.401   .     S
C23    F52     1.358   .     S
C23    C30     1.391   .     A
C23    C26     1.417   .     A
C24    C643    1.401   1_554 S
C25    C29     1.417   .     A
C25    C638    1.416   .     S
C26    C637    1.416   1_554 S
C27    H53     1.109   .     S
C27    H54     1.096   .     S
C27    H55     1.109   .     S
C28    H58     1.089   .     S
C28    H56     1.111   .     S
C28    H57     1.111   .     S
C29    F38     1.358   .     S
C29    C31     1.392   .     A
C30    F37     1.357   .     S
C30    C634    1.401   1_554 S
C31    F45     1.358   .     S
C31    C636    1.401   .     S
C32    F39     1.359   .     S
C32    C442    1.385   1_545 S
C33    F40     1.359   .     S
C33    C206    1.385   .     S
C34    F41     1.357   .     S
C34    C71     1.404   .     S
C34    C236    1.385   .     S
Cu35   O64     1.964   .     S
Cu35   O61     1.961   .     S
Cu35   O68     1.939   .     S
Cu35   N59     2.030   .     S
Cu35   O65     1.945   .     S
Cu35   Cu172   2.701   1_455 S
Cu36   O63     1.964   .     S
Cu36   O66     1.945   .     S
Cu36   O67     1.939   .     S
Cu36   O62     1.961   .     S
Cu36   N60     2.030   .     S
Cu36   Cu103   2.701   .     S
F48    C85     1.358   .     S
F49    C152    1.358   1_455 S
F50    C150    1.358   1_455 S
O61    C137    1.296   1_455 S
O62    C80     1.297   .     S
O65    C145    1.304   1_455 S
O66    C78     1.301   .     S
C69    C72     1.449   .     S
C69    O131    1.299   .     A
C69    O197    1.296   .     S
C70    F110    1.357   .     S
C70    C509    1.385   1_545 S
C71    C101    1.401   .     A
C71    C80     1.449   .     S
C72    C100    1.401   .     A
C72    C138    1.404   .     S
C73    C75     1.424   .     A
C73    N128    1.393   .     A
C73    C95     1.510   .     S
C74    C96     1.508   .     S
C74    C76     1.420   .     A
C74    N127    1.393   .     A
C75    N127    1.355   .     A
C75    F111    1.356   .     S
C76    N128    1.353   .     A
C76    F112    1.356   .     S
C77    O135    1.306   .     A
C77    C79     1.479   .     S
C77    O201    1.304   .     S
C78    O136    1.304   .     A
C78    C81     1.469   .     S
C79    C86     1.406   .     A
C79    C84     1.408   .     A
C80    O132    1.299   .     A
C81    C85     1.404   .     A
C81    C87     1.396   .     A
C82    C90     1.407   .     A
C82    C84     1.393   .     A
C82    F186    1.358   .     S
C83    C85     1.395   .     A
C83    F119    1.358   .     S
C83    C92     1.409   .     A
C84    F185    1.358   .     S
C86    C88     1.408   .     A
C86    F115    1.359   .     S
C87    C89     1.407   .     A
C87    F114    1.358   .     S
C88    C90     1.418   .     A
C88    C93     1.421   .     A
C89    C94     1.420   .     A
C89    C92     1.419   .     A
C90    C710    1.401   .     S
C91    F120    1.358   .     S
C91    C98     1.391   .     A
C91    C94     1.417   .     A
C92    C711    1.401   1_554 S
C93    C97     1.417   .     A
C93    C706    1.416   .     S
C94    C705    1.416   1_554 S
C95    H121    1.109   .     S
C95    H122    1.096   .     S
C95    H123    1.109   .     S
C96    H126    1.089   .     S
C96    H124    1.111   .     S
C96    H125    1.111   .     S
C97    F106    1.358   .     S
C97    C99     1.392   .     A
C98    F105    1.357   .     S
C98    C702    1.401   1_554 S
C99    F113    1.358   .     S
C99    C704    1.401   .     S
C100   F107    1.359   .     S
C100   C510    1.385   1_545 S
C101   F108    1.359   .     S
C101   C274    1.385   .     S
C102   F109    1.357   .     S
C102   C139    1.404   .     S
C102   C304    1.385   .     S
Cu103  O132    1.964   .     S
Cu103  O129    1.961   .     S
Cu103  O136    1.939   .     S
Cu103  N127    2.030   .     S
Cu103  O133    1.945   .     S
Cu104  O131    1.964   .     S
Cu104  O134    1.945   .     S
Cu104  O135    1.939   .     S
Cu104  O130    1.961   .     S
Cu104  N128    2.030   .     S
Cu104  Cu171   2.701   .     S
F116   C153    1.358   .     S
O130   C148    1.297   .     S
O134   C146    1.301   .     S
C137   C140    1.449   .     S
C137   O199    1.299   .     A
C137   O61     1.296   1_655 S
C138   F178    1.357   .     S
C138   C577    1.385   1_545 S
C139   C169    1.401   .     A
C139   C148    1.449   .     S
C140   C168    1.401   .     A
C140   C2      1.404   1_655 S
C141   C143    1.424   .     A
C141   N196    1.393   .     A
C141   C163    1.510   .     S
C142   C164    1.508   .     S
C142   C144    1.420   .     A
C142   N195    1.393   .     A
C143   N195    1.355   .     A
C143   F179    1.356   .     S
C144   N196    1.353   .     A
C144   F180    1.356   .     S
C145   O203    1.306   .     A
C145   C147    1.479   .     S
C145   O65     1.304   1_655 S
C146   O204    1.304   .     A
C146   C149    1.469   .     S
C147   C154    1.406   .     A
C147   C152    1.408   .     A
C148   O200    1.299   .     A
C149   C153    1.404   .     A
C149   C155    1.396   .     A
C150   C158    1.407   .     A
C150   C152    1.393   .     A
C150   F50     1.358   1_655 S
C151   C153    1.395   .     A
C151   F187    1.358   .     S
C151   C160    1.409   .     A
C152   F49     1.358   1_655 S
C154   C156    1.408   .     A
C154   F183    1.359   .     S
C155   C157    1.407   .     A
C155   F182    1.358   .     S
C156   C158    1.418   .     A
C156   C161    1.421   .     A
C157   C162    1.420   .     A
C157   C160    1.419   .     A
C158   C778    1.401   .     S
C159   F188    1.358   .     S
C159   C166    1.391   .     A
C159   C162    1.417   .     A
C160   C779    1.401   1_554 S
C161   C165    1.417   .     A
C161   C774    1.416   .     S
C162   C773    1.416   1_554 S
C163   H189    1.109   .     S
C163   H190    1.096   .     S
C163   H191    1.109   .     S
C164   H194    1.089   .     S
C164   H192    1.111   .     S
C164   H193    1.111   .     S
C165   F174    1.358   .     S
C165   C167    1.392   .     A
C166   F173    1.357   .     S
C166   C770    1.401   1_554 S
C167   F181    1.358   .     S
C167   C772    1.401   .     S
C168   F175    1.359   .     S
C168   C578    1.385   1_545 S
C169   F176    1.359   .     S
C169   C342    1.385   .     S
C170   F177    1.357   .     S
C170   C3      1.404   1_655 S
C170   C372    1.385   .     S
Cu171  O200    1.964   .     S
Cu171  O197    1.961   .     S
Cu171  O204    1.939   .     S
Cu171  N195    2.030   .     S
Cu171  O201    1.945   .     S
Cu172  O199    1.964   .     S
Cu172  O202    1.945   .     S
Cu172  O203    1.939   .     S
Cu172  O198    1.961   .     S
Cu172  N196    2.030   .     S
Cu172  Cu35    2.701   1_655 S
F184   C17     1.358   1_655 S
O198   C12     1.297   1_655 S
O202   C10     1.301   1_655 S
C205   C208    1.449   .     S
C205   O267    1.299   .     A
C205   O333    1.296   .     S
C206   F246    1.357   .     S
C206   C344    1.404   1_455 S
C207   C237    1.401   .     A
C207   C216    1.449   .     S
C207   C374    1.404   1_455 S
C208   C236    1.401   .     A
C208   C274    1.404   .     S
C209   C211    1.424   .     A
C209   N264    1.393   .     A
C209   C231    1.510   .     S
C210   C232    1.508   .     S
C210   C212    1.420   .     A
C210   N263    1.393   .     A
C211   N263    1.355   .     A
C211   F247    1.356   .     S
C212   N264    1.353   .     A
C212   F248    1.356   .     S
C213   O271    1.306   .     A
C213   C215    1.479   .     S
C213   O337    1.304   .     S
C214   O272    1.304   .     A
C214   C217    1.469   .     S
C214   O406    1.301   1_455 S
C215   C222    1.406   .     A
C215   C220    1.408   .     A
C216   O268    1.299   .     A
C216   O402    1.297   1_455 S
C217   C221    1.404   .     A
C217   C223    1.396   .     A
C218   C226    1.407   .     A
C218   C220    1.393   .     A
C218   F322    1.358   .     S
C219   C221    1.395   .     A
C219   F255    1.358   .     S
C219   C228    1.409   .     A
C220   F321    1.358   .     S
C221   F388    1.358   1_455 S
C222   C224    1.408   .     A
C222   F251    1.359   .     S
C223   C225    1.407   .     A
C223   F250    1.358   .     S
C224   C226    1.418   .     A
C224   C229    1.421   .     A
C225   C230    1.420   .     A
C225   C228    1.419   .     A
C226   C846    1.401   .     S
C227   F256    1.358   .     S
C227   C234    1.391   .     A
C227   C230    1.417   .     A
C228   C847    1.401   1_554 S
C229   C233    1.417   .     A
C229   C842    1.416   .     S
C230   C841    1.416   1_554 S
C231   H257    1.109   .     S
C231   H258    1.096   .     S
C231   H259    1.109   .     S
C232   H262    1.089   .     S
C232   H260    1.111   .     S
C232   H261    1.111   .     S
C233   F242    1.358   .     S
C233   C235    1.392   .     A
C234   F241    1.357   .     S
C234   C838    1.401   1_554 S
C235   F249    1.358   .     S
C235   C840    1.401   .     S
C236   F243    1.359   .     S
C237   F244    1.359   .     S
C237   C410    1.385   .     S
C238   F245    1.357   .     S
C238   C275    1.404   .     S
C238   C440    1.385   .     S
Cu239  O268    1.964   .     S
Cu239  O265    1.961   .     S
Cu239  O272    1.939   .     S
Cu239  N263    2.030   .     S
Cu239  O269    1.945   .     S
Cu239  Cu376   2.701   1_455 S
Cu240  O267    1.964   .     S
Cu240  O270    1.945   .     S
Cu240  O271    1.939   .     S
Cu240  O266    1.961   .     S
Cu240  N264    2.030   .     S
Cu240  Cu307   2.701   .     S
F252   C289    1.358   .     S
F253   C356    1.358   1_455 S
F254   C354    1.358   1_455 S
O265   C341    1.296   1_455 S
O266   C284    1.297   .     S
O269   C349    1.304   1_455 S
O270   C282    1.301   .     S
C273   C276    1.449   .     S
C273   O335    1.299   .     A
C273   O401    1.296   .     S
C274   F314    1.357   .     S
C275   C305    1.401   .     A
C275   C284    1.449   .     S
C276   C304    1.401   .     A
C276   C342    1.404   .     S
C277   C279    1.424   .     A
C277   N332    1.393   .     A
C277   C299    1.510   .     S
C278   C300    1.508   .     S
C278   C280    1.420   .     A
C278   N331    1.393   .     A
C279   N331    1.355   .     A
C279   F315    1.356   .     S
C280   N332    1.353   .     A
C280   F316    1.356   .     S
C281   O339    1.306   .     A
C281   C283    1.479   .     S
C281   O405    1.304   .     S
C282   O340    1.304   .     A
C282   C285    1.469   .     S
C283   C290    1.406   .     A
C283   C288    1.408   .     A
C284   O336    1.299   .     A
C285   C289    1.404   .     A
C285   C291    1.396   .     A
C286   C294    1.407   .     A
C286   C288    1.393   .     A
C286   F390    1.358   .     S
C287   C289    1.395   .     A
C287   F323    1.358   .     S
C287   C296    1.409   .     A
C288   F389    1.358   .     S
C290   C292    1.408   .     A
C290   F319    1.359   .     S
C291   C293    1.407   .     A
C291   F318    1.358   .     S
C292   C294    1.418   .     A
C292   C297    1.421   .     A
C293   C298    1.420   .     A
C293   C296    1.419   .     A
C294   C914    1.401   .     S
C295   F324    1.358   .     S
C295   C302    1.391   .     A
C295   C298    1.417   .     A
C296   C915    1.401   1_554 S
C297   C301    1.417   .     A
C297   C910    1.416   .     S
C298   C909    1.416   1_554 S
C299   H325    1.109   .     S
C299   H326    1.096   .     S
C299   H327    1.109   .     S
C300   H330    1.089   .     S
C300   H328    1.111   .     S
C300   H329    1.111   .     S
C301   F310    1.358   .     S
C301   C303    1.392   .     A
C302   F309    1.357   .     S
C302   C906    1.401   1_554 S
C303   F317    1.358   .     S
C303   C908    1.401   .     S
C304   F311    1.359   .     S
C305   F312    1.359   .     S
C305   C478    1.385   .     S
C306   F313    1.357   .     S
C306   C343    1.404   .     S
C306   C508    1.385   .     S
Cu307  O336    1.964   .     S
Cu307  O333    1.961   .     S
Cu307  O340    1.939   .     S
Cu307  N331    2.030   .     S
Cu307  O337    1.945   .     S
Cu308  O335    1.964   .     S
Cu308  O338    1.945   .     S
Cu308  O339    1.939   .     S
Cu308  O334    1.961   .     S
Cu308  N332    2.030   .     S
Cu308  Cu375   2.701   .     S
F320   C357    1.358   .     S
O334   C352    1.297   .     S
O338   C350    1.301   .     S
C341   C344    1.449   .     S
C341   O403    1.299   .     A
C341   O265    1.296   1_655 S
C342   F382    1.357   .     S
C343   C373    1.401   .     A
C343   C352    1.449   .     S
C344   C372    1.401   .     A
C344   C206    1.404   1_655 S
C345   C347    1.424   .     A
C345   N400    1.393   .     A
C345   C367    1.510   .     S
C346   C368    1.508   .     S
C346   C348    1.420   .     A
C346   N399    1.393   .     A
C347   N399    1.355   .     A
C347   F383    1.356   .     S
C348   N400    1.353   .     A
C348   F384    1.356   .     S
C349   O407    1.306   .     A
C349   C351    1.479   .     S
C349   O269    1.304   1_655 S
C350   O408    1.304   .     A
C350   C353    1.469   .     S
C351   C358    1.406   .     A
C351   C356    1.408   .     A
C352   O404    1.299   .     A
C353   C357    1.404   .     A
C353   C359    1.396   .     A
C354   C362    1.407   .     A
C354   C356    1.393   .     A
C354   F254    1.358   1_655 S
C355   C357    1.395   .     A
C355   F391    1.358   .     S
C355   C364    1.409   .     A
C356   F253    1.358   1_655 S
C358   C360    1.408   .     A
C358   F387    1.359   .     S
C359   C361    1.407   .     A
C359   F386    1.358   .     S
C360   C362    1.418   .     A
C360   C365    1.421   .     A
C361   C366    1.420   .     A
C361   C364    1.419   .     A
C362   C982    1.401   .     S
C363   F392    1.358   .     S
C363   C370    1.391   .     A
C363   C366    1.417   .     A
C364   C983    1.401   1_554 S
C365   C369    1.417   .     A
C365   C978    1.416   .     S
C366   C977    1.416   1_554 S
C367   H393    1.109   .     S
C367   H394    1.096   .     S
C367   H395    1.109   .     S
C368   H398    1.089   .     S
C368   H396    1.111   .     S
C368   H397    1.111   .     S
C369   F378    1.358   .     S
C369   C371    1.392   .     A
C370   F377    1.357   .     S
C370   C974    1.401   1_554 S
C371   F385    1.358   .     S
C371   C976    1.401   .     S
C372   F379    1.359   .     S
C373   F380    1.359   .     S
C373   C546    1.385   .     S
C374   F381    1.357   .     S
C374   C207    1.404   1_655 S
C374   C576    1.385   .     S
Cu375  O404    1.964   .     S
Cu375  O401    1.961   .     S
Cu375  O408    1.939   .     S
Cu375  N399    2.030   .     S
Cu375  O405    1.945   .     S
Cu376  O403    1.964   .     S
Cu376  O406    1.945   .     S
Cu376  O407    1.939   .     S
Cu376  O402    1.961   .     S
Cu376  N400    2.030   .     S
Cu376  Cu239   2.701   1_655 S
F388   C221    1.358   1_655 S
O402   C216    1.297   1_655 S
O406   C214    1.301   1_655 S
C409   C412    1.449   .     S
C409   O471    1.299   .     A
C409   O537    1.296   .     S
C410   F450    1.357   .     S
C410   C548    1.404   1_455 S
C411   C441    1.401   .     A
C411   C420    1.449   .     S
C411   C578    1.404   1_455 S
C412   C440    1.401   .     A
C412   C478    1.404   .     S
C413   C415    1.424   .     A
C413   N468    1.393   .     A
C413   C435    1.510   .     S
C414   C436    1.508   .     S
C414   C416    1.420   .     A
C414   N467    1.393   .     A
C415   N467    1.355   .     A
C415   F451    1.356   .     S
C416   N468    1.353   .     A
C416   F452    1.356   .     S
C417   O475    1.306   .     A
C417   C419    1.479   .     S
C417   O541    1.304   .     S
C418   O476    1.304   .     A
C418   C421    1.469   .     S
C418   O610    1.301   1_455 S
C419   C426    1.406   .     A
C419   C424    1.408   .     A
C420   O472    1.299   .     A
C420   O606    1.297   1_455 S
C421   C425    1.404   .     A
C421   C427    1.396   .     A
C422   C430    1.407   .     A
C422   C424    1.393   .     A
C422   F526    1.358   .     S
C423   C425    1.395   .     A
C423   F459    1.358   .     S
C423   C432    1.409   .     A
C424   F525    1.358   .     S
C425   F592    1.358   1_455 S
C426   C428    1.408   .     A
C426   F455    1.359   .     S
C427   C429    1.407   .     A
C427   F454    1.358   .     S
C428   C430    1.418   .     A
C428   C433    1.421   .     A
C429   C434    1.420   .     A
C429   C432    1.419   .     A
C430   C1050   1.401   .     S
C431   F460    1.358   .     S
C431   C438    1.391   .     A
C431   C434    1.417   .     A
C432   C1051   1.401   1_554 S
C433   C437    1.417   .     A
C433   C1046   1.416   .     S
C434   C1045   1.416   1_554 S
C435   H461    1.109   .     S
C435   H462    1.096   .     S
C435   H463    1.109   .     S
C436   H466    1.089   .     S
C436   H464    1.111   .     S
C436   H465    1.111   .     S
C437   F446    1.358   .     S
C437   C439    1.392   .     A
C438   F445    1.357   .     S
C438   C1042   1.401   1_554 S
C439   F453    1.358   .     S
C439   C1044   1.401   .     S
C440   F447    1.359   .     S
C441   F448    1.359   .     S
C441   C2      1.385   1_565 S
C442   F449    1.357   .     S
C442   C479    1.404   .     S
C442   C32     1.385   1_565 S
Cu443  O472    1.964   .     S
Cu443  O469    1.961   .     S
Cu443  O476    1.939   .     S
Cu443  N467    2.030   .     S
Cu443  O473    1.945   .     S
Cu443  Cu580   2.701   1_455 S
Cu444  O471    1.964   .     S
Cu444  O474    1.945   .     S
Cu444  O475    1.939   .     S
Cu444  O470    1.961   .     S
Cu444  N468    2.030   .     S
Cu444  Cu511   2.701   .     S
F456   C493    1.358   .     S
F457   C560    1.358   1_455 S
F458   C558    1.358   1_455 S
O469   C545    1.296   1_455 S
O470   C488    1.297   .     S
O473   C553    1.304   1_455 S
O474   C486    1.301   .     S
C477   C480    1.449   .     S
C477   O539    1.299   .     A
C477   O605    1.296   .     S
C478   F518    1.357   .     S
C479   C509    1.401   .     A
C479   C488    1.449   .     S
C480   C508    1.401   .     A
C480   C546    1.404   .     S
C481   C483    1.424   .     A
C481   N536    1.393   .     A
C481   C503    1.510   .     S
C482   C504    1.508   .     S
C482   C484    1.420   .     A
C482   N535    1.393   .     A
C483   N535    1.355   .     A
C483   F519    1.356   .     S
C484   N536    1.353   .     A
C484   F520    1.356   .     S
C485   O543    1.306   .     A
C485   C487    1.479   .     S
C485   O609    1.304   .     S
C486   O544    1.304   .     A
C486   C489    1.469   .     S
C487   C494    1.406   .     A
C487   C492    1.408   .     A
C488   O540    1.299   .     A
C489   C493    1.404   .     A
C489   C495    1.396   .     A
C490   C498    1.407   .     A
C490   C492    1.393   .     A
C490   F594    1.358   .     S
C491   C493    1.395   .     A
C491   F527    1.358   .     S
C491   C500    1.409   .     A
C492   F593    1.358   .     S
C494   C496    1.408   .     A
C494   F523    1.359   .     S
C495   C497    1.407   .     A
C495   F522    1.358   .     S
C496   C498    1.418   .     A
C496   C501    1.421   .     A
C497   C502    1.420   .     A
C497   C500    1.419   .     A
C498   C1118   1.401   .     S
C499   F528    1.358   .     S
C499   C506    1.391   .     A
C499   C502    1.417   .     A
C500   C1119   1.401   1_554 S
C501   C505    1.417   .     A
C501   C1114   1.416   .     S
C502   C1113   1.416   1_554 S
C503   H529    1.109   .     S
C503   H530    1.096   .     S
C503   H531    1.109   .     S
C504   H534    1.089   .     S
C504   H532    1.111   .     S
C504   H533    1.111   .     S
C505   F514    1.358   .     S
C505   C507    1.392   .     A
C506   F513    1.357   .     S
C506   C1110   1.401   1_554 S
C507   F521    1.358   .     S
C507   C1112   1.401   .     S
C508   F515    1.359   .     S
C509   F516    1.359   .     S
C509   C70     1.385   1_565 S
C510   F517    1.357   .     S
C510   C547    1.404   .     S
C510   C100    1.385   1_565 S
Cu511  O540    1.964   .     S
Cu511  O537    1.961   .     S
Cu511  O544    1.939   .     S
Cu511  N535    2.030   .     S
Cu511  O541    1.945   .     S
Cu512  O539    1.964   .     S
Cu512  O542    1.945   .     S
Cu512  O543    1.939   .     S
Cu512  O538    1.961   .     S
Cu512  N536    2.030   .     S
Cu512  Cu579   2.701   .     S
F524   C561    1.358   .     S
O538   C556    1.297   .     S
O542   C554    1.301   .     S
C545   C548    1.449   .     S
C545   O607    1.299   .     A
C545   O469    1.296   1_655 S
C546   F586    1.357   .     S
C547   C577    1.401   .     A
C547   C556    1.449   .     S
C548   C576    1.401   .     A
C548   C410    1.404   1_655 S
C549   C551    1.424   .     A
C549   N604    1.393   .     A
C549   C571    1.510   .     S
C550   C572    1.508   .     S
C550   C552    1.420   .     A
C550   N603    1.393   .     A
C551   N603    1.355   .     A
C551   F587    1.356   .     S
C552   N604    1.353   .     A
C552   F588    1.356   .     S
C553   O611    1.306   .     A
C553   C555    1.479   .     S
C553   O473    1.304   1_655 S
C554   O612    1.304   .     A
C554   C557    1.469   .     S
C555   C562    1.406   .     A
C555   C560    1.408   .     A
C556   O608    1.299   .     A
C557   C561    1.404   .     A
C557   C563    1.396   .     A
C558   C566    1.407   .     A
C558   C560    1.393   .     A
C558   F458    1.358   1_655 S
C559   C561    1.395   .     A
C559   F595    1.358   .     S
C559   C568    1.409   .     A
C560   F457    1.358   1_655 S
C562   C564    1.408   .     A
C562   F591    1.359   .     S
C563   C565    1.407   .     A
C563   F590    1.358   .     S
C564   C566    1.418   .     A
C564   C569    1.421   .     A
C565   C570    1.420   .     A
C565   C568    1.419   .     A
C566   C1186   1.401   .     S
C567   F596    1.358   .     S
C567   C574    1.391   .     A
C567   C570    1.417   .     A
C568   C1187   1.401   1_554 S
C569   C573    1.417   .     A
C569   C1182   1.416   .     S
C570   C1181   1.416   1_554 S
C571   H597    1.109   .     S
C571   H598    1.096   .     S
C571   H599    1.109   .     S
C572   H602    1.089   .     S
C572   H600    1.111   .     S
C572   H601    1.111   .     S
C573   F582    1.358   .     S
C573   C575    1.392   .     A
C574   F581    1.357   .     S
C574   C1178   1.401   1_554 S
C575   F589    1.358   .     S
C575   C1180   1.401   .     S
C576   F583    1.359   .     S
C577   F584    1.359   .     S
C577   C138    1.385   1_565 S
C578   F585    1.357   .     S
C578   C411    1.404   1_655 S
C578   C168    1.385   1_565 S
Cu579  O608    1.964   .     S
Cu579  O605    1.961   .     S
Cu579  O612    1.939   .     S
Cu579  N603    2.030   .     S
Cu579  O609    1.945   .     S
Cu580  O607    1.964   .     S
Cu580  O610    1.945   .     S
Cu580  O611    1.939   .     S
Cu580  O606    1.961   .     S
Cu580  N604    2.030   .     S
Cu580  Cu443   2.701   1_655 S
F592   C425    1.358   1_655 S
O606   C420    1.297   1_655 S
O610   C418    1.301   1_655 S
C613   C616    1.449   .     S
C613   O675    1.299   .     A
C613   O741    1.296   .     S
C614   F654    1.357   .     S
C614   C752    1.404   1_455 S
C614   C1053   1.385   1_545 S
C615   C645    1.401   .     A
C615   C624    1.449   .     S
C615   C782    1.404   1_455 S
C616   C644    1.401   .     A
C616   C682    1.404   .     S
C617   C619    1.424   .     A
C617   N672    1.393   .     A
C617   C639    1.510   .     S
C618   C640    1.508   .     S
C618   C620    1.420   .     A
C618   N671    1.393   .     A
C619   N671    1.355   .     A
C619   F655    1.356   .     S
C620   N672    1.353   .     A
C620   F656    1.356   .     S
C621   O679    1.306   .     A
C621   C623    1.479   .     S
C621   O745    1.304   .     S
C622   O680    1.304   .     A
C622   C625    1.469   .     S
C622   O814    1.301   1_455 S
C623   C630    1.406   .     A
C623   C628    1.408   .     A
C624   O676    1.299   .     A
C624   O810    1.297   1_455 S
C625   C629    1.404   .     A
C625   C631    1.396   .     A
C626   C634    1.407   .     A
C626   C628    1.393   .     A
C626   F730    1.358   .     S
C627   C629    1.395   .     A
C627   F663    1.358   .     S
C627   C636    1.409   .     A
C628   F729    1.358   .     S
C629   F796    1.358   1_455 S
C630   C632    1.408   .     A
C630   F659    1.359   .     S
C631   C633    1.407   .     A
C631   F658    1.358   .     S
C632   C634    1.418   .     A
C632   C637    1.421   .     A
C633   C638    1.420   .     A
C633   C636    1.419   .     A
C634   C30     1.401   1_556 S
C635   F664    1.358   .     S
C635   C642    1.391   .     A
C635   C638    1.417   .     A
C637   C641    1.417   .     A
C637   C26     1.416   1_556 S
C639   H665    1.109   .     S
C639   H666    1.096   .     S
C639   H667    1.109   .     S
C640   H670    1.089   .     S
C640   H668    1.111   .     S
C640   H669    1.111   .     S
C641   F650    1.358   .     S
C641   C643    1.392   .     A
C642   F649    1.357   .     S
C643   F657    1.358   .     S
C643   C24     1.401   1_556 S
C644   F651    1.359   .     S
C644   C1054   1.385   1_545 S
C645   F652    1.359   .     S
C645   C818    1.385   .     S
C646   F653    1.357   .     S
C646   C683    1.404   .     S
C646   C848    1.385   .     S
Cu647  O676    1.964   .     S
Cu647  O673    1.961   .     S
Cu647  O680    1.939   .     S
Cu647  N671    2.030   .     S
Cu647  O677    1.945   .     S
Cu647  Cu784   2.701   1_455 S
Cu648  O675    1.964   .     S
Cu648  O678    1.945   .     S
Cu648  O679    1.939   .     S
Cu648  O674    1.961   .     S
Cu648  N672    2.030   .     S
Cu648  Cu715   2.701   .     S
F660   C697    1.358   .     S
F661   C764    1.358   1_455 S
F662   C762    1.358   1_455 S
O673   C749    1.296   1_455 S
O674   C692    1.297   .     S
O677   C757    1.304   1_455 S
O678   C690    1.301   .     S
C681   C684    1.449   .     S
C681   O743    1.299   .     A
C681   O809    1.296   .     S
C682   F722    1.357   .     S
C682   C1121   1.385   1_545 S
C683   C713    1.401   .     A
C683   C692    1.449   .     S
C684   C712    1.401   .     A
C684   C750    1.404   .     S
C685   C687    1.424   .     A
C685   N740    1.393   .     A
C685   C707    1.510   .     S
C686   C708    1.508   .     S
C686   C688    1.420   .     A
C686   N739    1.393   .     A
C687   N739    1.355   .     A
C687   F723    1.356   .     S
C688   N740    1.353   .     A
C688   F724    1.356   .     S
C689   O747    1.306   .     A
C689   C691    1.479   .     S
C689   O813    1.304   .     S
C690   O748    1.304   .     A
C690   C693    1.469   .     S
C691   C698    1.406   .     A
C691   C696    1.408   .     A
C692   O744    1.299   .     A
C693   C697    1.404   .     A
C693   C699    1.396   .     A
C694   C702    1.407   .     A
C694   C696    1.393   .     A
C694   F798    1.358   .     S
C695   C697    1.395   .     A
C695   F731    1.358   .     S
C695   C704    1.409   .     A
C696   F797    1.358   .     S
C698   C700    1.408   .     A
C698   F727    1.359   .     S
C699   C701    1.407   .     A
C699   F726    1.358   .     S
C700   C702    1.418   .     A
C700   C705    1.421   .     A
C701   C706    1.420   .     A
C701   C704    1.419   .     A
C702   C98     1.401   1_556 S
C703   F732    1.358   .     S
C703   C710    1.391   .     A
C703   C706    1.417   .     A
C705   C709    1.417   .     A
C705   C94     1.416   1_556 S
C707   H733    1.109   .     S
C707   H734    1.096   .     S
C707   H735    1.109   .     S
C708   H738    1.089   .     S
C708   H736    1.111   .     S
C708   H737    1.111   .     S
C709   F718    1.358   .     S
C709   C711    1.392   .     A
C710   F717    1.357   .     S
C711   F725    1.358   .     S
C711   C92     1.401   1_556 S
C712   F719    1.359   .     S
C712   C1122   1.385   1_545 S
C713   F720    1.359   .     S
C713   C886    1.385   .     S
C714   F721    1.357   .     S
C714   C751    1.404   .     S
C714   C916    1.385   .     S
Cu715  O744    1.964   .     S
Cu715  O741    1.961   .     S
Cu715  O748    1.939   .     S
Cu715  N739    2.030   .     S
Cu715  O745    1.945   .     S
Cu716  O743    1.964   .     S
Cu716  O746    1.945   .     S
Cu716  O747    1.939   .     S
Cu716  O742    1.961   .     S
Cu716  N740    2.030   .     S
Cu716  Cu783   2.701   .     S
F728   C765    1.358   .     S
O742   C760    1.297   .     S
O746   C758    1.301   .     S
C749   C752    1.449   .     S
C749   O811    1.299   .     A
C749   O673    1.296   1_655 S
C750   F790    1.357   .     S
C750   C1189   1.385   1_545 S
C751   C781    1.401   .     A
C751   C760    1.449   .     S
C752   C780    1.401   .     A
C752   C614    1.404   1_655 S
C753   C755    1.424   .     A
C753   N808    1.393   .     A
C753   C775    1.510   .     S
C754   C776    1.508   .     S
C754   C756    1.420   .     A
C754   N807    1.393   .     A
C755   N807    1.355   .     A
C755   F791    1.356   .     S
C756   N808    1.353   .     A
C756   F792    1.356   .     S
C757   O815    1.306   .     A
C757   C759    1.479   .     S
C757   O677    1.304   1_655 S
C758   O816    1.304   .     A
C758   C761    1.469   .     S
C759   C766    1.406   .     A
C759   C764    1.408   .     A
C760   O812    1.299   .     A
C761   C765    1.404   .     A
C761   C767    1.396   .     A
C762   C770    1.407   .     A
C762   C764    1.393   .     A
C762   F662    1.358   1_655 S
C763   C765    1.395   .     A
C763   F799    1.358   .     S
C763   C772    1.409   .     A
C764   F661    1.358   1_655 S
C766   C768    1.408   .     A
C766   F795    1.359   .     S
C767   C769    1.407   .     A
C767   F794    1.358   .     S
C768   C770    1.418   .     A
C768   C773    1.421   .     A
C769   C774    1.420   .     A
C769   C772    1.419   .     A
C770   C166    1.401   1_556 S
C771   F800    1.358   .     S
C771   C778    1.391   .     A
C771   C774    1.417   .     A
C773   C777    1.417   .     A
C773   C162    1.416   1_556 S
C775   H801    1.109   .     S
C775   H802    1.096   .     S
C775   H803    1.109   .     S
C776   H806    1.089   .     S
C776   H804    1.111   .     S
C776   H805    1.111   .     S
C777   F786    1.358   .     S
C777   C779    1.392   .     A
C778   F785    1.357   .     S
C779   F793    1.358   .     S
C779   C160    1.401   1_556 S
C780   F787    1.359   .     S
C780   C1190   1.385   1_545 S
C781   F788    1.359   .     S
C781   C954    1.385   .     S
C782   F789    1.357   .     S
C782   C615    1.404   1_655 S
C782   C984    1.385   .     S
Cu783  O812    1.964   .     S
Cu783  O809    1.961   .     S
Cu783  O816    1.939   .     S
Cu783  N807    2.030   .     S
Cu783  O813    1.945   .     S
Cu784  O811    1.964   .     S
Cu784  O814    1.945   .     S
Cu784  O815    1.939   .     S
Cu784  O810    1.961   .     S
Cu784  N808    2.030   .     S
Cu784  Cu647   2.701   1_655 S
F796   C629    1.358   1_655 S
O810   C624    1.297   1_655 S
O814   C622    1.301   1_655 S
C817   C820    1.449   .     S
C817   O879    1.299   .     A
C817   O945    1.296   .     S
C818   F858    1.357   .     S
C818   C956    1.404   1_455 S
C819   C849    1.401   .     A
C819   C828    1.449   .     S
C819   C986    1.404   1_455 S
C820   C848    1.401   .     A
C820   C886    1.404   .     S
C821   C823    1.424   .     A
C821   N876    1.393   .     A
C821   C843    1.510   .     S
C822   C844    1.508   .     S
C822   C824    1.420   .     A
C822   N875    1.393   .     A
C823   N875    1.355   .     A
C823   F859    1.356   .     S
C824   N876    1.353   .     A
C824   F860    1.356   .     S
C825   O883    1.306   .     A
C825   C827    1.479   .     S
C825   O949    1.304   .     S
C826   O884    1.304   .     A
C826   C829    1.469   .     S
C826   O1018   1.301   1_455 S
C827   C834    1.406   .     A
C827   C832    1.408   .     A
C828   O880    1.299   .     A
C828   O1014   1.297   1_455 S
C829   C833    1.404   .     A
C829   C835    1.396   .     A
C830   C838    1.407   .     A
C830   C832    1.393   .     A
C830   F934    1.358   .     S
C831   C833    1.395   .     A
C831   F867    1.358   .     S
C831   C840    1.409   .     A
C832   F933    1.358   .     S
C833   F1000   1.358   1_455 S
C834   C836    1.408   .     A
C834   F863    1.359   .     S
C835   C837    1.407   .     A
C835   F862    1.358   .     S
C836   C838    1.418   .     A
C836   C841    1.421   .     A
C837   C842    1.420   .     A
C837   C840    1.419   .     A
C838   C234    1.401   1_556 S
C839   F868    1.358   .     S
C839   C846    1.391   .     A
C839   C842    1.417   .     A
C841   C845    1.417   .     A
C841   C230    1.416   1_556 S
C843   H869    1.109   .     S
C843   H870    1.096   .     S
C843   H871    1.109   .     S
C844   H874    1.089   .     S
C844   H872    1.111   .     S
C844   H873    1.111   .     S
C845   F854    1.358   .     S
C845   C847    1.392   .     A
C846   F853    1.357   .     S
C847   F861    1.358   .     S
C847   C228    1.401   1_556 S
C848   F855    1.359   .     S
C849   F856    1.359   .     S
C849   C1022   1.385   .     S
C850   F857    1.357   .     S
C850   C887    1.404   .     S
C850   C1052   1.385   .     S
Cu851  O880    1.964   .     S
Cu851  O877    1.961   .     S
Cu851  O884    1.939   .     S
Cu851  N875    2.030   .     S
Cu851  O881    1.945   .     S
Cu851  Cu988   2.701   1_455 S
Cu852  O879    1.964   .     S
Cu852  O882    1.945   .     S
Cu852  O883    1.939   .     S
Cu852  O878    1.961   .     S
Cu852  N876    2.030   .     S
Cu852  Cu919   2.701   .     S
F864   C901    1.358   .     S
F865   C968    1.358   1_455 S
F866   C966    1.358   1_455 S
O877   C953    1.296   1_455 S
O878   C896    1.297   .     S
O881   C961    1.304   1_455 S
O882   C894    1.301   .     S
C885   C888    1.449   .     S
C885   O947    1.299   .     A
C885   O1013   1.296   .     S
C886   F926    1.357   .     S
C887   C917    1.401   .     A
C887   C896    1.449   .     S
C888   C916    1.401   .     A
C888   C954    1.404   .     S
C889   C891    1.424   .     A
C889   N944    1.393   .     A
C889   C911    1.510   .     S
C890   C912    1.508   .     S
C890   C892    1.420   .     A
C890   N943    1.393   .     A
C891   N943    1.355   .     A
C891   F927    1.356   .     S
C892   N944    1.353   .     A
C892   F928    1.356   .     S
C893   O951    1.306   .     A
C893   C895    1.479   .     S
C893   O1017   1.304   .     S
C894   O952    1.304   .     A
C894   C897    1.469   .     S
C895   C902    1.406   .     A
C895   C900    1.408   .     A
C896   O948    1.299   .     A
C897   C901    1.404   .     A
C897   C903    1.396   .     A
C898   C906    1.407   .     A
C898   C900    1.393   .     A
C898   F1002   1.358   .     S
C899   C901    1.395   .     A
C899   F935    1.358   .     S
C899   C908    1.409   .     A
C900   F1001   1.358   .     S
C902   C904    1.408   .     A
C902   F931    1.359   .     S
C903   C905    1.407   .     A
C903   F930    1.358   .     S
C904   C906    1.418   .     A
C904   C909    1.421   .     A
C905   C910    1.420   .     A
C905   C908    1.419   .     A
C906   C302    1.401   1_556 S
C907   F936    1.358   .     S
C907   C914    1.391   .     A
C907   C910    1.417   .     A
C909   C913    1.417   .     A
C909   C298    1.416   1_556 S
C911   H937    1.109   .     S
C911   H938    1.096   .     S
C911   H939    1.109   .     S
C912   H942    1.089   .     S
C912   H940    1.111   .     S
C912   H941    1.111   .     S
C913   F922    1.358   .     S
C913   C915    1.392   .     A
C914   F921    1.357   .     S
C915   F929    1.358   .     S
C915   C296    1.401   1_556 S
C916   F923    1.359   .     S
C917   F924    1.359   .     S
C917   C1090   1.385   .     S
C918   F925    1.357   .     S
C918   C955    1.404   .     S
C918   C1120   1.385   .     S
Cu919  O948    1.964   .     S
Cu919  O945    1.961   .     S
Cu919  O952    1.939   .     S
Cu919  N943    2.030   .     S
Cu919  O949    1.945   .     S
Cu920  O947    1.964   .     S
Cu920  O950    1.945   .     S
Cu920  O951    1.939   .     S
Cu920  O946    1.961   .     S
Cu920  N944    2.030   .     S
Cu920  Cu987   2.701   .     S
F932   C969    1.358   .     S
O946   C964    1.297   .     S
O950   C962    1.301   .     S
C953   C956    1.449   .     S
C953   O1015   1.299   .     A
C953   O877    1.296   1_655 S
C954   F994    1.357   .     S
C955   C985    1.401   .     A
C955   C964    1.449   .     S
C956   C984    1.401   .     A
C956   C818    1.404   1_655 S
C957   C959    1.424   .     A
C957   N1012   1.393   .     A
C957   C979    1.510   .     S
C958   C980    1.508   .     S
C958   C960    1.420   .     A
C958   N1011   1.393   .     A
C959   N1011   1.355   .     A
C959   F995    1.356   .     S
C960   N1012   1.353   .     A
C960   F996    1.356   .     S
C961   O1019   1.306   .     A
C961   C963    1.479   .     S
C961   O881    1.304   1_655 S
C962   O1020   1.304   .     A
C962   C965    1.469   .     S
C963   C970    1.406   .     A
C963   C968    1.408   .     A
C964   O1016   1.299   .     A
C965   C969    1.404   .     A
C965   C971    1.396   .     A
C966   C974    1.407   .     A
C966   C968    1.393   .     A
C966   F866    1.358   1_655 S
C967   C969    1.395   .     A
C967   F1003   1.358   .     S
C967   C976    1.409   .     A
C968   F865    1.358   1_655 S
C970   C972    1.408   .     A
C970   F999    1.359   .     S
C971   C973    1.407   .     A
C971   F998    1.358   .     S
C972   C974    1.418   .     A
C972   C977    1.421   .     A
C973   C978    1.420   .     A
C973   C976    1.419   .     A
C974   C370    1.401   1_556 S
C975   F1004   1.358   .     S
C975   C982    1.391   .     A
C975   C978    1.417   .     A
C977   C981    1.417   .     A
C977   C366    1.416   1_556 S
C979   H1005   1.109   .     S
C979   H1006   1.096   .     S
C979   H1007   1.109   .     S
C980   H1010   1.089   .     S
C980   H1008   1.111   .     S
C980   H1009   1.111   .     S
C981   F990    1.358   .     S
C981   C983    1.392   .     A
C982   F989    1.357   .     S
C983   F997    1.358   .     S
C983   C364    1.401   1_556 S
C984   F991    1.359   .     S
C985   F992    1.359   .     S
C985   C1158   1.385   .     S
C986   F993    1.357   .     S
C986   C819    1.404   1_655 S
C986   C1188   1.385   .     S
Cu987  O1016   1.964   .     S
Cu987  O1013   1.961   .     S
Cu987  O1020   1.939   .     S
Cu987  N1011   2.030   .     S
Cu987  O1017   1.945   .     S
Cu988  O1015   1.964   .     S
Cu988  O1018   1.945   .     S
Cu988  O1019   1.939   .     S
Cu988  O1014   1.961   .     S
Cu988  N1012   2.030   .     S
Cu988  Cu851   2.701   1_655 S
F1000  C833    1.358   1_655 S
O1014  C828    1.297   1_655 S
O1018  C826    1.301   1_655 S
C1021  C1024   1.449   .     S
C1021  O1083   1.299   .     A
C1021  O1149   1.296   .     S
C1022  F1062   1.357   .     S
C1022  C1160   1.404   1_455 S
C1023  C1053   1.401   .     A
C1023  C1032   1.449   .     S
C1023  C1190   1.404   1_455 S
C1024  C1052   1.401   .     A
C1024  C1090   1.404   .     S
C1025  C1027   1.424   .     A
C1025  N1080   1.393   .     A
C1025  C1047   1.510   .     S
C1026  C1048   1.508   .     S
C1026  C1028   1.420   .     A
C1026  N1079   1.393   .     A
C1027  N1079   1.355   .     A
C1027  F1063   1.356   .     S
C1028  N1080   1.353   .     A
C1028  F1064   1.356   .     S
C1029  O1087   1.306   .     A
C1029  C1031   1.479   .     S
C1029  O1153   1.304   .     S
C1030  O1088   1.304   .     A
C1030  C1033   1.469   .     S
C1030  O1222   1.301   1_455 S
C1031  C1038   1.406   .     A
C1031  C1036   1.408   .     A
C1032  O1084   1.299   .     A
C1032  O1218   1.297   1_455 S
C1033  C1037   1.404   .     A
C1033  C1039   1.396   .     A
C1034  C1042   1.407   .     A
C1034  C1036   1.393   .     A
C1034  F1138   1.358   .     S
C1035  C1037   1.395   .     A
C1035  F1071   1.358   .     S
C1035  C1044   1.409   .     A
C1036  F1137   1.358   .     S
C1037  F1204   1.358   1_455 S
C1038  C1040   1.408   .     A
C1038  F1067   1.359   .     S
C1039  C1041   1.407   .     A
C1039  F1066   1.358   .     S
C1040  C1042   1.418   .     A
C1040  C1045   1.421   .     A
C1041  C1046   1.420   .     A
C1041  C1044   1.419   .     A
C1042  C438    1.401   1_556 S
C1043  F1072   1.358   .     S
C1043  C1050   1.391   .     A
C1043  C1046   1.417   .     A
C1045  C1049   1.417   .     A
C1045  C434    1.416   1_556 S
C1047  H1073   1.109   .     S
C1047  H1074   1.096   .     S
C1047  H1075   1.109   .     S
C1048  H1078   1.089   .     S
C1048  H1076   1.111   .     S
C1048  H1077   1.111   .     S
C1049  F1058   1.358   .     S
C1049  C1051   1.392   .     A
C1050  F1057   1.357   .     S
C1051  F1065   1.358   .     S
C1051  C432    1.401   1_556 S
C1052  F1059   1.359   .     S
C1053  F1060   1.359   .     S
C1053  C614    1.385   1_565 S
C1054  F1061   1.357   .     S
C1054  C1091   1.404   .     S
C1054  C644    1.385   1_565 S
Cu1055 O1084   1.964   .     S
Cu1055 O1081   1.961   .     S
Cu1055 O1088   1.939   .     S
Cu1055 N1079   2.030   .     S
Cu1055 O1085   1.945   .     S
Cu1055 Cu1192  2.701   1_455 S
Cu1056 O1083   1.964   .     S
Cu1056 O1086   1.945   .     S
Cu1056 O1087   1.939   .     S
Cu1056 O1082   1.961   .     S
Cu1056 N1080   2.030   .     S
Cu1056 Cu1123  2.701   .     S
F1068  C1105   1.358   .     S
F1069  C1172   1.358   1_455 S
F1070  C1170   1.358   1_455 S
O1081  C1157   1.296   1_455 S
O1082  C1100   1.297   .     S
O1085  C1165   1.304   1_455 S
O1086  C1098   1.301   .     S
C1089  C1092   1.449   .     S
C1089  O1151   1.299   .     A
C1089  O1217   1.296   .     S
C1090  F1130   1.357   .     S
C1091  C1121   1.401   .     A
C1091  C1100   1.449   .     S
C1092  C1120   1.401   .     A
C1092  C1158   1.404   .     S
C1093  C1095   1.424   .     A
C1093  N1148   1.393   .     A
C1093  C1115   1.510   .     S
C1094  C1116   1.508   .     S
C1094  C1096   1.420   .     A
C1094  N1147   1.393   .     A
C1095  N1147   1.355   .     A
C1095  F1131   1.356   .     S
C1096  N1148   1.353   .     A
C1096  F1132   1.356   .     S
C1097  O1155   1.306   .     A
C1097  C1099   1.479   .     S
C1097  O1221   1.304   .     S
C1098  O1156   1.304   .     A
C1098  C1101   1.469   .     S
C1099  C1106   1.406   .     A
C1099  C1104   1.408   .     A
C1100  O1152   1.299   .     A
C1101  C1105   1.404   .     A
C1101  C1107   1.396   .     A
C1102  C1110   1.407   .     A
C1102  C1104   1.393   .     A
C1102  F1206   1.358   .     S
C1103  C1105   1.395   .     A
C1103  F1139   1.358   .     S
C1103  C1112   1.409   .     A
C1104  F1205   1.358   .     S
C1106  C1108   1.408   .     A
C1106  F1135   1.359   .     S
C1107  C1109   1.407   .     A
C1107  F1134   1.358   .     S
C1108  C1110   1.418   .     A
C1108  C1113   1.421   .     A
C1109  C1114   1.420   .     A
C1109  C1112   1.419   .     A
C1110  C506    1.401   1_556 S
C1111  F1140   1.358   .     S
C1111  C1118   1.391   .     A
C1111  C1114   1.417   .     A
C1113  C1117   1.417   .     A
C1113  C502    1.416   1_556 S
C1115  H1141   1.109   .     S
C1115  H1142   1.096   .     S
C1115  H1143   1.109   .     S
C1116  H1146   1.089   .     S
C1116  H1144   1.111   .     S
C1116  H1145   1.111   .     S
C1117  F1126   1.358   .     S
C1117  C1119   1.392   .     A
C1118  F1125   1.357   .     S
C1119  F1133   1.358   .     S
C1119  C500    1.401   1_556 S
C1120  F1127   1.359   .     S
C1121  F1128   1.359   .     S
C1121  C682    1.385   1_565 S
C1122  F1129   1.357   .     S
C1122  C1159   1.404   .     S
C1122  C712    1.385   1_565 S
Cu1123 O1152   1.964   .     S
Cu1123 O1149   1.961   .     S
Cu1123 O1156   1.939   .     S
Cu1123 N1147   2.030   .     S
Cu1123 O1153   1.945   .     S
Cu1124 O1151   1.964   .     S
Cu1124 O1154   1.945   .     S
Cu1124 O1155   1.939   .     S
Cu1124 O1150   1.961   .     S
Cu1124 N1148   2.030   .     S
Cu1124 Cu1191  2.701   .     S
F1136  C1173   1.358   .     S
O1150  C1168   1.297   .     S
O1154  C1166   1.301   .     S
C1157  C1160   1.449   .     S
C1157  O1219   1.299   .     A
C1157  O1081   1.296   1_655 S
C1158  F1198   1.357   .     S
C1159  C1189   1.401   .     A
C1159  C1168   1.449   .     S
C1160  C1188   1.401   .     A
C1160  C1022   1.404   1_655 S
C1161  C1163   1.424   .     A
C1161  N1216   1.393   .     A
C1161  C1183   1.510   .     S
C1162  C1184   1.508   .     S
C1162  C1164   1.420   .     A
C1162  N1215   1.393   .     A
C1163  N1215   1.355   .     A
C1163  F1199   1.356   .     S
C1164  N1216   1.353   .     A
C1164  F1200   1.356   .     S
C1165  O1223   1.306   .     A
C1165  C1167   1.479   .     S
C1165  O1085   1.304   1_655 S
C1166  O1224   1.304   .     A
C1166  C1169   1.469   .     S
C1167  C1174   1.406   .     A
C1167  C1172   1.408   .     A
C1168  O1220   1.299   .     A
C1169  C1173   1.404   .     A
C1169  C1175   1.396   .     A
C1170  C1178   1.407   .     A
C1170  C1172   1.393   .     A
C1170  F1070   1.358   1_655 S
C1171  C1173   1.395   .     A
C1171  F1207   1.358   .     S
C1171  C1180   1.409   .     A
C1172  F1069   1.358   1_655 S
C1174  C1176   1.408   .     A
C1174  F1203   1.359   .     S
C1175  C1177   1.407   .     A
C1175  F1202   1.358   .     S
C1176  C1178   1.418   .     A
C1176  C1181   1.421   .     A
C1177  C1182   1.420   .     A
C1177  C1180   1.419   .     A
C1178  C574    1.401   1_556 S
C1179  F1208   1.358   .     S
C1179  C1186   1.391   .     A
C1179  C1182   1.417   .     A
C1181  C1185   1.417   .     A
C1181  C570    1.416   1_556 S
C1183  H1209   1.109   .     S
C1183  H1210   1.096   .     S
C1183  H1211   1.109   .     S
C1184  H1214   1.089   .     S
C1184  H1212   1.111   .     S
C1184  H1213   1.111   .     S
C1185  F1194   1.358   .     S
C1185  C1187   1.392   .     A
C1186  F1193   1.357   .     S
C1187  F1201   1.358   .     S
C1187  C568    1.401   1_556 S
C1188  F1195   1.359   .     S
C1189  F1196   1.359   .     S
C1189  C750    1.385   1_565 S
C1190  F1197   1.357   .     S
C1190  C1023   1.404   1_655 S
C1190  C780    1.385   1_565 S
Cu1191 O1220   1.964   .     S
Cu1191 O1217   1.961   .     S
Cu1191 O1224   1.939   .     S
Cu1191 N1215   2.030   .     S
Cu1191 O1221   1.945   .     S
Cu1192 O1219   1.964   .     S
Cu1192 O1222   1.945   .     S
Cu1192 O1223   1.939   .     S
Cu1192 O1218   1.961   .     S
Cu1192 N1216   2.030   .     S
Cu1192 Cu1055  2.701   1_655 S
F1204  C1037   1.358   1_655 S
O1218  C1032   1.297   1_655 S
O1222  C1030   1.301   1_655 S
