data_str_m2_o2_o10_pcu_sym.38
_audit_creation_date              2020-01-03
_audit_creation_method            'Materials Studio'
_symmetry_space_group_name_H-M    'P1'
_symmetry_Int_Tables_number       1
_symmetry_cell_setting            triclinic
loop_
_symmetry_equiv_pos_as_xyz
  x,y,z
_cell_length_a                    26.4149
_cell_length_b                    30.2060
_cell_length_c                    28.0131
_cell_angle_alpha                 90.2837
_cell_angle_beta                  97.7820
_cell_angle_gamma                 92.3785
loop_
_atom_site_label
_atom_site_type_symbol
_atom_site_fract_x
_atom_site_fract_y
_atom_site_fract_z
_atom_site_U_iso_or_equiv
_atom_site_adp_type
_atom_site_occupancy
O1     O     0.16667   0.18572   0.29071   0.00000  Uiso   1.00
O2     O     0.16666   0.31427   0.20928   0.00000  Uiso   1.00
O3     O     0.16667   0.18573   0.20928   0.00000  Uiso   1.00
O4     O     0.16666   0.31427   0.29072   0.00000  Uiso   1.00
C5     C     0.16767   0.16531   0.24998   0.00000  Uiso   1.00
C6     C     0.16596   0.33527   0.25017   0.00000  Uiso   1.00
O7     O     0.09161   0.24999   0.28132   0.00000  Uiso   1.00
O8     O     0.24172   0.25000   0.21868   0.00000  Uiso   1.00
O9     O     0.09161   0.25000   0.19988   0.00000  Uiso   1.00
O10    O     0.24172   0.25000   0.30011   0.00000  Uiso   1.00
C11    C     0.06811   0.24951   0.23776   0.00000  Uiso   1.00
C12    C     0.26508   0.24942   0.26219   0.00000  Uiso   1.00
Cu13   Cu    0.16667   0.24999   0.29821   0.00000  Uiso   1.00
Cu14   Cu    0.16667   0.25000   0.20178   0.00000  Uiso   1.00
C15    C     0.01304   0.24359   0.23162   0.00000  Uiso   1.00
C16    C     0.32004   0.25354   0.26845   0.00000  Uiso   1.00
C17    C     0.12758   0.04701   0.22502   0.00000  Uiso   1.00
C18    C     0.17368   0.45250   0.20598   0.00000  Uiso   1.00
H19    H     0.09367   0.02818   0.20896   0.00000  Uiso   1.00
H20    H     0.17947   0.46892   0.17272   0.00000  Uiso   1.00
C21    C     0.12689   0.09284   0.22721   0.00000  Uiso   1.00
C22    C     0.17164   0.40657   0.20748   0.00000  Uiso   1.00
H23    H     0.09269   0.10919   0.21211   0.00000  Uiso   1.00
H24    H     0.17573   0.38856   0.17485   0.00000  Uiso   1.00
C25    C     0.16961   0.11743   0.24957   0.00000  Uiso   1.00
C26    C     0.16523   0.38428   0.25036   0.00000  Uiso   1.00
C27    C     0.21447   0.09628   0.26852   0.00000  Uiso   1.00
C28    C     0.15921   0.40951   0.29217   0.00000  Uiso   1.00
C29    C     0.21523   0.04986   0.26588   0.00000  Uiso   1.00
C30    C     0.16002   0.45599   0.28989   0.00000  Uiso   1.00
C31    C     0.17118   0.02544   0.24485   0.00000  Uiso   1.00
C32    C     0.16848   0.47717   0.24704   0.00000  Uiso   1.00
C33    C     0.19157   0.28565   0.05778   0.00000  Uiso   1.00
C34    C     0.14123   0.21441   0.44206   0.00000  Uiso   1.00
C35    C     0.19614   0.28112   0.10851   0.00000  Uiso   1.00
C36    C     0.13699   0.21888   0.39133   0.00000  Uiso   1.00
N37    N     0.16667   0.25001   0.12934   0.00000  Uiso   1.00
N38    N     0.16667   0.24999   0.37065   0.00000  Uiso   1.00
C39    C     0.13333   0.22267   0.09981   0.00000  Uiso   1.00
C40    C     0.20062   0.27666   0.40037   0.00000  Uiso   1.00
C41    C     0.13110   0.22449   0.04962   0.00000  Uiso   1.00
C42    C     0.20222   0.27514   0.45052   0.00000  Uiso   1.00
H43    H     0.10049   0.20553   0.02889   0.00000  Uiso   1.00
H44    H     0.23309   0.29365   0.47149   0.00000  Uiso   1.00
C45    C     0.16465   0.25223   0.02712   0.00000  Uiso   1.00
C46    C     0.16808   0.24782   0.47279   0.00000  Uiso   1.00
N47    N     0.32217   0.22205   0.18795   0.00000  Uiso   1.00
O48    O     0.32755   0.23912   0.14630   0.00000  Uiso   1.00
O49    O     0.29933   0.18320   0.18966   0.00000  Uiso   1.00
N50    N     0.01068   0.27589   0.31146   0.00000  Uiso   1.00
O51    O     0.00998   0.25712   0.35307   0.00000  Uiso   1.00
O52    O     0.02177   0.31812   0.30987   0.00000  Uiso   1.00
N53    N     0.25918   0.12173   0.28946   0.00000  Uiso   1.00
O54    O     0.25746   0.14713   0.32679   0.00000  Uiso   1.00
O55    O     0.30230   0.11825   0.27245   0.00000  Uiso   1.00
N56    N     0.15145   0.38874   0.33667   0.00000  Uiso   1.00
O57    O     0.10913   0.36608   0.33965   0.00000  Uiso   1.00
O58    O     0.18150   0.39952   0.37608   0.00000  Uiso   1.00
Br59   Br    0.27530   0.01971   0.29289   0.00000  Uiso   1.00
Br60   Br    0.14616   0.49074   0.34442   0.00000  Uiso   1.00
Br61   Br    0.20534   0.34486   0.03503   0.00000  Uiso   1.00
Br62   Br    0.12779   0.15509   0.46475   0.00000  Uiso   1.00
Br63   Br    0.24560   0.31988   0.14687   0.00000  Uiso   1.00
Br64   Br    0.08904   0.17888   0.35272   0.00000  Uiso   1.00
Br65   Br    0.08818   0.17958   0.12380   0.00000  Uiso   1.00
Br66   Br    0.24904   0.31693   0.37680   0.00000  Uiso   1.00
O67    O     0.50000   0.18572   0.29071   0.00000  Uiso   1.00
O68    O     0.50000   0.31427   0.20928   0.00000  Uiso   1.00
O69    O     0.50000   0.18573   0.20928   0.00000  Uiso   1.00
O70    O     0.50000   0.31427   0.29072   0.00000  Uiso   1.00
C71    C     0.50100   0.16531   0.24998   0.00000  Uiso   1.00
C72    C     0.49930   0.33527   0.25017   0.00000  Uiso   1.00
O73    O     0.42495   0.24999   0.28132   0.00000  Uiso   1.00
O74    O     0.57505   0.25000   0.21868   0.00000  Uiso   1.00
O75    O     0.42495   0.25000   0.19988   0.00000  Uiso   1.00
O76    O     0.57505   0.25000   0.30011   0.00000  Uiso   1.00
C77    C     0.40144   0.24951   0.23776   0.00000  Uiso   1.00
C78    C     0.59841   0.24942   0.26219   0.00000  Uiso   1.00
Cu79   Cu    0.50000   0.24999   0.29821   0.00000  Uiso   1.00
Cu80   Cu    0.50000   0.25000   0.20178   0.00000  Uiso   1.00
C81    C     0.34637   0.24359   0.23162   0.00000  Uiso   1.00
C82    C     0.65337   0.25354   0.26845   0.00000  Uiso   1.00
C83    C     0.46091   0.04701   0.22502   0.00000  Uiso   1.00
C84    C     0.50702   0.45250   0.20598   0.00000  Uiso   1.00
H85    H     0.42700   0.02818   0.20896   0.00000  Uiso   1.00
H86    H     0.51280   0.46892   0.17272   0.00000  Uiso   1.00
C87    C     0.46022   0.09284   0.22721   0.00000  Uiso   1.00
C88    C     0.50498   0.40657   0.20748   0.00000  Uiso   1.00
H89    H     0.42602   0.10919   0.21211   0.00000  Uiso   1.00
H90    H     0.50906   0.38856   0.17485   0.00000  Uiso   1.00
C91    C     0.50294   0.11743   0.24957   0.00000  Uiso   1.00
C92    C     0.49856   0.38428   0.25036   0.00000  Uiso   1.00
C93    C     0.54781   0.09628   0.26852   0.00000  Uiso   1.00
C94    C     0.49254   0.40951   0.29217   0.00000  Uiso   1.00
C95    C     0.54857   0.04986   0.26588   0.00000  Uiso   1.00
C96    C     0.49335   0.45599   0.28989   0.00000  Uiso   1.00
C97    C     0.50451   0.02544   0.24485   0.00000  Uiso   1.00
C98    C     0.50182   0.47717   0.24704   0.00000  Uiso   1.00
C99    C     0.52490   0.28565   0.05778   0.00000  Uiso   1.00
C100   C     0.47457   0.21441   0.44206   0.00000  Uiso   1.00
C101   C     0.52948   0.28112   0.10851   0.00000  Uiso   1.00
C102   C     0.47032   0.21888   0.39133   0.00000  Uiso   1.00
N103   N     0.50000   0.25001   0.12934   0.00000  Uiso   1.00
N104   N     0.50000   0.24999   0.37065   0.00000  Uiso   1.00
C105   C     0.46666   0.22267   0.09981   0.00000  Uiso   1.00
C106   C     0.53396   0.27666   0.40037   0.00000  Uiso   1.00
C107   C     0.46444   0.22449   0.04962   0.00000  Uiso   1.00
C108   C     0.53556   0.27514   0.45052   0.00000  Uiso   1.00
H109   H     0.43382   0.20553   0.02889   0.00000  Uiso   1.00
H110   H     0.56642   0.29365   0.47149   0.00000  Uiso   1.00
C111   C     0.49798   0.25223   0.02712   0.00000  Uiso   1.00
C112   C     0.50141   0.24782   0.47279   0.00000  Uiso   1.00
N113   N     0.65551   0.22205   0.18795   0.00000  Uiso   1.00
O114   O     0.66089   0.23912   0.14630   0.00000  Uiso   1.00
O115   O     0.63266   0.18320   0.18966   0.00000  Uiso   1.00
N116   N     0.34401   0.27589   0.31146   0.00000  Uiso   1.00
O117   O     0.34331   0.25712   0.35307   0.00000  Uiso   1.00
O118   O     0.35511   0.31812   0.30987   0.00000  Uiso   1.00
N119   N     0.59251   0.12173   0.28946   0.00000  Uiso   1.00
O120   O     0.59079   0.14713   0.32679   0.00000  Uiso   1.00
O121   O     0.63564   0.11825   0.27245   0.00000  Uiso   1.00
N122   N     0.48478   0.38874   0.33667   0.00000  Uiso   1.00
O123   O     0.44247   0.36608   0.33965   0.00000  Uiso   1.00
O124   O     0.51483   0.39952   0.37608   0.00000  Uiso   1.00
Br125  Br    0.60864   0.01971   0.29289   0.00000  Uiso   1.00
Br126  Br    0.47949   0.49074   0.34442   0.00000  Uiso   1.00
Br127  Br    0.53868   0.34486   0.03503   0.00000  Uiso   1.00
Br128  Br    0.46112   0.15509   0.46475   0.00000  Uiso   1.00
Br129  Br    0.57894   0.31988   0.14687   0.00000  Uiso   1.00
Br130  Br    0.42238   0.17888   0.35272   0.00000  Uiso   1.00
Br131  Br    0.42151   0.17958   0.12380   0.00000  Uiso   1.00
Br132  Br    0.58238   0.31693   0.37680   0.00000  Uiso   1.00
O133   O     0.83334   0.18572   0.29071   0.00000  Uiso   1.00
O134   O     0.83333   0.31427   0.20928   0.00000  Uiso   1.00
O135   O     0.83334   0.18573   0.20928   0.00000  Uiso   1.00
O136   O     0.83333   0.31427   0.29072   0.00000  Uiso   1.00
C137   C     0.83434   0.16531   0.24998   0.00000  Uiso   1.00
C138   C     0.83263   0.33527   0.25017   0.00000  Uiso   1.00
O139   O     0.75828   0.24999   0.28132   0.00000  Uiso   1.00
O140   O     0.90839   0.25000   0.21868   0.00000  Uiso   1.00
O141   O     0.75828   0.25000   0.19988   0.00000  Uiso   1.00
O142   O     0.90839   0.25000   0.30011   0.00000  Uiso   1.00
C143   C     0.73477   0.24951   0.23776   0.00000  Uiso   1.00
C144   C     0.93174   0.24942   0.26219   0.00000  Uiso   1.00
Cu145  Cu    0.83333   0.24999   0.29821   0.00000  Uiso   1.00
Cu146  Cu    0.83333   0.25000   0.20178   0.00000  Uiso   1.00
C147   C     0.67971   0.24359   0.23162   0.00000  Uiso   1.00
C148   C     0.98670   0.25354   0.26845   0.00000  Uiso   1.00
C149   C     0.79425   0.04701   0.22502   0.00000  Uiso   1.00
C150   C     0.84035   0.45250   0.20598   0.00000  Uiso   1.00
H151   H     0.76033   0.02818   0.20896   0.00000  Uiso   1.00
H152   H     0.84614   0.46892   0.17272   0.00000  Uiso   1.00
C153   C     0.79355   0.09284   0.22721   0.00000  Uiso   1.00
C154   C     0.83831   0.40657   0.20748   0.00000  Uiso   1.00
H155   H     0.75935   0.10919   0.21211   0.00000  Uiso   1.00
H156   H     0.84240   0.38856   0.17485   0.00000  Uiso   1.00
C157   C     0.83628   0.11743   0.24957   0.00000  Uiso   1.00
C158   C     0.83190   0.38428   0.25036   0.00000  Uiso   1.00
C159   C     0.88114   0.09628   0.26852   0.00000  Uiso   1.00
C160   C     0.82588   0.40951   0.29217   0.00000  Uiso   1.00
C161   C     0.88190   0.04986   0.26588   0.00000  Uiso   1.00
C162   C     0.82668   0.45599   0.28989   0.00000  Uiso   1.00
C163   C     0.83784   0.02544   0.24485   0.00000  Uiso   1.00
C164   C     0.83515   0.47717   0.24704   0.00000  Uiso   1.00
C165   C     0.85824   0.28565   0.05778   0.00000  Uiso   1.00
C166   C     0.80790   0.21441   0.44206   0.00000  Uiso   1.00
C167   C     0.86281   0.28112   0.10851   0.00000  Uiso   1.00
C168   C     0.80365   0.21888   0.39133   0.00000  Uiso   1.00
N169   N     0.83333   0.25001   0.12934   0.00000  Uiso   1.00
N170   N     0.83333   0.24999   0.37065   0.00000  Uiso   1.00
C171   C     0.80000   0.22267   0.09981   0.00000  Uiso   1.00
C172   C     0.86729   0.27666   0.40037   0.00000  Uiso   1.00
C173   C     0.79777   0.22449   0.04962   0.00000  Uiso   1.00
C174   C     0.86889   0.27514   0.45052   0.00000  Uiso   1.00
H175   H     0.76715   0.20553   0.02889   0.00000  Uiso   1.00
H176   H     0.89975   0.29365   0.47149   0.00000  Uiso   1.00
C177   C     0.83132   0.25223   0.02712   0.00000  Uiso   1.00
C178   C     0.83474   0.24782   0.47279   0.00000  Uiso   1.00
N179   N     0.98884   0.22205   0.18795   0.00000  Uiso   1.00
O180   O     0.99422   0.23912   0.14630   0.00000  Uiso   1.00
O181   O     0.96599   0.18320   0.18966   0.00000  Uiso   1.00
N182   N     0.67734   0.27589   0.31146   0.00000  Uiso   1.00
O183   O     0.67664   0.25712   0.35307   0.00000  Uiso   1.00
O184   O     0.68844   0.31812   0.30987   0.00000  Uiso   1.00
N185   N     0.92584   0.12173   0.28946   0.00000  Uiso   1.00
O186   O     0.92413   0.14713   0.32679   0.00000  Uiso   1.00
O187   O     0.96897   0.11825   0.27245   0.00000  Uiso   1.00
N188   N     0.81811   0.38874   0.33667   0.00000  Uiso   1.00
O189   O     0.77580   0.36608   0.33965   0.00000  Uiso   1.00
O190   O     0.84816   0.39952   0.37608   0.00000  Uiso   1.00
Br191  Br    0.94197   0.01971   0.29289   0.00000  Uiso   1.00
Br192  Br    0.81283   0.49074   0.34442   0.00000  Uiso   1.00
Br193  Br    0.87201   0.34486   0.03503   0.00000  Uiso   1.00
Br194  Br    0.79445   0.15509   0.46475   0.00000  Uiso   1.00
Br195  Br    0.91227   0.31988   0.14687   0.00000  Uiso   1.00
Br196  Br    0.75571   0.17888   0.35272   0.00000  Uiso   1.00
Br197  Br    0.75484   0.17958   0.12380   0.00000  Uiso   1.00
Br198  Br    0.91571   0.31693   0.37680   0.00000  Uiso   1.00
O199   O     0.16667   0.68572   0.29071   0.00000  Uiso   1.00
O200   O     0.16666   0.81427   0.20928   0.00000  Uiso   1.00
O201   O     0.16667   0.68573   0.20928   0.00000  Uiso   1.00
O202   O     0.16666   0.81427   0.29072   0.00000  Uiso   1.00
C203   C     0.16767   0.66531   0.24998   0.00000  Uiso   1.00
C204   C     0.16596   0.83527   0.25017   0.00000  Uiso   1.00
O205   O     0.09161   0.74999   0.28132   0.00000  Uiso   1.00
O206   O     0.24172   0.75000   0.21868   0.00000  Uiso   1.00
O207   O     0.09161   0.75000   0.19988   0.00000  Uiso   1.00
O208   O     0.24172   0.75000   0.30011   0.00000  Uiso   1.00
C209   C     0.06811   0.74951   0.23776   0.00000  Uiso   1.00
C210   C     0.26508   0.74942   0.26219   0.00000  Uiso   1.00
Cu211  Cu    0.16667   0.74999   0.29821   0.00000  Uiso   1.00
Cu212  Cu    0.16667   0.75000   0.20178   0.00000  Uiso   1.00
C213   C     0.01304   0.74359   0.23162   0.00000  Uiso   1.00
C214   C     0.32004   0.75354   0.26845   0.00000  Uiso   1.00
C215   C     0.12758   0.54701   0.22502   0.00000  Uiso   1.00
C216   C     0.17368   0.95250   0.20598   0.00000  Uiso   1.00
H217   H     0.09367   0.52818   0.20896   0.00000  Uiso   1.00
H218   H     0.17947   0.96892   0.17272   0.00000  Uiso   1.00
C219   C     0.12689   0.59284   0.22721   0.00000  Uiso   1.00
C220   C     0.17164   0.90657   0.20748   0.00000  Uiso   1.00
H221   H     0.09269   0.60919   0.21211   0.00000  Uiso   1.00
H222   H     0.17573   0.88856   0.17485   0.00000  Uiso   1.00
C223   C     0.16961   0.61743   0.24957   0.00000  Uiso   1.00
C224   C     0.16523   0.88428   0.25036   0.00000  Uiso   1.00
C225   C     0.21447   0.59628   0.26852   0.00000  Uiso   1.00
C226   C     0.15921   0.90951   0.29217   0.00000  Uiso   1.00
C227   C     0.21523   0.54986   0.26588   0.00000  Uiso   1.00
C228   C     0.16002   0.95599   0.28989   0.00000  Uiso   1.00
C229   C     0.17118   0.52544   0.24485   0.00000  Uiso   1.00
C230   C     0.16848   0.97717   0.24704   0.00000  Uiso   1.00
C231   C     0.19157   0.78565   0.05778   0.00000  Uiso   1.00
C232   C     0.14123   0.71441   0.44206   0.00000  Uiso   1.00
C233   C     0.19614   0.78112   0.10851   0.00000  Uiso   1.00
C234   C     0.13699   0.71888   0.39133   0.00000  Uiso   1.00
N235   N     0.16667   0.75001   0.12934   0.00000  Uiso   1.00
N236   N     0.16667   0.74999   0.37065   0.00000  Uiso   1.00
C237   C     0.13333   0.72267   0.09981   0.00000  Uiso   1.00
C238   C     0.20062   0.77666   0.40037   0.00000  Uiso   1.00
C239   C     0.13110   0.72449   0.04962   0.00000  Uiso   1.00
C240   C     0.20222   0.77514   0.45052   0.00000  Uiso   1.00
H241   H     0.10049   0.70553   0.02889   0.00000  Uiso   1.00
H242   H     0.23309   0.79365   0.47149   0.00000  Uiso   1.00
C243   C     0.16465   0.75223   0.02712   0.00000  Uiso   1.00
C244   C     0.16808   0.74782   0.47279   0.00000  Uiso   1.00
N245   N     0.32217   0.72205   0.18795   0.00000  Uiso   1.00
O246   O     0.32755   0.73912   0.14630   0.00000  Uiso   1.00
O247   O     0.29933   0.68320   0.18966   0.00000  Uiso   1.00
N248   N     0.01068   0.77589   0.31146   0.00000  Uiso   1.00
O249   O     0.00998   0.75712   0.35307   0.00000  Uiso   1.00
O250   O     0.02177   0.81812   0.30987   0.00000  Uiso   1.00
N251   N     0.25918   0.62173   0.28946   0.00000  Uiso   1.00
O252   O     0.25746   0.64713   0.32679   0.00000  Uiso   1.00
O253   O     0.30230   0.61825   0.27245   0.00000  Uiso   1.00
N254   N     0.15145   0.88874   0.33667   0.00000  Uiso   1.00
O255   O     0.10913   0.86608   0.33965   0.00000  Uiso   1.00
O256   O     0.18150   0.89952   0.37608   0.00000  Uiso   1.00
Br257  Br    0.27530   0.51971   0.29289   0.00000  Uiso   1.00
Br258  Br    0.14616   0.99074   0.34442   0.00000  Uiso   1.00
Br259  Br    0.20534   0.84486   0.03503   0.00000  Uiso   1.00
Br260  Br    0.12779   0.65509   0.46475   0.00000  Uiso   1.00
Br261  Br    0.24560   0.81988   0.14687   0.00000  Uiso   1.00
Br262  Br    0.08904   0.67888   0.35272   0.00000  Uiso   1.00
Br263  Br    0.08818   0.67958   0.12380   0.00000  Uiso   1.00
Br264  Br    0.24904   0.81693   0.37680   0.00000  Uiso   1.00
O265   O     0.50000   0.68572   0.29071   0.00000  Uiso   1.00
O266   O     0.50000   0.81427   0.20928   0.00000  Uiso   1.00
O267   O     0.50000   0.68573   0.20928   0.00000  Uiso   1.00
O268   O     0.50000   0.81427   0.29072   0.00000  Uiso   1.00
C269   C     0.50100   0.66531   0.24998   0.00000  Uiso   1.00
C270   C     0.49930   0.83527   0.25017   0.00000  Uiso   1.00
O271   O     0.42495   0.74999   0.28132   0.00000  Uiso   1.00
O272   O     0.57505   0.75000   0.21868   0.00000  Uiso   1.00
O273   O     0.42495   0.75000   0.19988   0.00000  Uiso   1.00
O274   O     0.57505   0.75000   0.30011   0.00000  Uiso   1.00
C275   C     0.40144   0.74951   0.23776   0.00000  Uiso   1.00
C276   C     0.59841   0.74942   0.26219   0.00000  Uiso   1.00
Cu277  Cu    0.50000   0.74999   0.29821   0.00000  Uiso   1.00
Cu278  Cu    0.50000   0.75000   0.20178   0.00000  Uiso   1.00
C279   C     0.34637   0.74359   0.23162   0.00000  Uiso   1.00
C280   C     0.65337   0.75354   0.26845   0.00000  Uiso   1.00
C281   C     0.46091   0.54701   0.22502   0.00000  Uiso   1.00
C282   C     0.50702   0.95250   0.20598   0.00000  Uiso   1.00
H283   H     0.42700   0.52818   0.20896   0.00000  Uiso   1.00
H284   H     0.51280   0.96892   0.17272   0.00000  Uiso   1.00
C285   C     0.46022   0.59284   0.22721   0.00000  Uiso   1.00
C286   C     0.50498   0.90657   0.20748   0.00000  Uiso   1.00
H287   H     0.42602   0.60919   0.21211   0.00000  Uiso   1.00
H288   H     0.50906   0.88856   0.17485   0.00000  Uiso   1.00
C289   C     0.50294   0.61743   0.24957   0.00000  Uiso   1.00
C290   C     0.49856   0.88428   0.25036   0.00000  Uiso   1.00
C291   C     0.54781   0.59628   0.26852   0.00000  Uiso   1.00
C292   C     0.49254   0.90951   0.29217   0.00000  Uiso   1.00
C293   C     0.54857   0.54986   0.26588   0.00000  Uiso   1.00
C294   C     0.49335   0.95599   0.28989   0.00000  Uiso   1.00
C295   C     0.50451   0.52544   0.24485   0.00000  Uiso   1.00
C296   C     0.50182   0.97717   0.24704   0.00000  Uiso   1.00
C297   C     0.52490   0.78565   0.05778   0.00000  Uiso   1.00
C298   C     0.47457   0.71441   0.44206   0.00000  Uiso   1.00
C299   C     0.52948   0.78112   0.10851   0.00000  Uiso   1.00
C300   C     0.47032   0.71888   0.39133   0.00000  Uiso   1.00
N301   N     0.50000   0.75001   0.12934   0.00000  Uiso   1.00
N302   N     0.50000   0.74999   0.37065   0.00000  Uiso   1.00
C303   C     0.46666   0.72267   0.09981   0.00000  Uiso   1.00
C304   C     0.53396   0.77666   0.40037   0.00000  Uiso   1.00
C305   C     0.46444   0.72449   0.04962   0.00000  Uiso   1.00
C306   C     0.53556   0.77514   0.45052   0.00000  Uiso   1.00
H307   H     0.43382   0.70553   0.02889   0.00000  Uiso   1.00
H308   H     0.56642   0.79365   0.47149   0.00000  Uiso   1.00
C309   C     0.49798   0.75223   0.02712   0.00000  Uiso   1.00
C310   C     0.50141   0.74782   0.47279   0.00000  Uiso   1.00
N311   N     0.65551   0.72205   0.18795   0.00000  Uiso   1.00
O312   O     0.66089   0.73912   0.14630   0.00000  Uiso   1.00
O313   O     0.63266   0.68320   0.18966   0.00000  Uiso   1.00
N314   N     0.34401   0.77589   0.31146   0.00000  Uiso   1.00
O315   O     0.34331   0.75712   0.35307   0.00000  Uiso   1.00
O316   O     0.35511   0.81812   0.30987   0.00000  Uiso   1.00
N317   N     0.59251   0.62173   0.28946   0.00000  Uiso   1.00
O318   O     0.59079   0.64713   0.32679   0.00000  Uiso   1.00
O319   O     0.63564   0.61825   0.27245   0.00000  Uiso   1.00
N320   N     0.48478   0.88874   0.33667   0.00000  Uiso   1.00
O321   O     0.44247   0.86608   0.33965   0.00000  Uiso   1.00
O322   O     0.51483   0.89952   0.37608   0.00000  Uiso   1.00
Br323  Br    0.60864   0.51971   0.29289   0.00000  Uiso   1.00
Br324  Br    0.47949   0.99074   0.34442   0.00000  Uiso   1.00
Br325  Br    0.53868   0.84486   0.03503   0.00000  Uiso   1.00
Br326  Br    0.46112   0.65509   0.46475   0.00000  Uiso   1.00
Br327  Br    0.57894   0.81988   0.14687   0.00000  Uiso   1.00
Br328  Br    0.42238   0.67888   0.35272   0.00000  Uiso   1.00
Br329  Br    0.42151   0.67958   0.12380   0.00000  Uiso   1.00
Br330  Br    0.58238   0.81693   0.37680   0.00000  Uiso   1.00
O331   O     0.83334   0.68572   0.29071   0.00000  Uiso   1.00
O332   O     0.83333   0.81427   0.20928   0.00000  Uiso   1.00
O333   O     0.83334   0.68573   0.20928   0.00000  Uiso   1.00
O334   O     0.83333   0.81427   0.29072   0.00000  Uiso   1.00
C335   C     0.83434   0.66531   0.24998   0.00000  Uiso   1.00
C336   C     0.83263   0.83527   0.25017   0.00000  Uiso   1.00
O337   O     0.75828   0.74999   0.28132   0.00000  Uiso   1.00
O338   O     0.90839   0.75000   0.21868   0.00000  Uiso   1.00
O339   O     0.75828   0.75000   0.19988   0.00000  Uiso   1.00
O340   O     0.90839   0.75000   0.30011   0.00000  Uiso   1.00
C341   C     0.73477   0.74951   0.23776   0.00000  Uiso   1.00
C342   C     0.93174   0.74942   0.26219   0.00000  Uiso   1.00
Cu343  Cu    0.83333   0.74999   0.29821   0.00000  Uiso   1.00
Cu344  Cu    0.83333   0.75000   0.20178   0.00000  Uiso   1.00
C345   C     0.67971   0.74359   0.23162   0.00000  Uiso   1.00
C346   C     0.98670   0.75354   0.26845   0.00000  Uiso   1.00
C347   C     0.79425   0.54701   0.22502   0.00000  Uiso   1.00
C348   C     0.84035   0.95250   0.20598   0.00000  Uiso   1.00
H349   H     0.76033   0.52818   0.20896   0.00000  Uiso   1.00
H350   H     0.84614   0.96892   0.17272   0.00000  Uiso   1.00
C351   C     0.79355   0.59284   0.22721   0.00000  Uiso   1.00
C352   C     0.83831   0.90657   0.20748   0.00000  Uiso   1.00
H353   H     0.75935   0.60919   0.21211   0.00000  Uiso   1.00
H354   H     0.84240   0.88856   0.17485   0.00000  Uiso   1.00
C355   C     0.83628   0.61743   0.24957   0.00000  Uiso   1.00
C356   C     0.83190   0.88428   0.25036   0.00000  Uiso   1.00
C357   C     0.88114   0.59628   0.26852   0.00000  Uiso   1.00
C358   C     0.82588   0.90951   0.29217   0.00000  Uiso   1.00
C359   C     0.88190   0.54986   0.26588   0.00000  Uiso   1.00
C360   C     0.82668   0.95599   0.28989   0.00000  Uiso   1.00
C361   C     0.83784   0.52544   0.24485   0.00000  Uiso   1.00
C362   C     0.83515   0.97717   0.24704   0.00000  Uiso   1.00
C363   C     0.85824   0.78565   0.05778   0.00000  Uiso   1.00
C364   C     0.80790   0.71441   0.44206   0.00000  Uiso   1.00
C365   C     0.86281   0.78112   0.10851   0.00000  Uiso   1.00
C366   C     0.80365   0.71888   0.39133   0.00000  Uiso   1.00
N367   N     0.83333   0.75001   0.12934   0.00000  Uiso   1.00
N368   N     0.83333   0.74999   0.37065   0.00000  Uiso   1.00
C369   C     0.80000   0.72267   0.09981   0.00000  Uiso   1.00
C370   C     0.86729   0.77666   0.40037   0.00000  Uiso   1.00
C371   C     0.79777   0.72449   0.04962   0.00000  Uiso   1.00
C372   C     0.86889   0.77514   0.45052   0.00000  Uiso   1.00
H373   H     0.76715   0.70553   0.02889   0.00000  Uiso   1.00
H374   H     0.89975   0.79365   0.47149   0.00000  Uiso   1.00
C375   C     0.83132   0.75223   0.02712   0.00000  Uiso   1.00
C376   C     0.83474   0.74782   0.47279   0.00000  Uiso   1.00
N377   N     0.98884   0.72205   0.18795   0.00000  Uiso   1.00
O378   O     0.99422   0.73912   0.14630   0.00000  Uiso   1.00
O379   O     0.96599   0.68320   0.18966   0.00000  Uiso   1.00
N380   N     0.67734   0.77589   0.31146   0.00000  Uiso   1.00
O381   O     0.67664   0.75712   0.35307   0.00000  Uiso   1.00
O382   O     0.68844   0.81812   0.30987   0.00000  Uiso   1.00
N383   N     0.92584   0.62173   0.28946   0.00000  Uiso   1.00
O384   O     0.92413   0.64713   0.32679   0.00000  Uiso   1.00
O385   O     0.96897   0.61825   0.27245   0.00000  Uiso   1.00
N386   N     0.81811   0.88874   0.33667   0.00000  Uiso   1.00
O387   O     0.77580   0.86608   0.33965   0.00000  Uiso   1.00
O388   O     0.84816   0.89952   0.37608   0.00000  Uiso   1.00
Br389  Br    0.94197   0.51971   0.29289   0.00000  Uiso   1.00
Br390  Br    0.81283   0.99074   0.34442   0.00000  Uiso   1.00
Br391  Br    0.87201   0.84486   0.03503   0.00000  Uiso   1.00
Br392  Br    0.79445   0.65509   0.46475   0.00000  Uiso   1.00
Br393  Br    0.91227   0.81988   0.14687   0.00000  Uiso   1.00
Br394  Br    0.75571   0.67888   0.35272   0.00000  Uiso   1.00
Br395  Br    0.75484   0.67958   0.12380   0.00000  Uiso   1.00
Br396  Br    0.91571   0.81693   0.37680   0.00000  Uiso   1.00
O397   O     0.16667   0.18572   0.79071   0.00000  Uiso   1.00
O398   O     0.16666   0.31427   0.70928   0.00000  Uiso   1.00
O399   O     0.16667   0.18573   0.70928   0.00000  Uiso   1.00
O400   O     0.16666   0.31427   0.79072   0.00000  Uiso   1.00
C401   C     0.16767   0.16531   0.74998   0.00000  Uiso   1.00
C402   C     0.16596   0.33527   0.75017   0.00000  Uiso   1.00
O403   O     0.09161   0.24999   0.78132   0.00000  Uiso   1.00
O404   O     0.24172   0.25000   0.71868   0.00000  Uiso   1.00
O405   O     0.09161   0.25000   0.69988   0.00000  Uiso   1.00
O406   O     0.24172   0.25000   0.80011   0.00000  Uiso   1.00
C407   C     0.06811   0.24951   0.73776   0.00000  Uiso   1.00
C408   C     0.26508   0.24942   0.76219   0.00000  Uiso   1.00
Cu409  Cu    0.16667   0.24999   0.79821   0.00000  Uiso   1.00
Cu410  Cu    0.16667   0.25000   0.70178   0.00000  Uiso   1.00
C411   C     0.01304   0.24359   0.73162   0.00000  Uiso   1.00
C412   C     0.32004   0.25354   0.76845   0.00000  Uiso   1.00
C413   C     0.12758   0.04701   0.72502   0.00000  Uiso   1.00
C414   C     0.17368   0.45250   0.70598   0.00000  Uiso   1.00
H415   H     0.09367   0.02818   0.70896   0.00000  Uiso   1.00
H416   H     0.17947   0.46892   0.67272   0.00000  Uiso   1.00
C417   C     0.12689   0.09284   0.72721   0.00000  Uiso   1.00
C418   C     0.17164   0.40657   0.70748   0.00000  Uiso   1.00
H419   H     0.09269   0.10919   0.71211   0.00000  Uiso   1.00
H420   H     0.17573   0.38856   0.67485   0.00000  Uiso   1.00
C421   C     0.16961   0.11743   0.74957   0.00000  Uiso   1.00
C422   C     0.16523   0.38428   0.75036   0.00000  Uiso   1.00
C423   C     0.21447   0.09628   0.76852   0.00000  Uiso   1.00
C424   C     0.15921   0.40951   0.79217   0.00000  Uiso   1.00
C425   C     0.21523   0.04986   0.76588   0.00000  Uiso   1.00
C426   C     0.16002   0.45599   0.78989   0.00000  Uiso   1.00
C427   C     0.17118   0.02544   0.74485   0.00000  Uiso   1.00
C428   C     0.16848   0.47717   0.74704   0.00000  Uiso   1.00
C429   C     0.19157   0.28565   0.55778   0.00000  Uiso   1.00
C430   C     0.14123   0.21441   0.94206   0.00000  Uiso   1.00
C431   C     0.19614   0.28112   0.60851   0.00000  Uiso   1.00
C432   C     0.13699   0.21888   0.89133   0.00000  Uiso   1.00
N433   N     0.16667   0.25001   0.62934   0.00000  Uiso   1.00
N434   N     0.16667   0.24999   0.87065   0.00000  Uiso   1.00
C435   C     0.13333   0.22267   0.59981   0.00000  Uiso   1.00
C436   C     0.20062   0.27666   0.90037   0.00000  Uiso   1.00
C437   C     0.13110   0.22449   0.54962   0.00000  Uiso   1.00
C438   C     0.20222   0.27514   0.95052   0.00000  Uiso   1.00
H439   H     0.10049   0.20553   0.52889   0.00000  Uiso   1.00
H440   H     0.23309   0.29365   0.97149   0.00000  Uiso   1.00
C441   C     0.16465   0.25223   0.52712   0.00000  Uiso   1.00
C442   C     0.16808   0.24782   0.97279   0.00000  Uiso   1.00
N443   N     0.32217   0.22205   0.68795   0.00000  Uiso   1.00
O444   O     0.32755   0.23912   0.64630   0.00000  Uiso   1.00
O445   O     0.29933   0.18320   0.68966   0.00000  Uiso   1.00
N446   N     0.01068   0.27589   0.81146   0.00000  Uiso   1.00
O447   O     0.00998   0.25712   0.85307   0.00000  Uiso   1.00
O448   O     0.02177   0.31812   0.80987   0.00000  Uiso   1.00
N449   N     0.25918   0.12173   0.78946   0.00000  Uiso   1.00
O450   O     0.25746   0.14713   0.82679   0.00000  Uiso   1.00
O451   O     0.30230   0.11825   0.77245   0.00000  Uiso   1.00
N452   N     0.15145   0.38874   0.83667   0.00000  Uiso   1.00
O453   O     0.10913   0.36608   0.83965   0.00000  Uiso   1.00
O454   O     0.18150   0.39952   0.87608   0.00000  Uiso   1.00
Br455  Br    0.27530   0.01971   0.79289   0.00000  Uiso   1.00
Br456  Br    0.14616   0.49074   0.84442   0.00000  Uiso   1.00
Br457  Br    0.20534   0.34486   0.53503   0.00000  Uiso   1.00
Br458  Br    0.12779   0.15509   0.96475   0.00000  Uiso   1.00
Br459  Br    0.24560   0.31988   0.64687   0.00000  Uiso   1.00
Br460  Br    0.08904   0.17888   0.85272   0.00000  Uiso   1.00
Br461  Br    0.08818   0.17958   0.62380   0.00000  Uiso   1.00
Br462  Br    0.24904   0.31693   0.87680   0.00000  Uiso   1.00
O463   O     0.50000   0.18572   0.79071   0.00000  Uiso   1.00
O464   O     0.50000   0.31427   0.70928   0.00000  Uiso   1.00
O465   O     0.50000   0.18573   0.70928   0.00000  Uiso   1.00
O466   O     0.50000   0.31427   0.79072   0.00000  Uiso   1.00
C467   C     0.50100   0.16531   0.74998   0.00000  Uiso   1.00
C468   C     0.49930   0.33527   0.75017   0.00000  Uiso   1.00
O469   O     0.42495   0.24999   0.78132   0.00000  Uiso   1.00
O470   O     0.57505   0.25000   0.71868   0.00000  Uiso   1.00
O471   O     0.42495   0.25000   0.69988   0.00000  Uiso   1.00
O472   O     0.57505   0.25000   0.80011   0.00000  Uiso   1.00
C473   C     0.40144   0.24951   0.73776   0.00000  Uiso   1.00
C474   C     0.59841   0.24942   0.76219   0.00000  Uiso   1.00
Cu475  Cu    0.50000   0.24999   0.79821   0.00000  Uiso   1.00
Cu476  Cu    0.50000   0.25000   0.70178   0.00000  Uiso   1.00
C477   C     0.34637   0.24359   0.73162   0.00000  Uiso   1.00
C478   C     0.65337   0.25354   0.76845   0.00000  Uiso   1.00
C479   C     0.46091   0.04701   0.72502   0.00000  Uiso   1.00
C480   C     0.50702   0.45250   0.70598   0.00000  Uiso   1.00
H481   H     0.42700   0.02818   0.70896   0.00000  Uiso   1.00
H482   H     0.51280   0.46892   0.67272   0.00000  Uiso   1.00
C483   C     0.46022   0.09284   0.72721   0.00000  Uiso   1.00
C484   C     0.50498   0.40657   0.70748   0.00000  Uiso   1.00
H485   H     0.42602   0.10919   0.71211   0.00000  Uiso   1.00
H486   H     0.50906   0.38856   0.67485   0.00000  Uiso   1.00
C487   C     0.50294   0.11743   0.74957   0.00000  Uiso   1.00
C488   C     0.49856   0.38428   0.75036   0.00000  Uiso   1.00
C489   C     0.54781   0.09628   0.76852   0.00000  Uiso   1.00
C490   C     0.49254   0.40951   0.79217   0.00000  Uiso   1.00
C491   C     0.54857   0.04986   0.76588   0.00000  Uiso   1.00
C492   C     0.49335   0.45599   0.78989   0.00000  Uiso   1.00
C493   C     0.50451   0.02544   0.74485   0.00000  Uiso   1.00
C494   C     0.50182   0.47717   0.74704   0.00000  Uiso   1.00
C495   C     0.52490   0.28565   0.55778   0.00000  Uiso   1.00
C496   C     0.47457   0.21441   0.94206   0.00000  Uiso   1.00
C497   C     0.52948   0.28112   0.60851   0.00000  Uiso   1.00
C498   C     0.47032   0.21888   0.89133   0.00000  Uiso   1.00
N499   N     0.50000   0.25001   0.62934   0.00000  Uiso   1.00
N500   N     0.50000   0.24999   0.87065   0.00000  Uiso   1.00
C501   C     0.46666   0.22267   0.59981   0.00000  Uiso   1.00
C502   C     0.53396   0.27666   0.90037   0.00000  Uiso   1.00
C503   C     0.46444   0.22449   0.54962   0.00000  Uiso   1.00
C504   C     0.53556   0.27514   0.95052   0.00000  Uiso   1.00
H505   H     0.43382   0.20553   0.52889   0.00000  Uiso   1.00
H506   H     0.56642   0.29365   0.97149   0.00000  Uiso   1.00
C507   C     0.49798   0.25223   0.52712   0.00000  Uiso   1.00
C508   C     0.50141   0.24782   0.97279   0.00000  Uiso   1.00
N509   N     0.65551   0.22205   0.68795   0.00000  Uiso   1.00
O510   O     0.66089   0.23912   0.64630   0.00000  Uiso   1.00
O511   O     0.63266   0.18320   0.68966   0.00000  Uiso   1.00
N512   N     0.34401   0.27589   0.81146   0.00000  Uiso   1.00
O513   O     0.34331   0.25712   0.85307   0.00000  Uiso   1.00
O514   O     0.35511   0.31812   0.80987   0.00000  Uiso   1.00
N515   N     0.59251   0.12173   0.78946   0.00000  Uiso   1.00
O516   O     0.59079   0.14713   0.82679   0.00000  Uiso   1.00
O517   O     0.63564   0.11825   0.77245   0.00000  Uiso   1.00
N518   N     0.48478   0.38874   0.83667   0.00000  Uiso   1.00
O519   O     0.44247   0.36608   0.83965   0.00000  Uiso   1.00
O520   O     0.51483   0.39952   0.87608   0.00000  Uiso   1.00
Br521  Br    0.60864   0.01971   0.79289   0.00000  Uiso   1.00
Br522  Br    0.47949   0.49074   0.84442   0.00000  Uiso   1.00
Br523  Br    0.53868   0.34486   0.53503   0.00000  Uiso   1.00
Br524  Br    0.46112   0.15509   0.96475   0.00000  Uiso   1.00
Br525  Br    0.57894   0.31988   0.64687   0.00000  Uiso   1.00
Br526  Br    0.42238   0.17888   0.85272   0.00000  Uiso   1.00
Br527  Br    0.42151   0.17958   0.62380   0.00000  Uiso   1.00
Br528  Br    0.58238   0.31693   0.87680   0.00000  Uiso   1.00
O529   O     0.83334   0.18572   0.79071   0.00000  Uiso   1.00
O530   O     0.83333   0.31427   0.70928   0.00000  Uiso   1.00
O531   O     0.83334   0.18573   0.70928   0.00000  Uiso   1.00
O532   O     0.83333   0.31427   0.79072   0.00000  Uiso   1.00
C533   C     0.83434   0.16531   0.74998   0.00000  Uiso   1.00
C534   C     0.83263   0.33527   0.75017   0.00000  Uiso   1.00
O535   O     0.75828   0.24999   0.78132   0.00000  Uiso   1.00
O536   O     0.90839   0.25000   0.71868   0.00000  Uiso   1.00
O537   O     0.75828   0.25000   0.69988   0.00000  Uiso   1.00
O538   O     0.90839   0.25000   0.80011   0.00000  Uiso   1.00
C539   C     0.73477   0.24951   0.73776   0.00000  Uiso   1.00
C540   C     0.93174   0.24942   0.76219   0.00000  Uiso   1.00
Cu541  Cu    0.83333   0.24999   0.79821   0.00000  Uiso   1.00
Cu542  Cu    0.83333   0.25000   0.70178   0.00000  Uiso   1.00
C543   C     0.67971   0.24359   0.73162   0.00000  Uiso   1.00
C544   C     0.98670   0.25354   0.76845   0.00000  Uiso   1.00
C545   C     0.79425   0.04701   0.72502   0.00000  Uiso   1.00
C546   C     0.84035   0.45250   0.70598   0.00000  Uiso   1.00
H547   H     0.76033   0.02818   0.70896   0.00000  Uiso   1.00
H548   H     0.84614   0.46892   0.67272   0.00000  Uiso   1.00
C549   C     0.79355   0.09284   0.72721   0.00000  Uiso   1.00
C550   C     0.83831   0.40657   0.70748   0.00000  Uiso   1.00
H551   H     0.75935   0.10919   0.71211   0.00000  Uiso   1.00
H552   H     0.84240   0.38856   0.67485   0.00000  Uiso   1.00
C553   C     0.83628   0.11743   0.74957   0.00000  Uiso   1.00
C554   C     0.83190   0.38428   0.75036   0.00000  Uiso   1.00
C555   C     0.88114   0.09628   0.76852   0.00000  Uiso   1.00
C556   C     0.82588   0.40951   0.79217   0.00000  Uiso   1.00
C557   C     0.88190   0.04986   0.76588   0.00000  Uiso   1.00
C558   C     0.82668   0.45599   0.78989   0.00000  Uiso   1.00
C559   C     0.83784   0.02544   0.74485   0.00000  Uiso   1.00
C560   C     0.83515   0.47717   0.74704   0.00000  Uiso   1.00
C561   C     0.85824   0.28565   0.55778   0.00000  Uiso   1.00
C562   C     0.80790   0.21441   0.94206   0.00000  Uiso   1.00
C563   C     0.86281   0.28112   0.60851   0.00000  Uiso   1.00
C564   C     0.80365   0.21888   0.89133   0.00000  Uiso   1.00
N565   N     0.83333   0.25001   0.62934   0.00000  Uiso   1.00
N566   N     0.83333   0.24999   0.87065   0.00000  Uiso   1.00
C567   C     0.80000   0.22267   0.59981   0.00000  Uiso   1.00
C568   C     0.86729   0.27666   0.90037   0.00000  Uiso   1.00
C569   C     0.79777   0.22449   0.54962   0.00000  Uiso   1.00
C570   C     0.86889   0.27514   0.95052   0.00000  Uiso   1.00
H571   H     0.76715   0.20553   0.52889   0.00000  Uiso   1.00
H572   H     0.89975   0.29365   0.97149   0.00000  Uiso   1.00
C573   C     0.83132   0.25223   0.52712   0.00000  Uiso   1.00
C574   C     0.83474   0.24782   0.97279   0.00000  Uiso   1.00
N575   N     0.98884   0.22205   0.68795   0.00000  Uiso   1.00
O576   O     0.99422   0.23912   0.64630   0.00000  Uiso   1.00
O577   O     0.96599   0.18320   0.68966   0.00000  Uiso   1.00
N578   N     0.67734   0.27589   0.81146   0.00000  Uiso   1.00
O579   O     0.67664   0.25712   0.85307   0.00000  Uiso   1.00
O580   O     0.68844   0.31812   0.80987   0.00000  Uiso   1.00
N581   N     0.92584   0.12173   0.78946   0.00000  Uiso   1.00
O582   O     0.92413   0.14713   0.82679   0.00000  Uiso   1.00
O583   O     0.96897   0.11825   0.77245   0.00000  Uiso   1.00
N584   N     0.81811   0.38874   0.83667   0.00000  Uiso   1.00
O585   O     0.77580   0.36608   0.83965   0.00000  Uiso   1.00
O586   O     0.84816   0.39952   0.87608   0.00000  Uiso   1.00
Br587  Br    0.94197   0.01971   0.79289   0.00000  Uiso   1.00
Br588  Br    0.81283   0.49074   0.84442   0.00000  Uiso   1.00
Br589  Br    0.87201   0.34486   0.53503   0.00000  Uiso   1.00
Br590  Br    0.79445   0.15509   0.96475   0.00000  Uiso   1.00
Br591  Br    0.91227   0.31988   0.64687   0.00000  Uiso   1.00
Br592  Br    0.75571   0.17888   0.85272   0.00000  Uiso   1.00
Br593  Br    0.75484   0.17958   0.62380   0.00000  Uiso   1.00
Br594  Br    0.91571   0.31693   0.87680   0.00000  Uiso   1.00
O595   O     0.16667   0.68572   0.79071   0.00000  Uiso   1.00
O596   O     0.16666   0.81427   0.70928   0.00000  Uiso   1.00
O597   O     0.16667   0.68573   0.70928   0.00000  Uiso   1.00
O598   O     0.16666   0.81427   0.79072   0.00000  Uiso   1.00
C599   C     0.16767   0.66531   0.74998   0.00000  Uiso   1.00
C600   C     0.16596   0.83527   0.75017   0.00000  Uiso   1.00
O601   O     0.09161   0.74999   0.78132   0.00000  Uiso   1.00
O602   O     0.24172   0.75000   0.71868   0.00000  Uiso   1.00
O603   O     0.09161   0.75000   0.69988   0.00000  Uiso   1.00
O604   O     0.24172   0.75000   0.80011   0.00000  Uiso   1.00
C605   C     0.06811   0.74951   0.73776   0.00000  Uiso   1.00
C606   C     0.26508   0.74942   0.76219   0.00000  Uiso   1.00
Cu607  Cu    0.16667   0.74999   0.79821   0.00000  Uiso   1.00
Cu608  Cu    0.16667   0.75000   0.70178   0.00000  Uiso   1.00
C609   C     0.01304   0.74359   0.73162   0.00000  Uiso   1.00
C610   C     0.32004   0.75354   0.76845   0.00000  Uiso   1.00
C611   C     0.12758   0.54701   0.72502   0.00000  Uiso   1.00
C612   C     0.17368   0.95250   0.70598   0.00000  Uiso   1.00
H613   H     0.09367   0.52818   0.70896   0.00000  Uiso   1.00
H614   H     0.17947   0.96892   0.67272   0.00000  Uiso   1.00
C615   C     0.12689   0.59284   0.72721   0.00000  Uiso   1.00
C616   C     0.17164   0.90657   0.70748   0.00000  Uiso   1.00
H617   H     0.09269   0.60919   0.71211   0.00000  Uiso   1.00
H618   H     0.17573   0.88856   0.67485   0.00000  Uiso   1.00
C619   C     0.16961   0.61743   0.74957   0.00000  Uiso   1.00
C620   C     0.16523   0.88428   0.75036   0.00000  Uiso   1.00
C621   C     0.21447   0.59628   0.76852   0.00000  Uiso   1.00
C622   C     0.15921   0.90951   0.79217   0.00000  Uiso   1.00
C623   C     0.21523   0.54986   0.76588   0.00000  Uiso   1.00
C624   C     0.16002   0.95599   0.78989   0.00000  Uiso   1.00
C625   C     0.17118   0.52544   0.74485   0.00000  Uiso   1.00
C626   C     0.16848   0.97717   0.74704   0.00000  Uiso   1.00
C627   C     0.19157   0.78565   0.55778   0.00000  Uiso   1.00
C628   C     0.14123   0.71441   0.94206   0.00000  Uiso   1.00
C629   C     0.19614   0.78112   0.60851   0.00000  Uiso   1.00
C630   C     0.13699   0.71888   0.89133   0.00000  Uiso   1.00
N631   N     0.16667   0.75001   0.62934   0.00000  Uiso   1.00
N632   N     0.16667   0.74999   0.87065   0.00000  Uiso   1.00
C633   C     0.13333   0.72267   0.59981   0.00000  Uiso   1.00
C634   C     0.20062   0.77666   0.90037   0.00000  Uiso   1.00
C635   C     0.13110   0.72449   0.54962   0.00000  Uiso   1.00
C636   C     0.20222   0.77514   0.95052   0.00000  Uiso   1.00
H637   H     0.10049   0.70553   0.52889   0.00000  Uiso   1.00
H638   H     0.23309   0.79365   0.97149   0.00000  Uiso   1.00
C639   C     0.16465   0.75223   0.52712   0.00000  Uiso   1.00
C640   C     0.16808   0.74782   0.97279   0.00000  Uiso   1.00
N641   N     0.32217   0.72205   0.68795   0.00000  Uiso   1.00
O642   O     0.32755   0.73912   0.64630   0.00000  Uiso   1.00
O643   O     0.29933   0.68320   0.68966   0.00000  Uiso   1.00
N644   N     0.01068   0.77589   0.81146   0.00000  Uiso   1.00
O645   O     0.00998   0.75712   0.85307   0.00000  Uiso   1.00
O646   O     0.02177   0.81812   0.80987   0.00000  Uiso   1.00
N647   N     0.25918   0.62173   0.78946   0.00000  Uiso   1.00
O648   O     0.25746   0.64713   0.82679   0.00000  Uiso   1.00
O649   O     0.30230   0.61825   0.77245   0.00000  Uiso   1.00
N650   N     0.15145   0.88874   0.83667   0.00000  Uiso   1.00
O651   O     0.10913   0.86608   0.83965   0.00000  Uiso   1.00
O652   O     0.18150   0.89952   0.87608   0.00000  Uiso   1.00
Br653  Br    0.27530   0.51971   0.79289   0.00000  Uiso   1.00
Br654  Br    0.14616   0.99074   0.84442   0.00000  Uiso   1.00
Br655  Br    0.20534   0.84486   0.53503   0.00000  Uiso   1.00
Br656  Br    0.12779   0.65509   0.96475   0.00000  Uiso   1.00
Br657  Br    0.24560   0.81988   0.64687   0.00000  Uiso   1.00
Br658  Br    0.08904   0.67888   0.85272   0.00000  Uiso   1.00
Br659  Br    0.08818   0.67958   0.62380   0.00000  Uiso   1.00
Br660  Br    0.24904   0.81693   0.87680   0.00000  Uiso   1.00
O661   O     0.50000   0.68572   0.79071   0.00000  Uiso   1.00
O662   O     0.50000   0.81427   0.70928   0.00000  Uiso   1.00
O663   O     0.50000   0.68573   0.70928   0.00000  Uiso   1.00
O664   O     0.50000   0.81427   0.79072   0.00000  Uiso   1.00
C665   C     0.50100   0.66531   0.74998   0.00000  Uiso   1.00
C666   C     0.49930   0.83527   0.75017   0.00000  Uiso   1.00
O667   O     0.42495   0.74999   0.78132   0.00000  Uiso   1.00
O668   O     0.57505   0.75000   0.71868   0.00000  Uiso   1.00
O669   O     0.42495   0.75000   0.69988   0.00000  Uiso   1.00
O670   O     0.57505   0.75000   0.80011   0.00000  Uiso   1.00
C671   C     0.40144   0.74951   0.73776   0.00000  Uiso   1.00
C672   C     0.59841   0.74942   0.76219   0.00000  Uiso   1.00
Cu673  Cu    0.50000   0.74999   0.79821   0.00000  Uiso   1.00
Cu674  Cu    0.50000   0.75000   0.70178   0.00000  Uiso   1.00
C675   C     0.34637   0.74359   0.73162   0.00000  Uiso   1.00
C676   C     0.65337   0.75354   0.76845   0.00000  Uiso   1.00
C677   C     0.46091   0.54701   0.72502   0.00000  Uiso   1.00
C678   C     0.50702   0.95250   0.70598   0.00000  Uiso   1.00
H679   H     0.42700   0.52818   0.70896   0.00000  Uiso   1.00
H680   H     0.51280   0.96892   0.67272   0.00000  Uiso   1.00
C681   C     0.46022   0.59284   0.72721   0.00000  Uiso   1.00
C682   C     0.50498   0.90657   0.70748   0.00000  Uiso   1.00
H683   H     0.42602   0.60919   0.71211   0.00000  Uiso   1.00
H684   H     0.50906   0.88856   0.67485   0.00000  Uiso   1.00
C685   C     0.50294   0.61743   0.74957   0.00000  Uiso   1.00
C686   C     0.49856   0.88428   0.75036   0.00000  Uiso   1.00
C687   C     0.54781   0.59628   0.76852   0.00000  Uiso   1.00
C688   C     0.49254   0.90951   0.79217   0.00000  Uiso   1.00
C689   C     0.54857   0.54986   0.76588   0.00000  Uiso   1.00
C690   C     0.49335   0.95599   0.78989   0.00000  Uiso   1.00
C691   C     0.50451   0.52544   0.74485   0.00000  Uiso   1.00
C692   C     0.50182   0.97717   0.74704   0.00000  Uiso   1.00
C693   C     0.52490   0.78565   0.55778   0.00000  Uiso   1.00
C694   C     0.47457   0.71441   0.94206   0.00000  Uiso   1.00
C695   C     0.52948   0.78112   0.60851   0.00000  Uiso   1.00
C696   C     0.47032   0.71888   0.89133   0.00000  Uiso   1.00
N697   N     0.50000   0.75001   0.62934   0.00000  Uiso   1.00
N698   N     0.50000   0.74999   0.87065   0.00000  Uiso   1.00
C699   C     0.46666   0.72267   0.59981   0.00000  Uiso   1.00
C700   C     0.53396   0.77666   0.90037   0.00000  Uiso   1.00
C701   C     0.46444   0.72449   0.54962   0.00000  Uiso   1.00
C702   C     0.53556   0.77514   0.95052   0.00000  Uiso   1.00
H703   H     0.43382   0.70553   0.52889   0.00000  Uiso   1.00
H704   H     0.56642   0.79365   0.97149   0.00000  Uiso   1.00
C705   C     0.49798   0.75223   0.52712   0.00000  Uiso   1.00
C706   C     0.50141   0.74782   0.97279   0.00000  Uiso   1.00
N707   N     0.65551   0.72205   0.68795   0.00000  Uiso   1.00
O708   O     0.66089   0.73912   0.64630   0.00000  Uiso   1.00
O709   O     0.63266   0.68320   0.68966   0.00000  Uiso   1.00
N710   N     0.34401   0.77589   0.81146   0.00000  Uiso   1.00
O711   O     0.34331   0.75712   0.85307   0.00000  Uiso   1.00
O712   O     0.35511   0.81812   0.80987   0.00000  Uiso   1.00
N713   N     0.59251   0.62173   0.78946   0.00000  Uiso   1.00
O714   O     0.59079   0.64713   0.82679   0.00000  Uiso   1.00
O715   O     0.63564   0.61825   0.77245   0.00000  Uiso   1.00
N716   N     0.48478   0.88874   0.83667   0.00000  Uiso   1.00
O717   O     0.44247   0.86608   0.83965   0.00000  Uiso   1.00
O718   O     0.51483   0.89952   0.87608   0.00000  Uiso   1.00
Br719  Br    0.60864   0.51971   0.79289   0.00000  Uiso   1.00
Br720  Br    0.47949   0.99074   0.84442   0.00000  Uiso   1.00
Br721  Br    0.53868   0.84486   0.53503   0.00000  Uiso   1.00
Br722  Br    0.46112   0.65509   0.96475   0.00000  Uiso   1.00
Br723  Br    0.57894   0.81988   0.64687   0.00000  Uiso   1.00
Br724  Br    0.42238   0.67888   0.85272   0.00000  Uiso   1.00
Br725  Br    0.42151   0.67958   0.62380   0.00000  Uiso   1.00
Br726  Br    0.58238   0.81693   0.87680   0.00000  Uiso   1.00
O727   O     0.83334   0.68572   0.79071   0.00000  Uiso   1.00
O728   O     0.83333   0.81427   0.70928   0.00000  Uiso   1.00
O729   O     0.83334   0.68573   0.70928   0.00000  Uiso   1.00
O730   O     0.83333   0.81427   0.79072   0.00000  Uiso   1.00
C731   C     0.83434   0.66531   0.74998   0.00000  Uiso   1.00
C732   C     0.83263   0.83527   0.75017   0.00000  Uiso   1.00
O733   O     0.75828   0.74999   0.78132   0.00000  Uiso   1.00
O734   O     0.90839   0.75000   0.71868   0.00000  Uiso   1.00
O735   O     0.75828   0.75000   0.69988   0.00000  Uiso   1.00
O736   O     0.90839   0.75000   0.80011   0.00000  Uiso   1.00
C737   C     0.73477   0.74951   0.73776   0.00000  Uiso   1.00
C738   C     0.93174   0.74942   0.76219   0.00000  Uiso   1.00
Cu739  Cu    0.83333   0.74999   0.79821   0.00000  Uiso   1.00
Cu740  Cu    0.83333   0.75000   0.70178   0.00000  Uiso   1.00
C741   C     0.67971   0.74359   0.73162   0.00000  Uiso   1.00
C742   C     0.98670   0.75354   0.76845   0.00000  Uiso   1.00
C743   C     0.79425   0.54701   0.72502   0.00000  Uiso   1.00
C744   C     0.84035   0.95250   0.70598   0.00000  Uiso   1.00
H745   H     0.76033   0.52818   0.70896   0.00000  Uiso   1.00
H746   H     0.84614   0.96892   0.67272   0.00000  Uiso   1.00
C747   C     0.79355   0.59284   0.72721   0.00000  Uiso   1.00
C748   C     0.83831   0.90657   0.70748   0.00000  Uiso   1.00
H749   H     0.75935   0.60919   0.71211   0.00000  Uiso   1.00
H750   H     0.84240   0.88856   0.67485   0.00000  Uiso   1.00
C751   C     0.83628   0.61743   0.74957   0.00000  Uiso   1.00
C752   C     0.83190   0.88428   0.75036   0.00000  Uiso   1.00
C753   C     0.88114   0.59628   0.76852   0.00000  Uiso   1.00
C754   C     0.82588   0.90951   0.79217   0.00000  Uiso   1.00
C755   C     0.88190   0.54986   0.76588   0.00000  Uiso   1.00
C756   C     0.82668   0.95599   0.78989   0.00000  Uiso   1.00
C757   C     0.83784   0.52544   0.74485   0.00000  Uiso   1.00
C758   C     0.83515   0.97717   0.74704   0.00000  Uiso   1.00
C759   C     0.85824   0.78565   0.55778   0.00000  Uiso   1.00
C760   C     0.80790   0.71441   0.94206   0.00000  Uiso   1.00
C761   C     0.86281   0.78112   0.60851   0.00000  Uiso   1.00
C762   C     0.80365   0.71888   0.89133   0.00000  Uiso   1.00
N763   N     0.83333   0.75001   0.62934   0.00000  Uiso   1.00
N764   N     0.83333   0.74999   0.87065   0.00000  Uiso   1.00
C765   C     0.80000   0.72267   0.59981   0.00000  Uiso   1.00
C766   C     0.86729   0.77666   0.90037   0.00000  Uiso   1.00
C767   C     0.79777   0.72449   0.54962   0.00000  Uiso   1.00
C768   C     0.86889   0.77514   0.95052   0.00000  Uiso   1.00
H769   H     0.76715   0.70553   0.52889   0.00000  Uiso   1.00
H770   H     0.89975   0.79365   0.97149   0.00000  Uiso   1.00
C771   C     0.83132   0.75223   0.52712   0.00000  Uiso   1.00
C772   C     0.83474   0.74782   0.97279   0.00000  Uiso   1.00
N773   N     0.98884   0.72205   0.68795   0.00000  Uiso   1.00
O774   O     0.99422   0.73912   0.64630   0.00000  Uiso   1.00
O775   O     0.96599   0.68320   0.68966   0.00000  Uiso   1.00
N776   N     0.67734   0.77589   0.81146   0.00000  Uiso   1.00
O777   O     0.67664   0.75712   0.85307   0.00000  Uiso   1.00
O778   O     0.68844   0.81812   0.80987   0.00000  Uiso   1.00
N779   N     0.92584   0.62173   0.78946   0.00000  Uiso   1.00
O780   O     0.92413   0.64713   0.82679   0.00000  Uiso   1.00
O781   O     0.96897   0.61825   0.77245   0.00000  Uiso   1.00
N782   N     0.81811   0.88874   0.83667   0.00000  Uiso   1.00
O783   O     0.77580   0.86608   0.83965   0.00000  Uiso   1.00
O784   O     0.84816   0.89952   0.87608   0.00000  Uiso   1.00
Br785  Br    0.94197   0.51971   0.79289   0.00000  Uiso   1.00
Br786  Br    0.81283   0.99074   0.84442   0.00000  Uiso   1.00
Br787  Br    0.87201   0.84486   0.53503   0.00000  Uiso   1.00
Br788  Br    0.79445   0.65509   0.96475   0.00000  Uiso   1.00
Br789  Br    0.91227   0.81988   0.64687   0.00000  Uiso   1.00
Br790  Br    0.75571   0.67888   0.85272   0.00000  Uiso   1.00
Br791  Br    0.75484   0.67958   0.62380   0.00000  Uiso   1.00
Br792  Br    0.91571   0.81693   0.87680   0.00000  Uiso   1.00
loop_
_geom_bond_atom_site_label_1
_geom_bond_atom_site_label_2
_geom_bond_distance
_geom_bond_site_symmetry_2
_ccdc_geom_bond_type
O1     C5      1.298   .     A
O1     Cu13    1.952   .     S
O2     C6      1.309   .     A
O2     Cu14    1.952   .     S
O3     Cu14    1.954   .     S
O3     C5      1.297   .     A
O4     C6      1.302   .     A
O4     Cu13    1.954   .     S
C5     C25     1.449   .     S
C6     C26     1.481   .     S
O7     Cu13    1.975   .     S
O7     C11     1.292   .     A
O8     C12     1.290   .     A
O8     Cu14    1.975   .     S
O9     Cu14    1.976   .     S
O9     C11     1.300   .     A
O10    C12     1.299   .     A
O10    Cu13    1.976   .     S
C11    C15     1.445   .     S
C12    C16     1.439   .     S
Cu13   Cu14    2.701   .     S
Cu13   N38     2.029   .     S
Cu14   N37     2.029   .     S
C15    C148    1.359   1_455 S
C15    N179    1.440   1_455 S
C16    C81     1.359   .     S
C16    N116    1.435   .     S
C17    C31     1.397   .     A
C17    H19     1.084   .     S
C17    C21     1.386   .     A
C18    C32     1.393   .     A
C18    H20     1.084   .     S
C18    C22     1.387   .     A
C21    H23     1.084   .     S
C21    C25     1.397   .     A
C22    H24     1.082   .     S
C22    C26     1.407   .     A
C25    C27     1.411   .     A
C26    C28     1.425   .     A
C27    N53     1.436   .     S
C27    C29     1.405   .     A
C28    C30     1.405   .     A
C28    N56     1.434   .     S
C29    C31     1.408   .     A
C29    Br59    1.929   .     S
C30    C32     1.403   .     A
C30    Br60    1.933   .     S
C31    C230    1.459   1_545 S
C32    C229    1.459   .     S
C33    C45     1.424   .     A
C33    C35     1.418   .     A
C33    Br61    1.938   .     S
C34    C46     1.424   .     A
C34    C36     1.418   .     A
C34    Br62    1.939   .     S
C35    N37     1.378   .     A
C35    Br63    1.927   .     S
C36    Br64    1.929   .     S
C36    N38     1.379   .     A
N37    C39     1.370   .     A
N38    C40     1.370   .     A
C39    Br65    1.914   .     S
C39    C41     1.401   .     A
C40    Br66    1.913   .     S
C40    C42     1.401   .     A
C41    H43     1.073   .     S
C41    C45     1.407   .     A
C42    H44     1.073   .     S
C42    C46     1.407   .     A
C45    C442    1.542   1_554 S
C46    C441    1.542   .     S
N47    O49     1.301   .     A
N47    O48     1.301   .     A
N47    C81     1.440   .     S
N50    O52     1.299   .     A
N50    O51     1.301   .     A
N50    C148    1.435   1_455 S
N53    O54     1.301   .     A
N53    O55     1.301   .     A
N56    O58     1.301   .     A
N56    O57     1.299   .     A
O67    C71     1.298   .     A
O67    Cu79    1.952   .     S
O68    C72     1.309   .     A
O68    Cu80    1.952   .     S
O69    Cu80    1.954   .     S
O69    C71     1.297   .     A
O70    C72     1.302   .     A
O70    Cu79    1.954   .     S
C71    C91     1.449   .     S
C72    C92     1.481   .     S
O73    Cu79    1.975   .     S
O73    C77     1.292   .     A
O74    C78     1.290   .     A
O74    Cu80    1.975   .     S
O75    Cu80    1.976   .     S
O75    C77     1.300   .     A
O76    C78     1.299   .     A
O76    Cu79    1.976   .     S
C77    C81     1.445   .     S
C78    C82     1.439   .     S
Cu79   Cu80    2.701   .     S
Cu79   N104    2.029   .     S
Cu80   N103    2.029   .     S
C82    C147    1.359   .     S
C82    N182    1.435   .     S
C83    C97     1.397   .     A
C83    H85     1.084   .     S
C83    C87     1.386   .     A
C84    C98     1.393   .     A
C84    H86     1.084   .     S
C84    C88     1.387   .     A
C87    H89     1.084   .     S
C87    C91     1.397   .     A
C88    H90     1.082   .     S
C88    C92     1.407   .     A
C91    C93     1.411   .     A
C92    C94     1.425   .     A
C93    N119    1.436   .     S
C93    C95     1.405   .     A
C94    C96     1.405   .     A
C94    N122    1.434   .     S
C95    C97     1.408   .     A
C95    Br125   1.929   .     S
C96    C98     1.403   .     A
C96    Br126   1.933   .     S
C97    C296    1.459   1_545 S
C98    C295    1.459   .     S
C99    C111    1.424   .     A
C99    C101    1.418   .     A
C99    Br127   1.938   .     S
C100   C112    1.424   .     A
C100   C102    1.418   .     A
C100   Br128   1.939   .     S
C101   N103    1.378   .     A
C101   Br129   1.927   .     S
C102   Br130   1.929   .     S
C102   N104    1.379   .     A
N103   C105    1.370   .     A
N104   C106    1.370   .     A
C105   Br131   1.914   .     S
C105   C107    1.401   .     A
C106   Br132   1.913   .     S
C106   C108    1.401   .     A
C107   H109    1.073   .     S
C107   C111    1.407   .     A
C108   H110    1.073   .     S
C108   C112    1.407   .     A
C111   C508    1.542   1_554 S
C112   C507    1.542   .     S
N113   O115    1.301   .     A
N113   O114    1.301   .     A
N113   C147    1.440   .     S
N116   O118    1.299   .     A
N116   O117    1.301   .     A
N119   O120    1.301   .     A
N119   O121    1.301   .     A
N122   O124    1.301   .     A
N122   O123    1.299   .     A
O133   C137    1.298   .     A
O133   Cu145   1.952   .     S
O134   C138    1.309   .     A
O134   Cu146   1.952   .     S
O135   Cu146   1.954   .     S
O135   C137    1.297   .     A
O136   C138    1.302   .     A
O136   Cu145   1.954   .     S
C137   C157    1.449   .     S
C138   C158    1.481   .     S
O139   Cu145   1.975   .     S
O139   C143    1.292   .     A
O140   C144    1.290   .     A
O140   Cu146   1.975   .     S
O141   Cu146   1.976   .     S
O141   C143    1.300   .     A
O142   C144    1.299   .     A
O142   Cu145   1.976   .     S
C143   C147    1.445   .     S
C144   C148    1.439   .     S
Cu145  Cu146   2.701   .     S
Cu145  N170    2.029   .     S
Cu146  N169    2.029   .     S
C148   C15     1.359   1_655 S
C148   N50     1.435   1_655 S
C149   C163    1.397   .     A
C149   H151    1.084   .     S
C149   C153    1.386   .     A
C150   C164    1.393   .     A
C150   H152    1.084   .     S
C150   C154    1.387   .     A
C153   H155    1.084   .     S
C153   C157    1.397   .     A
C154   H156    1.082   .     S
C154   C158    1.407   .     A
C157   C159    1.411   .     A
C158   C160    1.425   .     A
C159   N185    1.436   .     S
C159   C161    1.405   .     A
C160   C162    1.405   .     A
C160   N188    1.434   .     S
C161   C163    1.408   .     A
C161   Br191   1.929   .     S
C162   C164    1.403   .     A
C162   Br192   1.933   .     S
C163   C362    1.459   1_545 S
C164   C361    1.459   .     S
C165   C177    1.424   .     A
C165   C167    1.418   .     A
C165   Br193   1.938   .     S
C166   C178    1.424   .     A
C166   C168    1.418   .     A
C166   Br194   1.939   .     S
C167   N169    1.378   .     A
C167   Br195   1.927   .     S
C168   Br196   1.929   .     S
C168   N170    1.379   .     A
N169   C171    1.370   .     A
N170   C172    1.370   .     A
C171   Br197   1.914   .     S
C171   C173    1.401   .     A
C172   Br198   1.913   .     S
C172   C174    1.401   .     A
C173   H175    1.073   .     S
C173   C177    1.407   .     A
C174   H176    1.073   .     S
C174   C178    1.407   .     A
C177   C574    1.542   1_554 S
C178   C573    1.542   .     S
N179   O181    1.301   .     A
N179   O180    1.301   .     A
N179   C15     1.440   1_655 S
N182   O184    1.299   .     A
N182   O183    1.301   .     A
N185   O186    1.301   .     A
N185   O187    1.301   .     A
N188   O190    1.301   .     A
N188   O189    1.299   .     A
O199   C203    1.298   .     A
O199   Cu211   1.952   .     S
O200   C204    1.309   .     A
O200   Cu212   1.952   .     S
O201   Cu212   1.954   .     S
O201   C203    1.297   .     A
O202   C204    1.302   .     A
O202   Cu211   1.954   .     S
C203   C223    1.449   .     S
C204   C224    1.481   .     S
O205   Cu211   1.975   .     S
O205   C209    1.292   .     A
O206   C210    1.290   .     A
O206   Cu212   1.975   .     S
O207   Cu212   1.976   .     S
O207   C209    1.300   .     A
O208   C210    1.299   .     A
O208   Cu211   1.976   .     S
C209   C213    1.445   .     S
C210   C214    1.439   .     S
Cu211  Cu212   2.701   .     S
Cu211  N236    2.029   .     S
Cu212  N235    2.029   .     S
C213   C346    1.359   1_455 S
C213   N377    1.440   1_455 S
C214   C279    1.359   .     S
C214   N314    1.435   .     S
C215   C229    1.397   .     A
C215   H217    1.084   .     S
C215   C219    1.386   .     A
C216   C230    1.393   .     A
C216   H218    1.084   .     S
C216   C220    1.387   .     A
C219   H221    1.084   .     S
C219   C223    1.397   .     A
C220   H222    1.082   .     S
C220   C224    1.407   .     A
C223   C225    1.411   .     A
C224   C226    1.425   .     A
C225   N251    1.436   .     S
C225   C227    1.405   .     A
C226   C228    1.405   .     A
C226   N254    1.434   .     S
C227   C229    1.408   .     A
C227   Br257   1.929   .     S
C228   C230    1.403   .     A
C228   Br258   1.933   .     S
C230   C31     1.459   1_565 S
C231   C243    1.424   .     A
C231   C233    1.418   .     A
C231   Br259   1.938   .     S
C232   C244    1.424   .     A
C232   C234    1.418   .     A
C232   Br260   1.939   .     S
C233   N235    1.378   .     A
C233   Br261   1.927   .     S
C234   Br262   1.929   .     S
C234   N236    1.379   .     A
N235   C237    1.370   .     A
N236   C238    1.370   .     A
C237   Br263   1.914   .     S
C237   C239    1.401   .     A
C238   Br264   1.913   .     S
C238   C240    1.401   .     A
C239   H241    1.073   .     S
C239   C243    1.407   .     A
C240   H242    1.073   .     S
C240   C244    1.407   .     A
C243   C640    1.542   1_554 S
C244   C639    1.542   .     S
N245   O247    1.301   .     A
N245   O246    1.301   .     A
N245   C279    1.440   .     S
N248   O250    1.299   .     A
N248   O249    1.301   .     A
N248   C346    1.435   1_455 S
N251   O252    1.301   .     A
N251   O253    1.301   .     A
N254   O256    1.301   .     A
N254   O255    1.299   .     A
O265   C269    1.298   .     A
O265   Cu277   1.952   .     S
O266   C270    1.309   .     A
O266   Cu278   1.952   .     S
O267   Cu278   1.954   .     S
O267   C269    1.297   .     A
O268   C270    1.302   .     A
O268   Cu277   1.954   .     S
C269   C289    1.449   .     S
C270   C290    1.481   .     S
O271   Cu277   1.975   .     S
O271   C275    1.292   .     A
O272   C276    1.290   .     A
O272   Cu278   1.975   .     S
O273   Cu278   1.976   .     S
O273   C275    1.300   .     A
O274   C276    1.299   .     A
O274   Cu277   1.976   .     S
C275   C279    1.445   .     S
C276   C280    1.439   .     S
Cu277  Cu278   2.701   .     S
Cu277  N302    2.029   .     S
Cu278  N301    2.029   .     S
C280   C345    1.359   .     S
C280   N380    1.435   .     S
C281   C295    1.397   .     A
C281   H283    1.084   .     S
C281   C285    1.386   .     A
C282   C296    1.393   .     A
C282   H284    1.084   .     S
C282   C286    1.387   .     A
C285   H287    1.084   .     S
C285   C289    1.397   .     A
C286   H288    1.082   .     S
C286   C290    1.407   .     A
C289   C291    1.411   .     A
C290   C292    1.425   .     A
C291   N317    1.436   .     S
C291   C293    1.405   .     A
C292   C294    1.405   .     A
C292   N320    1.434   .     S
C293   C295    1.408   .     A
C293   Br323   1.929   .     S
C294   C296    1.403   .     A
C294   Br324   1.933   .     S
C296   C97     1.459   1_565 S
C297   C309    1.424   .     A
C297   C299    1.418   .     A
C297   Br325   1.938   .     S
C298   C310    1.424   .     A
C298   C300    1.418   .     A
C298   Br326   1.939   .     S
C299   N301    1.378   .     A
C299   Br327   1.927   .     S
C300   Br328   1.929   .     S
C300   N302    1.379   .     A
N301   C303    1.370   .     A
N302   C304    1.370   .     A
C303   Br329   1.914   .     S
C303   C305    1.401   .     A
C304   Br330   1.913   .     S
C304   C306    1.401   .     A
C305   H307    1.073   .     S
C305   C309    1.407   .     A
C306   H308    1.073   .     S
C306   C310    1.407   .     A
C309   C706    1.542   1_554 S
C310   C705    1.542   .     S
N311   O313    1.301   .     A
N311   O312    1.301   .     A
N311   C345    1.440   .     S
N314   O316    1.299   .     A
N314   O315    1.301   .     A
N317   O318    1.301   .     A
N317   O319    1.301   .     A
N320   O322    1.301   .     A
N320   O321    1.299   .     A
O331   C335    1.298   .     A
O331   Cu343   1.952   .     S
O332   C336    1.309   .     A
O332   Cu344   1.952   .     S
O333   Cu344   1.954   .     S
O333   C335    1.297   .     A
O334   C336    1.302   .     A
O334   Cu343   1.954   .     S
C335   C355    1.449   .     S
C336   C356    1.481   .     S
O337   Cu343   1.975   .     S
O337   C341    1.292   .     A
O338   C342    1.290   .     A
O338   Cu344   1.975   .     S
O339   Cu344   1.976   .     S
O339   C341    1.300   .     A
O340   C342    1.299   .     A
O340   Cu343   1.976   .     S
C341   C345    1.445   .     S
C342   C346    1.439   .     S
Cu343  Cu344   2.701   .     S
Cu343  N368    2.029   .     S
Cu344  N367    2.029   .     S
C346   C213    1.359   1_655 S
C346   N248    1.435   1_655 S
C347   C361    1.397   .     A
C347   H349    1.084   .     S
C347   C351    1.386   .     A
C348   C362    1.393   .     A
C348   H350    1.084   .     S
C348   C352    1.387   .     A
C351   H353    1.084   .     S
C351   C355    1.397   .     A
C352   H354    1.082   .     S
C352   C356    1.407   .     A
C355   C357    1.411   .     A
C356   C358    1.425   .     A
C357   N383    1.436   .     S
C357   C359    1.405   .     A
C358   C360    1.405   .     A
C358   N386    1.434   .     S
C359   C361    1.408   .     A
C359   Br389   1.929   .     S
C360   C362    1.403   .     A
C360   Br390   1.933   .     S
C362   C163    1.459   1_565 S
C363   C375    1.424   .     A
C363   C365    1.418   .     A
C363   Br391   1.938   .     S
C364   C376    1.424   .     A
C364   C366    1.418   .     A
C364   Br392   1.939   .     S
C365   N367    1.378   .     A
C365   Br393   1.927   .     S
C366   Br394   1.929   .     S
C366   N368    1.379   .     A
N367   C369    1.370   .     A
N368   C370    1.370   .     A
C369   Br395   1.914   .     S
C369   C371    1.401   .     A
C370   Br396   1.913   .     S
C370   C372    1.401   .     A
C371   H373    1.073   .     S
C371   C375    1.407   .     A
C372   H374    1.073   .     S
C372   C376    1.407   .     A
C375   C772    1.542   1_554 S
C376   C771    1.542   .     S
N377   O379    1.301   .     A
N377   O378    1.301   .     A
N377   C213    1.440   1_655 S
N380   O382    1.299   .     A
N380   O381    1.301   .     A
N383   O384    1.301   .     A
N383   O385    1.301   .     A
N386   O388    1.301   .     A
N386   O387    1.299   .     A
O397   C401    1.298   .     A
O397   Cu409   1.952   .     S
O398   C402    1.309   .     A
O398   Cu410   1.952   .     S
O399   Cu410   1.954   .     S
O399   C401    1.297   .     A
O400   C402    1.302   .     A
O400   Cu409   1.954   .     S
C401   C421    1.449   .     S
C402   C422    1.481   .     S
O403   Cu409   1.975   .     S
O403   C407    1.292   .     A
O404   C408    1.290   .     A
O404   Cu410   1.975   .     S
O405   Cu410   1.976   .     S
O405   C407    1.300   .     A
O406   C408    1.299   .     A
O406   Cu409   1.976   .     S
C407   C411    1.445   .     S
C408   C412    1.439   .     S
Cu409  Cu410   2.701   .     S
Cu409  N434    2.029   .     S
Cu410  N433    2.029   .     S
C411   C544    1.359   1_455 S
C411   N575    1.440   1_455 S
C412   C477    1.359   .     S
C412   N512    1.435   .     S
C413   C427    1.397   .     A
C413   H415    1.084   .     S
C413   C417    1.386   .     A
C414   C428    1.393   .     A
C414   H416    1.084   .     S
C414   C418    1.387   .     A
C417   H419    1.084   .     S
C417   C421    1.397   .     A
C418   H420    1.082   .     S
C418   C422    1.407   .     A
C421   C423    1.411   .     A
C422   C424    1.425   .     A
C423   N449    1.436   .     S
C423   C425    1.405   .     A
C424   C426    1.405   .     A
C424   N452    1.434   .     S
C425   C427    1.408   .     A
C425   Br455   1.929   .     S
C426   C428    1.403   .     A
C426   Br456   1.933   .     S
C427   C626    1.459   1_545 S
C428   C625    1.459   .     S
C429   C441    1.424   .     A
C429   C431    1.418   .     A
C429   Br457   1.938   .     S
C430   C442    1.424   .     A
C430   C432    1.418   .     A
C430   Br458   1.939   .     S
C431   N433    1.378   .     A
C431   Br459   1.927   .     S
C432   Br460   1.929   .     S
C432   N434    1.379   .     A
N433   C435    1.370   .     A
N434   C436    1.370   .     A
C435   Br461   1.914   .     S
C435   C437    1.401   .     A
C436   Br462   1.913   .     S
C436   C438    1.401   .     A
C437   H439    1.073   .     S
C437   C441    1.407   .     A
C438   H440    1.073   .     S
C438   C442    1.407   .     A
C442   C45     1.542   1_556 S
N443   O445    1.301   .     A
N443   O444    1.301   .     A
N443   C477    1.440   .     S
N446   O448    1.299   .     A
N446   O447    1.301   .     A
N446   C544    1.435   1_455 S
N449   O450    1.301   .     A
N449   O451    1.301   .     A
N452   O454    1.301   .     A
N452   O453    1.299   .     A
O463   C467    1.298   .     A
O463   Cu475   1.952   .     S
O464   C468    1.309   .     A
O464   Cu476   1.952   .     S
O465   Cu476   1.954   .     S
O465   C467    1.297   .     A
O466   C468    1.302   .     A
O466   Cu475   1.954   .     S
C467   C487    1.449   .     S
C468   C488    1.481   .     S
O469   Cu475   1.975   .     S
O469   C473    1.292   .     A
O470   C474    1.290   .     A
O470   Cu476   1.975   .     S
O471   Cu476   1.976   .     S
O471   C473    1.300   .     A
O472   C474    1.299   .     A
O472   Cu475   1.976   .     S
C473   C477    1.445   .     S
C474   C478    1.439   .     S
Cu475  Cu476   2.701   .     S
Cu475  N500    2.029   .     S
Cu476  N499    2.029   .     S
C478   C543    1.359   .     S
C478   N578    1.435   .     S
C479   C493    1.397   .     A
C479   H481    1.084   .     S
C479   C483    1.386   .     A
C480   C494    1.393   .     A
C480   H482    1.084   .     S
C480   C484    1.387   .     A
C483   H485    1.084   .     S
C483   C487    1.397   .     A
C484   H486    1.082   .     S
C484   C488    1.407   .     A
C487   C489    1.411   .     A
C488   C490    1.425   .     A
C489   N515    1.436   .     S
C489   C491    1.405   .     A
C490   C492    1.405   .     A
C490   N518    1.434   .     S
C491   C493    1.408   .     A
C491   Br521   1.929   .     S
C492   C494    1.403   .     A
C492   Br522   1.933   .     S
C493   C692    1.459   1_545 S
C494   C691    1.459   .     S
C495   C507    1.424   .     A
C495   C497    1.418   .     A
C495   Br523   1.938   .     S
C496   C508    1.424   .     A
C496   C498    1.418   .     A
C496   Br524   1.939   .     S
C497   N499    1.378   .     A
C497   Br525   1.927   .     S
C498   Br526   1.929   .     S
C498   N500    1.379   .     A
N499   C501    1.370   .     A
N500   C502    1.370   .     A
C501   Br527   1.914   .     S
C501   C503    1.401   .     A
C502   Br528   1.913   .     S
C502   C504    1.401   .     A
C503   H505    1.073   .     S
C503   C507    1.407   .     A
C504   H506    1.073   .     S
C504   C508    1.407   .     A
C508   C111    1.542   1_556 S
N509   O511    1.301   .     A
N509   O510    1.301   .     A
N509   C543    1.440   .     S
N512   O514    1.299   .     A
N512   O513    1.301   .     A
N515   O516    1.301   .     A
N515   O517    1.301   .     A
N518   O520    1.301   .     A
N518   O519    1.299   .     A
O529   C533    1.298   .     A
O529   Cu541   1.952   .     S
O530   C534    1.309   .     A
O530   Cu542   1.952   .     S
O531   Cu542   1.954   .     S
O531   C533    1.297   .     A
O532   C534    1.302   .     A
O532   Cu541   1.954   .     S
C533   C553    1.449   .     S
C534   C554    1.481   .     S
O535   Cu541   1.975   .     S
O535   C539    1.292   .     A
O536   C540    1.290   .     A
O536   Cu542   1.975   .     S
O537   Cu542   1.976   .     S
O537   C539    1.300   .     A
O538   C540    1.299   .     A
O538   Cu541   1.976   .     S
C539   C543    1.445   .     S
C540   C544    1.439   .     S
Cu541  Cu542   2.701   .     S
Cu541  N566    2.029   .     S
Cu542  N565    2.029   .     S
C544   C411    1.359   1_655 S
C544   N446    1.435   1_655 S
C545   C559    1.397   .     A
C545   H547    1.084   .     S
C545   C549    1.386   .     A
C546   C560    1.393   .     A
C546   H548    1.084   .     S
C546   C550    1.387   .     A
C549   H551    1.084   .     S
C549   C553    1.397   .     A
C550   H552    1.082   .     S
C550   C554    1.407   .     A
C553   C555    1.411   .     A
C554   C556    1.425   .     A
C555   N581    1.436   .     S
C555   C557    1.405   .     A
C556   C558    1.405   .     A
C556   N584    1.434   .     S
C557   C559    1.408   .     A
C557   Br587   1.929   .     S
C558   C560    1.403   .     A
C558   Br588   1.933   .     S
C559   C758    1.459   1_545 S
C560   C757    1.459   .     S
C561   C573    1.424   .     A
C561   C563    1.418   .     A
C561   Br589   1.938   .     S
C562   C574    1.424   .     A
C562   C564    1.418   .     A
C562   Br590   1.939   .     S
C563   N565    1.378   .     A
C563   Br591   1.927   .     S
C564   Br592   1.929   .     S
C564   N566    1.379   .     A
N565   C567    1.370   .     A
N566   C568    1.370   .     A
C567   Br593   1.914   .     S
C567   C569    1.401   .     A
C568   Br594   1.913   .     S
C568   C570    1.401   .     A
C569   H571    1.073   .     S
C569   C573    1.407   .     A
C570   H572    1.073   .     S
C570   C574    1.407   .     A
C574   C177    1.542   1_556 S
N575   O577    1.301   .     A
N575   O576    1.301   .     A
N575   C411    1.440   1_655 S
N578   O580    1.299   .     A
N578   O579    1.301   .     A
N581   O582    1.301   .     A
N581   O583    1.301   .     A
N584   O586    1.301   .     A
N584   O585    1.299   .     A
O595   C599    1.298   .     A
O595   Cu607   1.952   .     S
O596   C600    1.309   .     A
O596   Cu608   1.952   .     S
O597   Cu608   1.954   .     S
O597   C599    1.297   .     A
O598   C600    1.302   .     A
O598   Cu607   1.954   .     S
C599   C619    1.449   .     S
C600   C620    1.481   .     S
O601   Cu607   1.975   .     S
O601   C605    1.292   .     A
O602   C606    1.290   .     A
O602   Cu608   1.975   .     S
O603   Cu608   1.976   .     S
O603   C605    1.300   .     A
O604   C606    1.299   .     A
O604   Cu607   1.976   .     S
C605   C609    1.445   .     S
C606   C610    1.439   .     S
Cu607  Cu608   2.701   .     S
Cu607  N632    2.029   .     S
Cu608  N631    2.029   .     S
C609   C742    1.359   1_455 S
C609   N773    1.440   1_455 S
C610   C675    1.359   .     S
C610   N710    1.435   .     S
C611   C625    1.397   .     A
C611   H613    1.084   .     S
C611   C615    1.386   .     A
C612   C626    1.393   .     A
C612   H614    1.084   .     S
C612   C616    1.387   .     A
C615   H617    1.084   .     S
C615   C619    1.397   .     A
C616   H618    1.082   .     S
C616   C620    1.407   .     A
C619   C621    1.411   .     A
C620   C622    1.425   .     A
C621   N647    1.436   .     S
C621   C623    1.405   .     A
C622   C624    1.405   .     A
C622   N650    1.434   .     S
C623   C625    1.408   .     A
C623   Br653   1.929   .     S
C624   C626    1.403   .     A
C624   Br654   1.933   .     S
C626   C427    1.459   1_565 S
C627   C639    1.424   .     A
C627   C629    1.418   .     A
C627   Br655   1.938   .     S
C628   C640    1.424   .     A
C628   C630    1.418   .     A
C628   Br656   1.939   .     S
C629   N631    1.378   .     A
C629   Br657   1.927   .     S
C630   Br658   1.929   .     S
C630   N632    1.379   .     A
N631   C633    1.370   .     A
N632   C634    1.370   .     A
C633   Br659   1.914   .     S
C633   C635    1.401   .     A
C634   Br660   1.913   .     S
C634   C636    1.401   .     A
C635   H637    1.073   .     S
C635   C639    1.407   .     A
C636   H638    1.073   .     S
C636   C640    1.407   .     A
C640   C243    1.542   1_556 S
N641   O643    1.301   .     A
N641   O642    1.301   .     A
N641   C675    1.440   .     S
N644   O646    1.299   .     A
N644   O645    1.301   .     A
N644   C742    1.435   1_455 S
N647   O648    1.301   .     A
N647   O649    1.301   .     A
N650   O652    1.301   .     A
N650   O651    1.299   .     A
O661   C665    1.298   .     A
O661   Cu673   1.952   .     S
O662   C666    1.309   .     A
O662   Cu674   1.952   .     S
O663   Cu674   1.954   .     S
O663   C665    1.297   .     A
O664   C666    1.302   .     A
O664   Cu673   1.954   .     S
C665   C685    1.449   .     S
C666   C686    1.481   .     S
O667   Cu673   1.975   .     S
O667   C671    1.292   .     A
O668   C672    1.290   .     A
O668   Cu674   1.975   .     S
O669   Cu674   1.976   .     S
O669   C671    1.300   .     A
O670   C672    1.299   .     A
O670   Cu673   1.976   .     S
C671   C675    1.445   .     S
C672   C676    1.439   .     S
Cu673  Cu674   2.701   .     S
Cu673  N698    2.029   .     S
Cu674  N697    2.029   .     S
C676   C741    1.359   .     S
C676   N776    1.435   .     S
C677   C691    1.397   .     A
C677   H679    1.084   .     S
C677   C681    1.386   .     A
C678   C692    1.393   .     A
C678   H680    1.084   .     S
C678   C682    1.387   .     A
C681   H683    1.084   .     S
C681   C685    1.397   .     A
C682   H684    1.082   .     S
C682   C686    1.407   .     A
C685   C687    1.411   .     A
C686   C688    1.425   .     A
C687   N713    1.436   .     S
C687   C689    1.405   .     A
C688   C690    1.405   .     A
C688   N716    1.434   .     S
C689   C691    1.408   .     A
C689   Br719   1.929   .     S
C690   C692    1.403   .     A
C690   Br720   1.933   .     S
C692   C493    1.459   1_565 S
C693   C705    1.424   .     A
C693   C695    1.418   .     A
C693   Br721   1.938   .     S
C694   C706    1.424   .     A
C694   C696    1.418   .     A
C694   Br722   1.939   .     S
C695   N697    1.378   .     A
C695   Br723   1.927   .     S
C696   Br724   1.929   .     S
C696   N698    1.379   .     A
N697   C699    1.370   .     A
N698   C700    1.370   .     A
C699   Br725   1.914   .     S
C699   C701    1.401   .     A
C700   Br726   1.913   .     S
C700   C702    1.401   .     A
C701   H703    1.073   .     S
C701   C705    1.407   .     A
C702   H704    1.073   .     S
C702   C706    1.407   .     A
C706   C309    1.542   1_556 S
N707   O709    1.301   .     A
N707   O708    1.301   .     A
N707   C741    1.440   .     S
N710   O712    1.299   .     A
N710   O711    1.301   .     A
N713   O714    1.301   .     A
N713   O715    1.301   .     A
N716   O718    1.301   .     A
N716   O717    1.299   .     A
O727   C731    1.298   .     A
O727   Cu739   1.952   .     S
O728   C732    1.309   .     A
O728   Cu740   1.952   .     S
O729   Cu740   1.954   .     S
O729   C731    1.297   .     A
O730   C732    1.302   .     A
O730   Cu739   1.954   .     S
C731   C751    1.449   .     S
C732   C752    1.481   .     S
O733   Cu739   1.975   .     S
O733   C737    1.292   .     A
O734   C738    1.290   .     A
O734   Cu740   1.975   .     S
O735   Cu740   1.976   .     S
O735   C737    1.300   .     A
O736   C738    1.299   .     A
O736   Cu739   1.976   .     S
C737   C741    1.445   .     S
C738   C742    1.439   .     S
Cu739  Cu740   2.701   .     S
Cu739  N764    2.029   .     S
Cu740  N763    2.029   .     S
C742   C609    1.359   1_655 S
C742   N644    1.435   1_655 S
C743   C757    1.397   .     A
C743   H745    1.084   .     S
C743   C747    1.386   .     A
C744   C758    1.393   .     A
C744   H746    1.084   .     S
C744   C748    1.387   .     A
C747   H749    1.084   .     S
C747   C751    1.397   .     A
C748   H750    1.082   .     S
C748   C752    1.407   .     A
C751   C753    1.411   .     A
C752   C754    1.425   .     A
C753   N779    1.436   .     S
C753   C755    1.405   .     A
C754   C756    1.405   .     A
C754   N782    1.434   .     S
C755   C757    1.408   .     A
C755   Br785   1.929   .     S
C756   C758    1.403   .     A
C756   Br786   1.933   .     S
C758   C559    1.459   1_565 S
C759   C771    1.424   .     A
C759   C761    1.418   .     A
C759   Br787   1.938   .     S
C760   C772    1.424   .     A
C760   C762    1.418   .     A
C760   Br788   1.939   .     S
C761   N763    1.378   .     A
C761   Br789   1.927   .     S
C762   Br790   1.929   .     S
C762   N764    1.379   .     A
N763   C765    1.370   .     A
N764   C766    1.370   .     A
C765   Br791   1.914   .     S
C765   C767    1.401   .     A
C766   Br792   1.913   .     S
C766   C768    1.401   .     A
C767   H769    1.073   .     S
C767   C771    1.407   .     A
C768   H770    1.073   .     S
C768   C772    1.407   .     A
C772   C375    1.542   1_556 S
N773   O775    1.301   .     A
N773   O774    1.301   .     A
N773   C609    1.440   1_655 S
N776   O778    1.299   .     A
N776   O777    1.301   .     A
N779   O780    1.301   .     A
N779   O781    1.301   .     A
N782   O784    1.301   .     A
N782   O783    1.299   .     A
