data_str_m2_o1_o5_pcu_sym.30
_audit_creation_date              2020-01-03
_audit_creation_method            'Materials Studio'
_symmetry_space_group_name_H-M    'P1'
_symmetry_Int_Tables_number       1
_symmetry_cell_setting            triclinic
loop_
_symmetry_equiv_pos_as_xyz
  x,y,z
_cell_length_a                    32.4775
_cell_length_b                    28.9720
_cell_length_c                    27.1391
_cell_angle_alpha                 89.6693
_cell_angle_beta                  92.7844
_cell_angle_gamma                 88.9656
loop_
_atom_site_label
_atom_site_type_symbol
_atom_site_fract_x
_atom_site_fract_y
_atom_site_fract_z
_atom_site_U_iso_or_equiv
_atom_site_adp_type
_atom_site_occupancy
C1     C     0.08768   0.16716   0.17103   0.00000  Uiso   1.00
C2     C     0.01968   0.20933   0.16574   0.00000  Uiso   1.00
C3     C     0.29059   0.16515   0.15815   0.00000  Uiso   1.00
C4     C     0.04275   0.16819   0.17517   0.00000  Uiso   1.00
C5     C     0.14548   0.02537   0.13022   0.00000  Uiso   1.00
C6     C     0.18766   0.30802   0.20330   0.00000  Uiso   1.00
C7     C     0.18720   0.02400   0.20369   0.00000  Uiso   1.00
C8     C     0.14642   0.30939   0.12941   0.00000  Uiso   1.00
C9     C     0.11950   0.05012   0.09206   0.00000  Uiso   1.00
C10    C     0.21331   0.28335   0.24183   0.00000  Uiso   1.00
C11    C     0.20743   0.04718   0.24654   0.00000  Uiso   1.00
C12    C     0.24566   0.16618   0.16230   0.00000  Uiso   1.00
C13    C     0.12739   0.28644   0.08565   0.00000  Uiso   1.00
C14    C     0.16653   0.16675   0.07368   0.00000  Uiso   1.00
C15    C     0.16680   0.16658   0.25965   0.00000  Uiso   1.00
C16    C     0.16661   0.16679   0.02189   0.00000  Uiso   1.00
C17    C     0.16670   0.16655   0.31144   0.00000  Uiso   1.00
C18    C     0.02212   0.12641   0.18111   0.00000  Uiso   1.00
C19    C     0.31122   0.20692   0.15218   0.00000  Uiso   1.00
C20    C     0.31366   0.12401   0.16756   0.00000  Uiso   1.00
Cu21   Cu    0.16667   0.21355   0.16667   0.00000  Uiso   1.00
Cu22   Cu    0.16667   0.11978   0.16667   0.00000  Uiso   1.00
H23    H     0.11274   0.07165   0.02127   0.00000  Uiso   1.00
H24    H     0.26839   0.25401   0.26185   0.00000  Uiso   1.00
H25    H     0.20676   0.06064   0.31934   0.00000  Uiso   1.00
H26    H     0.08078   0.24910   0.05600   0.00000  Uiso   1.00
I27    I     0.05002   0.07065   0.22390   0.00000  Uiso   1.00
I28    I     0.28335   0.26261   0.10925   0.00000  Uiso   1.00
I29    I     0.29143   0.05779   0.14576   0.00000  Uiso   1.00
I30    I     0.04196   0.27560   0.18740   0.00000  Uiso   1.00
N31    N     0.16667   0.28402   0.16667   0.00000  Uiso   1.00
N32    N     0.16667   0.04931   0.16667   0.00000  Uiso   1.00
O33    O     0.10655   0.20625   0.16666   0.00000  Uiso   1.00
O34    O     0.13367   0.05537   0.04458   0.00000  Uiso   1.00
O35    O     0.20045   0.27855   0.28312   0.00000  Uiso   1.00
O36    O     0.25354   0.26953   0.23231   0.00000  Uiso   1.00
O37    O     0.23956   0.06767   0.24237   0.00000  Uiso   1.00
O38    O     0.19011   0.04399   0.29257   0.00000  Uiso   1.00
O39    O     0.14374   0.28938   0.04611   0.00000  Uiso   1.00
O40    O     0.09048   0.26297   0.08865   0.00000  Uiso   1.00
O41    O     0.22679   0.12709   0.16667   0.00000  Uiso   1.00
O42    O     0.22679   0.20625   0.16667   0.00000  Uiso   1.00
O43    O     0.10655   0.12709   0.16666   0.00000  Uiso   1.00
O44    O     0.16667   0.20625   0.09613   0.00000  Uiso   1.00
O45    O     0.16667   0.12708   0.23720   0.00000  Uiso   1.00
O46    O     0.16667   0.20625   0.23720   0.00000  Uiso   1.00
O47    O     0.16667   0.12708   0.09613   0.00000  Uiso   1.00
O48    O     0.08458   0.06273   0.10101   0.00000  Uiso   1.00
C49    C     0.42101   0.16716   0.17103   0.00000  Uiso   1.00
C50    C     0.35301   0.20933   0.16574   0.00000  Uiso   1.00
C51    C     0.62392   0.16515   0.15815   0.00000  Uiso   1.00
C52    C     0.37608   0.16819   0.17517   0.00000  Uiso   1.00
C53    C     0.47882   0.02537   0.13022   0.00000  Uiso   1.00
C54    C     0.52100   0.30802   0.20330   0.00000  Uiso   1.00
C55    C     0.52053   0.02400   0.20369   0.00000  Uiso   1.00
C56    C     0.47975   0.30939   0.12941   0.00000  Uiso   1.00
C57    C     0.45284   0.05012   0.09206   0.00000  Uiso   1.00
C58    C     0.54664   0.28335   0.24183   0.00000  Uiso   1.00
C59    C     0.54076   0.04718   0.24654   0.00000  Uiso   1.00
C60    C     0.57899   0.16618   0.16230   0.00000  Uiso   1.00
C61    C     0.46072   0.28644   0.08565   0.00000  Uiso   1.00
C62    C     0.49986   0.16675   0.07368   0.00000  Uiso   1.00
C63    C     0.50013   0.16658   0.25965   0.00000  Uiso   1.00
C64    C     0.49995   0.16679   0.02189   0.00000  Uiso   1.00
C65    C     0.50004   0.16655   0.31144   0.00000  Uiso   1.00
C66    C     0.35545   0.12641   0.18111   0.00000  Uiso   1.00
C67    C     0.64456   0.20692   0.15218   0.00000  Uiso   1.00
C68    C     0.64699   0.12401   0.16756   0.00000  Uiso   1.00
Cu69   Cu    0.50000   0.21355   0.16667   0.00000  Uiso   1.00
Cu70   Cu    0.50000   0.11978   0.16667   0.00000  Uiso   1.00
H71    H     0.44608   0.07165   0.02127   0.00000  Uiso   1.00
H72    H     0.60173   0.25401   0.26185   0.00000  Uiso   1.00
H73    H     0.54009   0.06064   0.31934   0.00000  Uiso   1.00
H74    H     0.41411   0.24910   0.05600   0.00000  Uiso   1.00
I75    I     0.38335   0.07065   0.22390   0.00000  Uiso   1.00
I76    I     0.61669   0.26261   0.10925   0.00000  Uiso   1.00
I77    I     0.62476   0.05779   0.14576   0.00000  Uiso   1.00
I78    I     0.37529   0.27560   0.18740   0.00000  Uiso   1.00
N79    N     0.50000   0.28402   0.16667   0.00000  Uiso   1.00
N80    N     0.50000   0.04931   0.16667   0.00000  Uiso   1.00
O81    O     0.43988   0.20625   0.16666   0.00000  Uiso   1.00
O82    O     0.46701   0.05537   0.04458   0.00000  Uiso   1.00
O83    O     0.53378   0.27855   0.28312   0.00000  Uiso   1.00
O84    O     0.58687   0.26953   0.23231   0.00000  Uiso   1.00
O85    O     0.57290   0.06767   0.24237   0.00000  Uiso   1.00
O86    O     0.52344   0.04399   0.29257   0.00000  Uiso   1.00
O87    O     0.47707   0.28938   0.04611   0.00000  Uiso   1.00
O88    O     0.42382   0.26297   0.08865   0.00000  Uiso   1.00
O89    O     0.56012   0.12709   0.16667   0.00000  Uiso   1.00
O90    O     0.56012   0.20625   0.16667   0.00000  Uiso   1.00
O91    O     0.43988   0.12709   0.16666   0.00000  Uiso   1.00
O92    O     0.50000   0.20625   0.09613   0.00000  Uiso   1.00
O93    O     0.50000   0.12708   0.23720   0.00000  Uiso   1.00
O94    O     0.50000   0.20625   0.23720   0.00000  Uiso   1.00
O95    O     0.50000   0.12708   0.09613   0.00000  Uiso   1.00
O96    O     0.41791   0.06273   0.10101   0.00000  Uiso   1.00
C97    C     0.75435   0.16716   0.17103   0.00000  Uiso   1.00
C98    C     0.68635   0.20933   0.16574   0.00000  Uiso   1.00
C99    C     0.95726   0.16515   0.15815   0.00000  Uiso   1.00
C100   C     0.70941   0.16819   0.17517   0.00000  Uiso   1.00
C101   C     0.81215   0.02537   0.13022   0.00000  Uiso   1.00
C102   C     0.85433   0.30802   0.20330   0.00000  Uiso   1.00
C103   C     0.85387   0.02400   0.20369   0.00000  Uiso   1.00
C104   C     0.81309   0.30939   0.12941   0.00000  Uiso   1.00
C105   C     0.78617   0.05012   0.09206   0.00000  Uiso   1.00
C106   C     0.87997   0.28335   0.24183   0.00000  Uiso   1.00
C107   C     0.87409   0.04718   0.24654   0.00000  Uiso   1.00
C108   C     0.91232   0.16618   0.16230   0.00000  Uiso   1.00
C109   C     0.79406   0.28644   0.08565   0.00000  Uiso   1.00
C110   C     0.83319   0.16675   0.07368   0.00000  Uiso   1.00
C111   C     0.83346   0.16658   0.25965   0.00000  Uiso   1.00
C112   C     0.83328   0.16679   0.02189   0.00000  Uiso   1.00
C113   C     0.83337   0.16655   0.31144   0.00000  Uiso   1.00
C114   C     0.68879   0.12641   0.18111   0.00000  Uiso   1.00
C115   C     0.97789   0.20692   0.15218   0.00000  Uiso   1.00
C116   C     0.98033   0.12401   0.16756   0.00000  Uiso   1.00
Cu117  Cu    0.83333   0.21355   0.16667   0.00000  Uiso   1.00
Cu118  Cu    0.83333   0.11978   0.16667   0.00000  Uiso   1.00
H119   H     0.77941   0.07165   0.02127   0.00000  Uiso   1.00
H120   H     0.93506   0.25401   0.26185   0.00000  Uiso   1.00
H121   H     0.87343   0.06064   0.31934   0.00000  Uiso   1.00
H122   H     0.74744   0.24910   0.05600   0.00000  Uiso   1.00
I123   I     0.71669   0.07065   0.22390   0.00000  Uiso   1.00
I124   I     0.95002   0.26261   0.10925   0.00000  Uiso   1.00
I125   I     0.95809   0.05779   0.14576   0.00000  Uiso   1.00
I126   I     0.70862   0.27560   0.18740   0.00000  Uiso   1.00
N127   N     0.83333   0.28402   0.16667   0.00000  Uiso   1.00
N128   N     0.83333   0.04931   0.16667   0.00000  Uiso   1.00
O129   O     0.77321   0.20625   0.16666   0.00000  Uiso   1.00
O130   O     0.80034   0.05537   0.04458   0.00000  Uiso   1.00
O131   O     0.86711   0.27855   0.28312   0.00000  Uiso   1.00
O132   O     0.92020   0.26953   0.23231   0.00000  Uiso   1.00
O133   O     0.90623   0.06767   0.24237   0.00000  Uiso   1.00
O134   O     0.85678   0.04399   0.29257   0.00000  Uiso   1.00
O135   O     0.81040   0.28938   0.04611   0.00000  Uiso   1.00
O136   O     0.75715   0.26297   0.08865   0.00000  Uiso   1.00
O137   O     0.89345   0.12709   0.16667   0.00000  Uiso   1.00
O138   O     0.89345   0.20625   0.16667   0.00000  Uiso   1.00
O139   O     0.77321   0.12709   0.16666   0.00000  Uiso   1.00
O140   O     0.83333   0.20625   0.09613   0.00000  Uiso   1.00
O141   O     0.83333   0.12708   0.23720   0.00000  Uiso   1.00
O142   O     0.83333   0.20625   0.23720   0.00000  Uiso   1.00
O143   O     0.83333   0.12708   0.09613   0.00000  Uiso   1.00
O144   O     0.75124   0.06273   0.10101   0.00000  Uiso   1.00
C145   C     0.08768   0.50049   0.17103   0.00000  Uiso   1.00
C146   C     0.01968   0.54267   0.16574   0.00000  Uiso   1.00
C147   C     0.29059   0.49849   0.15815   0.00000  Uiso   1.00
C148   C     0.04275   0.50152   0.17517   0.00000  Uiso   1.00
C149   C     0.14548   0.35870   0.13022   0.00000  Uiso   1.00
C150   C     0.18766   0.64135   0.20330   0.00000  Uiso   1.00
C151   C     0.18720   0.35734   0.20369   0.00000  Uiso   1.00
C152   C     0.14642   0.64273   0.12941   0.00000  Uiso   1.00
C153   C     0.11950   0.38345   0.09206   0.00000  Uiso   1.00
C154   C     0.21331   0.61669   0.24183   0.00000  Uiso   1.00
C155   C     0.20743   0.38051   0.24654   0.00000  Uiso   1.00
C156   C     0.24566   0.49951   0.16230   0.00000  Uiso   1.00
C157   C     0.12739   0.61978   0.08565   0.00000  Uiso   1.00
C158   C     0.16653   0.50009   0.07368   0.00000  Uiso   1.00
C159   C     0.16680   0.49992   0.25965   0.00000  Uiso   1.00
C160   C     0.16661   0.50012   0.02189   0.00000  Uiso   1.00
C161   C     0.16670   0.49989   0.31144   0.00000  Uiso   1.00
C162   C     0.02212   0.45975   0.18111   0.00000  Uiso   1.00
C163   C     0.31122   0.54026   0.15218   0.00000  Uiso   1.00
C164   C     0.31366   0.45735   0.16756   0.00000  Uiso   1.00
Cu165  Cu    0.16667   0.54689   0.16667   0.00000  Uiso   1.00
Cu166  Cu    0.16667   0.45311   0.16667   0.00000  Uiso   1.00
H167   H     0.11274   0.40498   0.02127   0.00000  Uiso   1.00
H168   H     0.26839   0.58734   0.26185   0.00000  Uiso   1.00
H169   H     0.20676   0.39397   0.31934   0.00000  Uiso   1.00
H170   H     0.08078   0.58244   0.05600   0.00000  Uiso   1.00
I171   I     0.05002   0.40398   0.22390   0.00000  Uiso   1.00
I172   I     0.28335   0.59595   0.10925   0.00000  Uiso   1.00
I173   I     0.29143   0.39112   0.14576   0.00000  Uiso   1.00
I174   I     0.04196   0.60893   0.18740   0.00000  Uiso   1.00
N175   N     0.16667   0.61736   0.16667   0.00000  Uiso   1.00
N176   N     0.16667   0.38264   0.16667   0.00000  Uiso   1.00
O177   O     0.10655   0.53958   0.16666   0.00000  Uiso   1.00
O178   O     0.13367   0.38870   0.04458   0.00000  Uiso   1.00
O179   O     0.20045   0.61188   0.28312   0.00000  Uiso   1.00
O180   O     0.25354   0.60286   0.23231   0.00000  Uiso   1.00
O181   O     0.23956   0.40100   0.24237   0.00000  Uiso   1.00
O182   O     0.19011   0.37733   0.29257   0.00000  Uiso   1.00
O183   O     0.14374   0.62272   0.04611   0.00000  Uiso   1.00
O184   O     0.09048   0.59631   0.08865   0.00000  Uiso   1.00
O185   O     0.22679   0.46042   0.16667   0.00000  Uiso   1.00
O186   O     0.22679   0.53958   0.16667   0.00000  Uiso   1.00
O187   O     0.10655   0.46042   0.16666   0.00000  Uiso   1.00
O188   O     0.16667   0.53959   0.09613   0.00000  Uiso   1.00
O189   O     0.16667   0.46041   0.23720   0.00000  Uiso   1.00
O190   O     0.16667   0.53959   0.23720   0.00000  Uiso   1.00
O191   O     0.16667   0.46041   0.09613   0.00000  Uiso   1.00
O192   O     0.08458   0.39607   0.10101   0.00000  Uiso   1.00
C193   C     0.42101   0.50049   0.17103   0.00000  Uiso   1.00
C194   C     0.35301   0.54267   0.16574   0.00000  Uiso   1.00
C195   C     0.62392   0.49849   0.15815   0.00000  Uiso   1.00
C196   C     0.37608   0.50152   0.17517   0.00000  Uiso   1.00
C197   C     0.47882   0.35870   0.13022   0.00000  Uiso   1.00
C198   C     0.52100   0.64135   0.20330   0.00000  Uiso   1.00
C199   C     0.52053   0.35734   0.20369   0.00000  Uiso   1.00
C200   C     0.47975   0.64273   0.12941   0.00000  Uiso   1.00
C201   C     0.45284   0.38345   0.09206   0.00000  Uiso   1.00
C202   C     0.54664   0.61669   0.24183   0.00000  Uiso   1.00
C203   C     0.54076   0.38051   0.24654   0.00000  Uiso   1.00
C204   C     0.57899   0.49951   0.16230   0.00000  Uiso   1.00
C205   C     0.46072   0.61978   0.08565   0.00000  Uiso   1.00
C206   C     0.49986   0.50009   0.07368   0.00000  Uiso   1.00
C207   C     0.50013   0.49992   0.25965   0.00000  Uiso   1.00
C208   C     0.49995   0.50012   0.02189   0.00000  Uiso   1.00
C209   C     0.50004   0.49989   0.31144   0.00000  Uiso   1.00
C210   C     0.35545   0.45975   0.18111   0.00000  Uiso   1.00
C211   C     0.64456   0.54026   0.15218   0.00000  Uiso   1.00
C212   C     0.64699   0.45735   0.16756   0.00000  Uiso   1.00
Cu213  Cu    0.50000   0.54689   0.16667   0.00000  Uiso   1.00
Cu214  Cu    0.50000   0.45311   0.16667   0.00000  Uiso   1.00
H215   H     0.44608   0.40498   0.02127   0.00000  Uiso   1.00
H216   H     0.60173   0.58734   0.26185   0.00000  Uiso   1.00
H217   H     0.54009   0.39397   0.31934   0.00000  Uiso   1.00
H218   H     0.41411   0.58244   0.05600   0.00000  Uiso   1.00
I219   I     0.38335   0.40398   0.22390   0.00000  Uiso   1.00
I220   I     0.61669   0.59595   0.10925   0.00000  Uiso   1.00
I221   I     0.62476   0.39112   0.14576   0.00000  Uiso   1.00
I222   I     0.37529   0.60893   0.18740   0.00000  Uiso   1.00
N223   N     0.50000   0.61736   0.16667   0.00000  Uiso   1.00
N224   N     0.50000   0.38264   0.16667   0.00000  Uiso   1.00
O225   O     0.43988   0.53958   0.16666   0.00000  Uiso   1.00
O226   O     0.46701   0.38870   0.04458   0.00000  Uiso   1.00
O227   O     0.53378   0.61188   0.28312   0.00000  Uiso   1.00
O228   O     0.58687   0.60286   0.23231   0.00000  Uiso   1.00
O229   O     0.57290   0.40100   0.24237   0.00000  Uiso   1.00
O230   O     0.52344   0.37733   0.29257   0.00000  Uiso   1.00
O231   O     0.47707   0.62272   0.04611   0.00000  Uiso   1.00
O232   O     0.42382   0.59631   0.08865   0.00000  Uiso   1.00
O233   O     0.56012   0.46042   0.16667   0.00000  Uiso   1.00
O234   O     0.56012   0.53958   0.16667   0.00000  Uiso   1.00
O235   O     0.43988   0.46042   0.16666   0.00000  Uiso   1.00
O236   O     0.50000   0.53959   0.09613   0.00000  Uiso   1.00
O237   O     0.50000   0.46041   0.23720   0.00000  Uiso   1.00
O238   O     0.50000   0.53959   0.23720   0.00000  Uiso   1.00
O239   O     0.50000   0.46041   0.09613   0.00000  Uiso   1.00
O240   O     0.41791   0.39607   0.10101   0.00000  Uiso   1.00
C241   C     0.75435   0.50049   0.17103   0.00000  Uiso   1.00
C242   C     0.68635   0.54267   0.16574   0.00000  Uiso   1.00
C243   C     0.95726   0.49849   0.15815   0.00000  Uiso   1.00
C244   C     0.70941   0.50152   0.17517   0.00000  Uiso   1.00
C245   C     0.81215   0.35870   0.13022   0.00000  Uiso   1.00
C246   C     0.85433   0.64135   0.20330   0.00000  Uiso   1.00
C247   C     0.85387   0.35734   0.20369   0.00000  Uiso   1.00
C248   C     0.81309   0.64273   0.12941   0.00000  Uiso   1.00
C249   C     0.78617   0.38345   0.09206   0.00000  Uiso   1.00
C250   C     0.87997   0.61669   0.24183   0.00000  Uiso   1.00
C251   C     0.87409   0.38051   0.24654   0.00000  Uiso   1.00
C252   C     0.91232   0.49951   0.16230   0.00000  Uiso   1.00
C253   C     0.79406   0.61978   0.08565   0.00000  Uiso   1.00
C254   C     0.83319   0.50009   0.07368   0.00000  Uiso   1.00
C255   C     0.83346   0.49992   0.25965   0.00000  Uiso   1.00
C256   C     0.83328   0.50012   0.02189   0.00000  Uiso   1.00
C257   C     0.83337   0.49989   0.31144   0.00000  Uiso   1.00
C258   C     0.68879   0.45975   0.18111   0.00000  Uiso   1.00
C259   C     0.97789   0.54026   0.15218   0.00000  Uiso   1.00
C260   C     0.98033   0.45735   0.16756   0.00000  Uiso   1.00
Cu261  Cu    0.83333   0.54689   0.16667   0.00000  Uiso   1.00
Cu262  Cu    0.83333   0.45311   0.16667   0.00000  Uiso   1.00
H263   H     0.77941   0.40498   0.02127   0.00000  Uiso   1.00
H264   H     0.93506   0.58734   0.26185   0.00000  Uiso   1.00
H265   H     0.87343   0.39397   0.31934   0.00000  Uiso   1.00
H266   H     0.74744   0.58244   0.05600   0.00000  Uiso   1.00
I267   I     0.71669   0.40398   0.22390   0.00000  Uiso   1.00
I268   I     0.95002   0.59595   0.10925   0.00000  Uiso   1.00
I269   I     0.95809   0.39112   0.14576   0.00000  Uiso   1.00
I270   I     0.70862   0.60893   0.18740   0.00000  Uiso   1.00
N271   N     0.83333   0.61736   0.16667   0.00000  Uiso   1.00
N272   N     0.83333   0.38264   0.16667   0.00000  Uiso   1.00
O273   O     0.77321   0.53958   0.16666   0.00000  Uiso   1.00
O274   O     0.80034   0.38870   0.04458   0.00000  Uiso   1.00
O275   O     0.86711   0.61188   0.28312   0.00000  Uiso   1.00
O276   O     0.92020   0.60286   0.23231   0.00000  Uiso   1.00
O277   O     0.90623   0.40100   0.24237   0.00000  Uiso   1.00
O278   O     0.85678   0.37733   0.29257   0.00000  Uiso   1.00
O279   O     0.81040   0.62272   0.04611   0.00000  Uiso   1.00
O280   O     0.75715   0.59631   0.08865   0.00000  Uiso   1.00
O281   O     0.89345   0.46042   0.16667   0.00000  Uiso   1.00
O282   O     0.89345   0.53958   0.16667   0.00000  Uiso   1.00
O283   O     0.77321   0.46042   0.16666   0.00000  Uiso   1.00
O284   O     0.83333   0.53959   0.09613   0.00000  Uiso   1.00
O285   O     0.83333   0.46041   0.23720   0.00000  Uiso   1.00
O286   O     0.83333   0.53959   0.23720   0.00000  Uiso   1.00
O287   O     0.83333   0.46041   0.09613   0.00000  Uiso   1.00
O288   O     0.75124   0.39607   0.10101   0.00000  Uiso   1.00
C289   C     0.08768   0.83382   0.17103   0.00000  Uiso   1.00
C290   C     0.01968   0.87600   0.16574   0.00000  Uiso   1.00
C291   C     0.29059   0.83182   0.15815   0.00000  Uiso   1.00
C292   C     0.04275   0.83486   0.17517   0.00000  Uiso   1.00
C293   C     0.14548   0.69203   0.13022   0.00000  Uiso   1.00
C294   C     0.18766   0.97469   0.20330   0.00000  Uiso   1.00
C295   C     0.18720   0.69067   0.20369   0.00000  Uiso   1.00
C296   C     0.14642   0.97606   0.12941   0.00000  Uiso   1.00
C297   C     0.11950   0.71678   0.09206   0.00000  Uiso   1.00
C298   C     0.21331   0.95002   0.24183   0.00000  Uiso   1.00
C299   C     0.20743   0.71384   0.24654   0.00000  Uiso   1.00
C300   C     0.24566   0.83285   0.16230   0.00000  Uiso   1.00
C301   C     0.12739   0.95311   0.08565   0.00000  Uiso   1.00
C302   C     0.16653   0.83342   0.07368   0.00000  Uiso   1.00
C303   C     0.16680   0.83325   0.25965   0.00000  Uiso   1.00
C304   C     0.16661   0.83346   0.02189   0.00000  Uiso   1.00
C305   C     0.16670   0.83322   0.31144   0.00000  Uiso   1.00
C306   C     0.02212   0.79308   0.18111   0.00000  Uiso   1.00
C307   C     0.31122   0.87359   0.15218   0.00000  Uiso   1.00
C308   C     0.31366   0.79068   0.16756   0.00000  Uiso   1.00
Cu309  Cu    0.16667   0.88022   0.16667   0.00000  Uiso   1.00
Cu310  Cu    0.16667   0.78645   0.16667   0.00000  Uiso   1.00
H311   H     0.11274   0.73832   0.02127   0.00000  Uiso   1.00
H312   H     0.26839   0.92068   0.26185   0.00000  Uiso   1.00
H313   H     0.20676   0.72731   0.31934   0.00000  Uiso   1.00
H314   H     0.08078   0.91577   0.05600   0.00000  Uiso   1.00
I315   I     0.05002   0.73731   0.22390   0.00000  Uiso   1.00
I316   I     0.28335   0.92928   0.10925   0.00000  Uiso   1.00
I317   I     0.29143   0.72445   0.14576   0.00000  Uiso   1.00
I318   I     0.04196   0.94226   0.18740   0.00000  Uiso   1.00
N319   N     0.16667   0.95069   0.16667   0.00000  Uiso   1.00
N320   N     0.16667   0.71598   0.16667   0.00000  Uiso   1.00
O321   O     0.10655   0.87291   0.16666   0.00000  Uiso   1.00
O322   O     0.13367   0.72203   0.04458   0.00000  Uiso   1.00
O323   O     0.20045   0.94521   0.28312   0.00000  Uiso   1.00
O324   O     0.25354   0.93619   0.23231   0.00000  Uiso   1.00
O325   O     0.23956   0.73434   0.24237   0.00000  Uiso   1.00
O326   O     0.19011   0.71066   0.29257   0.00000  Uiso   1.00
O327   O     0.14374   0.95605   0.04611   0.00000  Uiso   1.00
O328   O     0.09048   0.92964   0.08865   0.00000  Uiso   1.00
O329   O     0.22679   0.79375   0.16667   0.00000  Uiso   1.00
O330   O     0.22679   0.87291   0.16667   0.00000  Uiso   1.00
O331   O     0.10655   0.79375   0.16666   0.00000  Uiso   1.00
O332   O     0.16667   0.87292   0.09613   0.00000  Uiso   1.00
O333   O     0.16667   0.79375   0.23720   0.00000  Uiso   1.00
O334   O     0.16667   0.87292   0.23720   0.00000  Uiso   1.00
O335   O     0.16667   0.79375   0.09613   0.00000  Uiso   1.00
O336   O     0.08458   0.72940   0.10101   0.00000  Uiso   1.00
C337   C     0.42101   0.83382   0.17103   0.00000  Uiso   1.00
C338   C     0.35301   0.87600   0.16574   0.00000  Uiso   1.00
C339   C     0.62392   0.83182   0.15815   0.00000  Uiso   1.00
C340   C     0.37608   0.83486   0.17517   0.00000  Uiso   1.00
C341   C     0.47882   0.69203   0.13022   0.00000  Uiso   1.00
C342   C     0.52100   0.97469   0.20330   0.00000  Uiso   1.00
C343   C     0.52053   0.69067   0.20369   0.00000  Uiso   1.00
C344   C     0.47975   0.97606   0.12941   0.00000  Uiso   1.00
C345   C     0.45284   0.71678   0.09206   0.00000  Uiso   1.00
C346   C     0.54664   0.95002   0.24183   0.00000  Uiso   1.00
C347   C     0.54076   0.71384   0.24654   0.00000  Uiso   1.00
C348   C     0.57899   0.83285   0.16230   0.00000  Uiso   1.00
C349   C     0.46072   0.95311   0.08565   0.00000  Uiso   1.00
C350   C     0.49986   0.83342   0.07368   0.00000  Uiso   1.00
C351   C     0.50013   0.83325   0.25965   0.00000  Uiso   1.00
C352   C     0.49995   0.83346   0.02189   0.00000  Uiso   1.00
C353   C     0.50004   0.83322   0.31144   0.00000  Uiso   1.00
C354   C     0.35545   0.79308   0.18111   0.00000  Uiso   1.00
C355   C     0.64456   0.87359   0.15218   0.00000  Uiso   1.00
C356   C     0.64699   0.79068   0.16756   0.00000  Uiso   1.00
Cu357  Cu    0.50000   0.88022   0.16667   0.00000  Uiso   1.00
Cu358  Cu    0.50000   0.78645   0.16667   0.00000  Uiso   1.00
H359   H     0.44608   0.73832   0.02127   0.00000  Uiso   1.00
H360   H     0.60173   0.92068   0.26185   0.00000  Uiso   1.00
H361   H     0.54009   0.72731   0.31934   0.00000  Uiso   1.00
H362   H     0.41411   0.91577   0.05600   0.00000  Uiso   1.00
I363   I     0.38335   0.73731   0.22390   0.00000  Uiso   1.00
I364   I     0.61669   0.92928   0.10925   0.00000  Uiso   1.00
I365   I     0.62476   0.72445   0.14576   0.00000  Uiso   1.00
I366   I     0.37529   0.94226   0.18740   0.00000  Uiso   1.00
N367   N     0.50000   0.95069   0.16667   0.00000  Uiso   1.00
N368   N     0.50000   0.71598   0.16667   0.00000  Uiso   1.00
O369   O     0.43988   0.87291   0.16666   0.00000  Uiso   1.00
O370   O     0.46701   0.72203   0.04458   0.00000  Uiso   1.00
O371   O     0.53378   0.94521   0.28312   0.00000  Uiso   1.00
O372   O     0.58687   0.93619   0.23231   0.00000  Uiso   1.00
O373   O     0.57290   0.73434   0.24237   0.00000  Uiso   1.00
O374   O     0.52344   0.71066   0.29257   0.00000  Uiso   1.00
O375   O     0.47707   0.95605   0.04611   0.00000  Uiso   1.00
O376   O     0.42382   0.92964   0.08865   0.00000  Uiso   1.00
O377   O     0.56012   0.79375   0.16667   0.00000  Uiso   1.00
O378   O     0.56012   0.87291   0.16667   0.00000  Uiso   1.00
O379   O     0.43988   0.79375   0.16666   0.00000  Uiso   1.00
O380   O     0.50000   0.87292   0.09613   0.00000  Uiso   1.00
O381   O     0.50000   0.79375   0.23720   0.00000  Uiso   1.00
O382   O     0.50000   0.87292   0.23720   0.00000  Uiso   1.00
O383   O     0.50000   0.79375   0.09613   0.00000  Uiso   1.00
O384   O     0.41791   0.72940   0.10101   0.00000  Uiso   1.00
C385   C     0.75435   0.83382   0.17103   0.00000  Uiso   1.00
C386   C     0.68635   0.87600   0.16574   0.00000  Uiso   1.00
C387   C     0.95726   0.83182   0.15815   0.00000  Uiso   1.00
C388   C     0.70941   0.83486   0.17517   0.00000  Uiso   1.00
C389   C     0.81215   0.69203   0.13022   0.00000  Uiso   1.00
C390   C     0.85433   0.97469   0.20330   0.00000  Uiso   1.00
C391   C     0.85387   0.69067   0.20369   0.00000  Uiso   1.00
C392   C     0.81309   0.97606   0.12941   0.00000  Uiso   1.00
C393   C     0.78617   0.71678   0.09206   0.00000  Uiso   1.00
C394   C     0.87997   0.95002   0.24183   0.00000  Uiso   1.00
C395   C     0.87409   0.71384   0.24654   0.00000  Uiso   1.00
C396   C     0.91232   0.83285   0.16230   0.00000  Uiso   1.00
C397   C     0.79406   0.95311   0.08565   0.00000  Uiso   1.00
C398   C     0.83319   0.83342   0.07368   0.00000  Uiso   1.00
C399   C     0.83346   0.83325   0.25965   0.00000  Uiso   1.00
C400   C     0.83328   0.83346   0.02189   0.00000  Uiso   1.00
C401   C     0.83337   0.83322   0.31144   0.00000  Uiso   1.00
C402   C     0.68879   0.79308   0.18111   0.00000  Uiso   1.00
C403   C     0.97789   0.87359   0.15218   0.00000  Uiso   1.00
C404   C     0.98033   0.79068   0.16756   0.00000  Uiso   1.00
Cu405  Cu    0.83333   0.88022   0.16667   0.00000  Uiso   1.00
Cu406  Cu    0.83333   0.78645   0.16667   0.00000  Uiso   1.00
H407   H     0.77941   0.73832   0.02127   0.00000  Uiso   1.00
H408   H     0.93506   0.92068   0.26185   0.00000  Uiso   1.00
H409   H     0.87343   0.72731   0.31934   0.00000  Uiso   1.00
H410   H     0.74744   0.91577   0.05600   0.00000  Uiso   1.00
I411   I     0.71669   0.73731   0.22390   0.00000  Uiso   1.00
I412   I     0.95002   0.92928   0.10925   0.00000  Uiso   1.00
I413   I     0.95809   0.72445   0.14576   0.00000  Uiso   1.00
I414   I     0.70862   0.94226   0.18740   0.00000  Uiso   1.00
N415   N     0.83333   0.95069   0.16667   0.00000  Uiso   1.00
N416   N     0.83333   0.71598   0.16667   0.00000  Uiso   1.00
O417   O     0.77321   0.87291   0.16666   0.00000  Uiso   1.00
O418   O     0.80034   0.72203   0.04458   0.00000  Uiso   1.00
O419   O     0.86711   0.94521   0.28312   0.00000  Uiso   1.00
O420   O     0.92020   0.93619   0.23231   0.00000  Uiso   1.00
O421   O     0.90623   0.73434   0.24237   0.00000  Uiso   1.00
O422   O     0.85678   0.71066   0.29257   0.00000  Uiso   1.00
O423   O     0.81040   0.95605   0.04611   0.00000  Uiso   1.00
O424   O     0.75715   0.92964   0.08865   0.00000  Uiso   1.00
O425   O     0.89345   0.79375   0.16667   0.00000  Uiso   1.00
O426   O     0.89345   0.87291   0.16667   0.00000  Uiso   1.00
O427   O     0.77321   0.79375   0.16666   0.00000  Uiso   1.00
O428   O     0.83333   0.87292   0.09613   0.00000  Uiso   1.00
O429   O     0.83333   0.79375   0.23720   0.00000  Uiso   1.00
O430   O     0.83333   0.87292   0.23720   0.00000  Uiso   1.00
O431   O     0.83333   0.79375   0.09613   0.00000  Uiso   1.00
O432   O     0.75124   0.72940   0.10101   0.00000  Uiso   1.00
C433   C     0.08768   0.16716   0.50436   0.00000  Uiso   1.00
C434   C     0.01968   0.20933   0.49907   0.00000  Uiso   1.00
C435   C     0.29059   0.16515   0.49148   0.00000  Uiso   1.00
C436   C     0.04275   0.16819   0.50850   0.00000  Uiso   1.00
C437   C     0.14548   0.02537   0.46355   0.00000  Uiso   1.00
C438   C     0.18766   0.30802   0.53663   0.00000  Uiso   1.00
C439   C     0.18720   0.02400   0.53702   0.00000  Uiso   1.00
C440   C     0.14642   0.30939   0.46274   0.00000  Uiso   1.00
C441   C     0.11950   0.05012   0.42540   0.00000  Uiso   1.00
C442   C     0.21331   0.28335   0.57516   0.00000  Uiso   1.00
C443   C     0.20743   0.04718   0.57988   0.00000  Uiso   1.00
C444   C     0.24566   0.16618   0.49563   0.00000  Uiso   1.00
C445   C     0.12739   0.28644   0.41898   0.00000  Uiso   1.00
C446   C     0.16653   0.16675   0.40702   0.00000  Uiso   1.00
C447   C     0.16680   0.16658   0.59298   0.00000  Uiso   1.00
C448   C     0.16661   0.16679   0.35523   0.00000  Uiso   1.00
C449   C     0.16670   0.16655   0.64477   0.00000  Uiso   1.00
C450   C     0.02212   0.12641   0.51444   0.00000  Uiso   1.00
C451   C     0.31122   0.20692   0.48552   0.00000  Uiso   1.00
C452   C     0.31366   0.12401   0.50090   0.00000  Uiso   1.00
Cu453  Cu    0.16667   0.21355   0.50000   0.00000  Uiso   1.00
Cu454  Cu    0.16667   0.11978   0.50000   0.00000  Uiso   1.00
H455   H     0.11274   0.07165   0.35460   0.00000  Uiso   1.00
H456   H     0.26839   0.25401   0.59518   0.00000  Uiso   1.00
H457   H     0.20676   0.06064   0.65268   0.00000  Uiso   1.00
H458   H     0.08078   0.24910   0.38933   0.00000  Uiso   1.00
I459   I     0.05002   0.07065   0.55724   0.00000  Uiso   1.00
I460   I     0.28335   0.26261   0.44258   0.00000  Uiso   1.00
I461   I     0.29143   0.05779   0.47909   0.00000  Uiso   1.00
I462   I     0.04196   0.27560   0.52073   0.00000  Uiso   1.00
N463   N     0.16667   0.28402   0.50000   0.00000  Uiso   1.00
N464   N     0.16667   0.04931   0.50000   0.00000  Uiso   1.00
O465   O     0.10655   0.20625   0.50000   0.00000  Uiso   1.00
O466   O     0.13367   0.05537   0.37791   0.00000  Uiso   1.00
O467   O     0.20045   0.27855   0.61646   0.00000  Uiso   1.00
O468   O     0.25354   0.26953   0.56565   0.00000  Uiso   1.00
O469   O     0.23956   0.06767   0.57570   0.00000  Uiso   1.00
O470   O     0.19011   0.04399   0.62590   0.00000  Uiso   1.00
O471   O     0.14374   0.28938   0.37944   0.00000  Uiso   1.00
O472   O     0.09048   0.26297   0.42199   0.00000  Uiso   1.00
O473   O     0.22679   0.12709   0.50000   0.00000  Uiso   1.00
O474   O     0.22679   0.20625   0.50000   0.00000  Uiso   1.00
O475   O     0.10655   0.12709   0.50000   0.00000  Uiso   1.00
O476   O     0.16667   0.20625   0.42946   0.00000  Uiso   1.00
O477   O     0.16667   0.12708   0.57054   0.00000  Uiso   1.00
O478   O     0.16667   0.20625   0.57054   0.00000  Uiso   1.00
O479   O     0.16667   0.12708   0.42946   0.00000  Uiso   1.00
O480   O     0.08458   0.06273   0.43434   0.00000  Uiso   1.00
C481   C     0.42101   0.16716   0.50436   0.00000  Uiso   1.00
C482   C     0.35301   0.20933   0.49907   0.00000  Uiso   1.00
C483   C     0.62392   0.16515   0.49148   0.00000  Uiso   1.00
C484   C     0.37608   0.16819   0.50850   0.00000  Uiso   1.00
C485   C     0.47882   0.02537   0.46355   0.00000  Uiso   1.00
C486   C     0.52100   0.30802   0.53663   0.00000  Uiso   1.00
C487   C     0.52053   0.02400   0.53702   0.00000  Uiso   1.00
C488   C     0.47975   0.30939   0.46274   0.00000  Uiso   1.00
C489   C     0.45284   0.05012   0.42540   0.00000  Uiso   1.00
C490   C     0.54664   0.28335   0.57516   0.00000  Uiso   1.00
C491   C     0.54076   0.04718   0.57988   0.00000  Uiso   1.00
C492   C     0.57899   0.16618   0.49563   0.00000  Uiso   1.00
C493   C     0.46072   0.28644   0.41898   0.00000  Uiso   1.00
C494   C     0.49986   0.16675   0.40702   0.00000  Uiso   1.00
C495   C     0.50013   0.16658   0.59298   0.00000  Uiso   1.00
C496   C     0.49995   0.16679   0.35523   0.00000  Uiso   1.00
C497   C     0.50004   0.16655   0.64477   0.00000  Uiso   1.00
C498   C     0.35545   0.12641   0.51444   0.00000  Uiso   1.00
C499   C     0.64456   0.20692   0.48552   0.00000  Uiso   1.00
C500   C     0.64699   0.12401   0.50090   0.00000  Uiso   1.00
Cu501  Cu    0.50000   0.21355   0.50000   0.00000  Uiso   1.00
Cu502  Cu    0.50000   0.11978   0.50000   0.00000  Uiso   1.00
H503   H     0.44608   0.07165   0.35460   0.00000  Uiso   1.00
H504   H     0.60173   0.25401   0.59518   0.00000  Uiso   1.00
H505   H     0.54009   0.06064   0.65268   0.00000  Uiso   1.00
H506   H     0.41411   0.24910   0.38933   0.00000  Uiso   1.00
I507   I     0.38335   0.07065   0.55724   0.00000  Uiso   1.00
I508   I     0.61669   0.26261   0.44258   0.00000  Uiso   1.00
I509   I     0.62476   0.05779   0.47909   0.00000  Uiso   1.00
I510   I     0.37529   0.27560   0.52073   0.00000  Uiso   1.00
N511   N     0.50000   0.28402   0.50000   0.00000  Uiso   1.00
N512   N     0.50000   0.04931   0.50000   0.00000  Uiso   1.00
O513   O     0.43988   0.20625   0.50000   0.00000  Uiso   1.00
O514   O     0.46701   0.05537   0.37791   0.00000  Uiso   1.00
O515   O     0.53378   0.27855   0.61646   0.00000  Uiso   1.00
O516   O     0.58687   0.26953   0.56565   0.00000  Uiso   1.00
O517   O     0.57290   0.06767   0.57570   0.00000  Uiso   1.00
O518   O     0.52344   0.04399   0.62590   0.00000  Uiso   1.00
O519   O     0.47707   0.28938   0.37944   0.00000  Uiso   1.00
O520   O     0.42382   0.26297   0.42199   0.00000  Uiso   1.00
O521   O     0.56012   0.12709   0.50000   0.00000  Uiso   1.00
O522   O     0.56012   0.20625   0.50000   0.00000  Uiso   1.00
O523   O     0.43988   0.12709   0.50000   0.00000  Uiso   1.00
O524   O     0.50000   0.20625   0.42946   0.00000  Uiso   1.00
O525   O     0.50000   0.12708   0.57054   0.00000  Uiso   1.00
O526   O     0.50000   0.20625   0.57054   0.00000  Uiso   1.00
O527   O     0.50000   0.12708   0.42946   0.00000  Uiso   1.00
O528   O     0.41791   0.06273   0.43434   0.00000  Uiso   1.00
C529   C     0.75435   0.16716   0.50436   0.00000  Uiso   1.00
C530   C     0.68635   0.20933   0.49907   0.00000  Uiso   1.00
C531   C     0.95726   0.16515   0.49148   0.00000  Uiso   1.00
C532   C     0.70941   0.16819   0.50850   0.00000  Uiso   1.00
C533   C     0.81215   0.02537   0.46355   0.00000  Uiso   1.00
C534   C     0.85433   0.30802   0.53663   0.00000  Uiso   1.00
C535   C     0.85387   0.02400   0.53702   0.00000  Uiso   1.00
C536   C     0.81309   0.30939   0.46274   0.00000  Uiso   1.00
C537   C     0.78617   0.05012   0.42540   0.00000  Uiso   1.00
C538   C     0.87997   0.28335   0.57516   0.00000  Uiso   1.00
C539   C     0.87409   0.04718   0.57988   0.00000  Uiso   1.00
C540   C     0.91232   0.16618   0.49563   0.00000  Uiso   1.00
C541   C     0.79406   0.28644   0.41898   0.00000  Uiso   1.00
C542   C     0.83319   0.16675   0.40702   0.00000  Uiso   1.00
C543   C     0.83346   0.16658   0.59298   0.00000  Uiso   1.00
C544   C     0.83328   0.16679   0.35523   0.00000  Uiso   1.00
C545   C     0.83337   0.16655   0.64477   0.00000  Uiso   1.00
C546   C     0.68879   0.12641   0.51444   0.00000  Uiso   1.00
C547   C     0.97789   0.20692   0.48552   0.00000  Uiso   1.00
C548   C     0.98033   0.12401   0.50090   0.00000  Uiso   1.00
Cu549  Cu    0.83333   0.21355   0.50000   0.00000  Uiso   1.00
Cu550  Cu    0.83333   0.11978   0.50000   0.00000  Uiso   1.00
H551   H     0.77941   0.07165   0.35460   0.00000  Uiso   1.00
H552   H     0.93506   0.25401   0.59518   0.00000  Uiso   1.00
H553   H     0.87343   0.06064   0.65268   0.00000  Uiso   1.00
H554   H     0.74744   0.24910   0.38933   0.00000  Uiso   1.00
I555   I     0.71669   0.07065   0.55724   0.00000  Uiso   1.00
I556   I     0.95002   0.26261   0.44258   0.00000  Uiso   1.00
I557   I     0.95809   0.05779   0.47909   0.00000  Uiso   1.00
I558   I     0.70862   0.27560   0.52073   0.00000  Uiso   1.00
N559   N     0.83333   0.28402   0.50000   0.00000  Uiso   1.00
N560   N     0.83333   0.04931   0.50000   0.00000  Uiso   1.00
O561   O     0.77321   0.20625   0.50000   0.00000  Uiso   1.00
O562   O     0.80034   0.05537   0.37791   0.00000  Uiso   1.00
O563   O     0.86711   0.27855   0.61646   0.00000  Uiso   1.00
O564   O     0.92020   0.26953   0.56565   0.00000  Uiso   1.00
O565   O     0.90623   0.06767   0.57570   0.00000  Uiso   1.00
O566   O     0.85678   0.04399   0.62590   0.00000  Uiso   1.00
O567   O     0.81040   0.28938   0.37944   0.00000  Uiso   1.00
O568   O     0.75715   0.26297   0.42199   0.00000  Uiso   1.00
O569   O     0.89345   0.12709   0.50000   0.00000  Uiso   1.00
O570   O     0.89345   0.20625   0.50000   0.00000  Uiso   1.00
O571   O     0.77321   0.12709   0.50000   0.00000  Uiso   1.00
O572   O     0.83333   0.20625   0.42946   0.00000  Uiso   1.00
O573   O     0.83333   0.12708   0.57054   0.00000  Uiso   1.00
O574   O     0.83333   0.20625   0.57054   0.00000  Uiso   1.00
O575   O     0.83333   0.12708   0.42946   0.00000  Uiso   1.00
O576   O     0.75124   0.06273   0.43434   0.00000  Uiso   1.00
C577   C     0.08768   0.50049   0.50436   0.00000  Uiso   1.00
C578   C     0.01968   0.54267   0.49907   0.00000  Uiso   1.00
C579   C     0.29059   0.49849   0.49148   0.00000  Uiso   1.00
C580   C     0.04275   0.50152   0.50850   0.00000  Uiso   1.00
C581   C     0.14548   0.35870   0.46355   0.00000  Uiso   1.00
C582   C     0.18766   0.64135   0.53663   0.00000  Uiso   1.00
C583   C     0.18720   0.35734   0.53702   0.00000  Uiso   1.00
C584   C     0.14642   0.64273   0.46274   0.00000  Uiso   1.00
C585   C     0.11950   0.38345   0.42540   0.00000  Uiso   1.00
C586   C     0.21331   0.61669   0.57516   0.00000  Uiso   1.00
C587   C     0.20743   0.38051   0.57988   0.00000  Uiso   1.00
C588   C     0.24566   0.49951   0.49563   0.00000  Uiso   1.00
C589   C     0.12739   0.61978   0.41898   0.00000  Uiso   1.00
C590   C     0.16653   0.50009   0.40702   0.00000  Uiso   1.00
C591   C     0.16680   0.49992   0.59298   0.00000  Uiso   1.00
C592   C     0.16661   0.50012   0.35523   0.00000  Uiso   1.00
C593   C     0.16670   0.49989   0.64477   0.00000  Uiso   1.00
C594   C     0.02212   0.45975   0.51444   0.00000  Uiso   1.00
C595   C     0.31122   0.54026   0.48552   0.00000  Uiso   1.00
C596   C     0.31366   0.45735   0.50090   0.00000  Uiso   1.00
Cu597  Cu    0.16667   0.54689   0.50000   0.00000  Uiso   1.00
Cu598  Cu    0.16667   0.45311   0.50000   0.00000  Uiso   1.00
H599   H     0.11274   0.40498   0.35460   0.00000  Uiso   1.00
H600   H     0.26839   0.58734   0.59518   0.00000  Uiso   1.00
H601   H     0.20676   0.39397   0.65268   0.00000  Uiso   1.00
H602   H     0.08078   0.58244   0.38933   0.00000  Uiso   1.00
I603   I     0.05002   0.40398   0.55724   0.00000  Uiso   1.00
I604   I     0.28335   0.59595   0.44258   0.00000  Uiso   1.00
I605   I     0.29143   0.39112   0.47909   0.00000  Uiso   1.00
I606   I     0.04196   0.60893   0.52073   0.00000  Uiso   1.00
N607   N     0.16667   0.61736   0.50000   0.00000  Uiso   1.00
N608   N     0.16667   0.38264   0.50000   0.00000  Uiso   1.00
O609   O     0.10655   0.53958   0.50000   0.00000  Uiso   1.00
O610   O     0.13367   0.38870   0.37791   0.00000  Uiso   1.00
O611   O     0.20045   0.61188   0.61646   0.00000  Uiso   1.00
O612   O     0.25354   0.60286   0.56565   0.00000  Uiso   1.00
O613   O     0.23956   0.40100   0.57570   0.00000  Uiso   1.00
O614   O     0.19011   0.37733   0.62590   0.00000  Uiso   1.00
O615   O     0.14374   0.62272   0.37944   0.00000  Uiso   1.00
O616   O     0.09048   0.59631   0.42199   0.00000  Uiso   1.00
O617   O     0.22679   0.46042   0.50000   0.00000  Uiso   1.00
O618   O     0.22679   0.53958   0.50000   0.00000  Uiso   1.00
O619   O     0.10655   0.46042   0.50000   0.00000  Uiso   1.00
O620   O     0.16667   0.53959   0.42946   0.00000  Uiso   1.00
O621   O     0.16667   0.46041   0.57054   0.00000  Uiso   1.00
O622   O     0.16667   0.53959   0.57054   0.00000  Uiso   1.00
O623   O     0.16667   0.46041   0.42946   0.00000  Uiso   1.00
O624   O     0.08458   0.39607   0.43434   0.00000  Uiso   1.00
C625   C     0.42101   0.50049   0.50436   0.00000  Uiso   1.00
C626   C     0.35301   0.54267   0.49907   0.00000  Uiso   1.00
C627   C     0.62392   0.49849   0.49148   0.00000  Uiso   1.00
C628   C     0.37608   0.50152   0.50850   0.00000  Uiso   1.00
C629   C     0.47882   0.35870   0.46355   0.00000  Uiso   1.00
C630   C     0.52100   0.64135   0.53663   0.00000  Uiso   1.00
C631   C     0.52053   0.35734   0.53702   0.00000  Uiso   1.00
C632   C     0.47975   0.64273   0.46274   0.00000  Uiso   1.00
C633   C     0.45284   0.38345   0.42540   0.00000  Uiso   1.00
C634   C     0.54664   0.61669   0.57516   0.00000  Uiso   1.00
C635   C     0.54076   0.38051   0.57988   0.00000  Uiso   1.00
C636   C     0.57899   0.49951   0.49563   0.00000  Uiso   1.00
C637   C     0.46072   0.61978   0.41898   0.00000  Uiso   1.00
C638   C     0.49986   0.50009   0.40702   0.00000  Uiso   1.00
C639   C     0.50013   0.49992   0.59298   0.00000  Uiso   1.00
C640   C     0.49995   0.50012   0.35523   0.00000  Uiso   1.00
C641   C     0.50004   0.49989   0.64477   0.00000  Uiso   1.00
C642   C     0.35545   0.45975   0.51444   0.00000  Uiso   1.00
C643   C     0.64456   0.54026   0.48552   0.00000  Uiso   1.00
C644   C     0.64699   0.45735   0.50090   0.00000  Uiso   1.00
Cu645  Cu    0.50000   0.54689   0.50000   0.00000  Uiso   1.00
Cu646  Cu    0.50000   0.45311   0.50000   0.00000  Uiso   1.00
H647   H     0.44608   0.40498   0.35460   0.00000  Uiso   1.00
H648   H     0.60173   0.58734   0.59518   0.00000  Uiso   1.00
H649   H     0.54009   0.39397   0.65268   0.00000  Uiso   1.00
H650   H     0.41411   0.58244   0.38933   0.00000  Uiso   1.00
I651   I     0.38335   0.40398   0.55724   0.00000  Uiso   1.00
I652   I     0.61669   0.59595   0.44258   0.00000  Uiso   1.00
I653   I     0.62476   0.39112   0.47909   0.00000  Uiso   1.00
I654   I     0.37529   0.60893   0.52073   0.00000  Uiso   1.00
N655   N     0.50000   0.61736   0.50000   0.00000  Uiso   1.00
N656   N     0.50000   0.38264   0.50000   0.00000  Uiso   1.00
O657   O     0.43988   0.53958   0.50000   0.00000  Uiso   1.00
O658   O     0.46701   0.38870   0.37791   0.00000  Uiso   1.00
O659   O     0.53378   0.61188   0.61646   0.00000  Uiso   1.00
O660   O     0.58687   0.60286   0.56565   0.00000  Uiso   1.00
O661   O     0.57290   0.40100   0.57570   0.00000  Uiso   1.00
O662   O     0.52344   0.37733   0.62590   0.00000  Uiso   1.00
O663   O     0.47707   0.62272   0.37944   0.00000  Uiso   1.00
O664   O     0.42382   0.59631   0.42199   0.00000  Uiso   1.00
O665   O     0.56012   0.46042   0.50000   0.00000  Uiso   1.00
O666   O     0.56012   0.53958   0.50000   0.00000  Uiso   1.00
O667   O     0.43988   0.46042   0.50000   0.00000  Uiso   1.00
O668   O     0.50000   0.53959   0.42946   0.00000  Uiso   1.00
O669   O     0.50000   0.46041   0.57054   0.00000  Uiso   1.00
O670   O     0.50000   0.53959   0.57054   0.00000  Uiso   1.00
O671   O     0.50000   0.46041   0.42946   0.00000  Uiso   1.00
O672   O     0.41791   0.39607   0.43434   0.00000  Uiso   1.00
C673   C     0.75435   0.50049   0.50436   0.00000  Uiso   1.00
C674   C     0.68635   0.54267   0.49907   0.00000  Uiso   1.00
C675   C     0.95726   0.49849   0.49148   0.00000  Uiso   1.00
C676   C     0.70941   0.50152   0.50850   0.00000  Uiso   1.00
C677   C     0.81215   0.35870   0.46355   0.00000  Uiso   1.00
C678   C     0.85433   0.64135   0.53663   0.00000  Uiso   1.00
C679   C     0.85387   0.35734   0.53702   0.00000  Uiso   1.00
C680   C     0.81309   0.64273   0.46274   0.00000  Uiso   1.00
C681   C     0.78617   0.38345   0.42540   0.00000  Uiso   1.00
C682   C     0.87997   0.61669   0.57516   0.00000  Uiso   1.00
C683   C     0.87409   0.38051   0.57988   0.00000  Uiso   1.00
C684   C     0.91232   0.49951   0.49563   0.00000  Uiso   1.00
C685   C     0.79406   0.61978   0.41898   0.00000  Uiso   1.00
C686   C     0.83319   0.50009   0.40702   0.00000  Uiso   1.00
C687   C     0.83346   0.49992   0.59298   0.00000  Uiso   1.00
C688   C     0.83328   0.50012   0.35523   0.00000  Uiso   1.00
C689   C     0.83337   0.49989   0.64477   0.00000  Uiso   1.00
C690   C     0.68879   0.45975   0.51444   0.00000  Uiso   1.00
C691   C     0.97789   0.54026   0.48552   0.00000  Uiso   1.00
C692   C     0.98033   0.45735   0.50090   0.00000  Uiso   1.00
Cu693  Cu    0.83333   0.54689   0.50000   0.00000  Uiso   1.00
Cu694  Cu    0.83333   0.45311   0.50000   0.00000  Uiso   1.00
H695   H     0.77941   0.40498   0.35460   0.00000  Uiso   1.00
H696   H     0.93506   0.58734   0.59518   0.00000  Uiso   1.00
H697   H     0.87343   0.39397   0.65268   0.00000  Uiso   1.00
H698   H     0.74744   0.58244   0.38933   0.00000  Uiso   1.00
I699   I     0.71669   0.40398   0.55724   0.00000  Uiso   1.00
I700   I     0.95002   0.59595   0.44258   0.00000  Uiso   1.00
I701   I     0.95809   0.39112   0.47909   0.00000  Uiso   1.00
I702   I     0.70862   0.60893   0.52073   0.00000  Uiso   1.00
N703   N     0.83333   0.61736   0.50000   0.00000  Uiso   1.00
N704   N     0.83333   0.38264   0.50000   0.00000  Uiso   1.00
O705   O     0.77321   0.53958   0.50000   0.00000  Uiso   1.00
O706   O     0.80034   0.38870   0.37791   0.00000  Uiso   1.00
O707   O     0.86711   0.61188   0.61646   0.00000  Uiso   1.00
O708   O     0.92020   0.60286   0.56565   0.00000  Uiso   1.00
O709   O     0.90623   0.40100   0.57570   0.00000  Uiso   1.00
O710   O     0.85678   0.37733   0.62590   0.00000  Uiso   1.00
O711   O     0.81040   0.62272   0.37944   0.00000  Uiso   1.00
O712   O     0.75715   0.59631   0.42199   0.00000  Uiso   1.00
O713   O     0.89345   0.46042   0.50000   0.00000  Uiso   1.00
O714   O     0.89345   0.53958   0.50000   0.00000  Uiso   1.00
O715   O     0.77321   0.46042   0.50000   0.00000  Uiso   1.00
O716   O     0.83333   0.53959   0.42946   0.00000  Uiso   1.00
O717   O     0.83333   0.46041   0.57054   0.00000  Uiso   1.00
O718   O     0.83333   0.53959   0.57054   0.00000  Uiso   1.00
O719   O     0.83333   0.46041   0.42946   0.00000  Uiso   1.00
O720   O     0.75124   0.39607   0.43434   0.00000  Uiso   1.00
C721   C     0.08768   0.83382   0.50436   0.00000  Uiso   1.00
C722   C     0.01968   0.87600   0.49907   0.00000  Uiso   1.00
C723   C     0.29059   0.83182   0.49148   0.00000  Uiso   1.00
C724   C     0.04275   0.83486   0.50850   0.00000  Uiso   1.00
C725   C     0.14548   0.69203   0.46355   0.00000  Uiso   1.00
C726   C     0.18766   0.97469   0.53663   0.00000  Uiso   1.00
C727   C     0.18720   0.69067   0.53702   0.00000  Uiso   1.00
C728   C     0.14642   0.97606   0.46274   0.00000  Uiso   1.00
C729   C     0.11950   0.71678   0.42540   0.00000  Uiso   1.00
C730   C     0.21331   0.95002   0.57516   0.00000  Uiso   1.00
C731   C     0.20743   0.71384   0.57988   0.00000  Uiso   1.00
C732   C     0.24566   0.83285   0.49563   0.00000  Uiso   1.00
C733   C     0.12739   0.95311   0.41898   0.00000  Uiso   1.00
C734   C     0.16653   0.83342   0.40702   0.00000  Uiso   1.00
C735   C     0.16680   0.83325   0.59298   0.00000  Uiso   1.00
C736   C     0.16661   0.83346   0.35523   0.00000  Uiso   1.00
C737   C     0.16670   0.83322   0.64477   0.00000  Uiso   1.00
C738   C     0.02212   0.79308   0.51444   0.00000  Uiso   1.00
C739   C     0.31122   0.87359   0.48552   0.00000  Uiso   1.00
C740   C     0.31366   0.79068   0.50090   0.00000  Uiso   1.00
Cu741  Cu    0.16667   0.88022   0.50000   0.00000  Uiso   1.00
Cu742  Cu    0.16667   0.78645   0.50000   0.00000  Uiso   1.00
H743   H     0.11274   0.73832   0.35460   0.00000  Uiso   1.00
H744   H     0.26839   0.92068   0.59518   0.00000  Uiso   1.00
H745   H     0.20676   0.72731   0.65268   0.00000  Uiso   1.00
H746   H     0.08078   0.91577   0.38933   0.00000  Uiso   1.00
I747   I     0.05002   0.73731   0.55724   0.00000  Uiso   1.00
I748   I     0.28335   0.92928   0.44258   0.00000  Uiso   1.00
I749   I     0.29143   0.72445   0.47909   0.00000  Uiso   1.00
I750   I     0.04196   0.94226   0.52073   0.00000  Uiso   1.00
N751   N     0.16667   0.95069   0.50000   0.00000  Uiso   1.00
N752   N     0.16667   0.71598   0.50000   0.00000  Uiso   1.00
O753   O     0.10655   0.87291   0.50000   0.00000  Uiso   1.00
O754   O     0.13367   0.72203   0.37791   0.00000  Uiso   1.00
O755   O     0.20045   0.94521   0.61646   0.00000  Uiso   1.00
O756   O     0.25354   0.93619   0.56565   0.00000  Uiso   1.00
O757   O     0.23956   0.73434   0.57570   0.00000  Uiso   1.00
O758   O     0.19011   0.71066   0.62590   0.00000  Uiso   1.00
O759   O     0.14374   0.95605   0.37944   0.00000  Uiso   1.00
O760   O     0.09048   0.92964   0.42199   0.00000  Uiso   1.00
O761   O     0.22679   0.79375   0.50000   0.00000  Uiso   1.00
O762   O     0.22679   0.87291   0.50000   0.00000  Uiso   1.00
O763   O     0.10655   0.79375   0.50000   0.00000  Uiso   1.00
O764   O     0.16667   0.87292   0.42946   0.00000  Uiso   1.00
O765   O     0.16667   0.79375   0.57054   0.00000  Uiso   1.00
O766   O     0.16667   0.87292   0.57054   0.00000  Uiso   1.00
O767   O     0.16667   0.79375   0.42946   0.00000  Uiso   1.00
O768   O     0.08458   0.72940   0.43434   0.00000  Uiso   1.00
C769   C     0.42101   0.83382   0.50436   0.00000  Uiso   1.00
C770   C     0.35301   0.87600   0.49907   0.00000  Uiso   1.00
C771   C     0.62392   0.83182   0.49148   0.00000  Uiso   1.00
C772   C     0.37608   0.83486   0.50850   0.00000  Uiso   1.00
C773   C     0.47882   0.69203   0.46355   0.00000  Uiso   1.00
C774   C     0.52100   0.97469   0.53663   0.00000  Uiso   1.00
C775   C     0.52053   0.69067   0.53702   0.00000  Uiso   1.00
C776   C     0.47975   0.97606   0.46274   0.00000  Uiso   1.00
C777   C     0.45284   0.71678   0.42540   0.00000  Uiso   1.00
C778   C     0.54664   0.95002   0.57516   0.00000  Uiso   1.00
C779   C     0.54076   0.71384   0.57988   0.00000  Uiso   1.00
C780   C     0.57899   0.83285   0.49563   0.00000  Uiso   1.00
C781   C     0.46072   0.95311   0.41898   0.00000  Uiso   1.00
C782   C     0.49986   0.83342   0.40702   0.00000  Uiso   1.00
C783   C     0.50013   0.83325   0.59298   0.00000  Uiso   1.00
C784   C     0.49995   0.83346   0.35523   0.00000  Uiso   1.00
C785   C     0.50004   0.83322   0.64477   0.00000  Uiso   1.00
C786   C     0.35545   0.79308   0.51444   0.00000  Uiso   1.00
C787   C     0.64456   0.87359   0.48552   0.00000  Uiso   1.00
C788   C     0.64699   0.79068   0.50090   0.00000  Uiso   1.00
Cu789  Cu    0.50000   0.88022   0.50000   0.00000  Uiso   1.00
Cu790  Cu    0.50000   0.78645   0.50000   0.00000  Uiso   1.00
H791   H     0.44608   0.73832   0.35460   0.00000  Uiso   1.00
H792   H     0.60173   0.92068   0.59518   0.00000  Uiso   1.00
H793   H     0.54009   0.72731   0.65268   0.00000  Uiso   1.00
H794   H     0.41411   0.91577   0.38933   0.00000  Uiso   1.00
I795   I     0.38335   0.73731   0.55724   0.00000  Uiso   1.00
I796   I     0.61669   0.92928   0.44258   0.00000  Uiso   1.00
I797   I     0.62476   0.72445   0.47909   0.00000  Uiso   1.00
I798   I     0.37529   0.94226   0.52073   0.00000  Uiso   1.00
N799   N     0.50000   0.95069   0.50000   0.00000  Uiso   1.00
N800   N     0.50000   0.71598   0.50000   0.00000  Uiso   1.00
O801   O     0.43988   0.87291   0.50000   0.00000  Uiso   1.00
O802   O     0.46701   0.72203   0.37791   0.00000  Uiso   1.00
O803   O     0.53378   0.94521   0.61646   0.00000  Uiso   1.00
O804   O     0.58687   0.93619   0.56565   0.00000  Uiso   1.00
O805   O     0.57290   0.73434   0.57570   0.00000  Uiso   1.00
O806   O     0.52344   0.71066   0.62590   0.00000  Uiso   1.00
O807   O     0.47707   0.95605   0.37944   0.00000  Uiso   1.00
O808   O     0.42382   0.92964   0.42199   0.00000  Uiso   1.00
O809   O     0.56012   0.79375   0.50000   0.00000  Uiso   1.00
O810   O     0.56012   0.87291   0.50000   0.00000  Uiso   1.00
O811   O     0.43988   0.79375   0.50000   0.00000  Uiso   1.00
O812   O     0.50000   0.87292   0.42946   0.00000  Uiso   1.00
O813   O     0.50000   0.79375   0.57054   0.00000  Uiso   1.00
O814   O     0.50000   0.87292   0.57054   0.00000  Uiso   1.00
O815   O     0.50000   0.79375   0.42946   0.00000  Uiso   1.00
O816   O     0.41791   0.72940   0.43434   0.00000  Uiso   1.00
C817   C     0.75435   0.83382   0.50436   0.00000  Uiso   1.00
C818   C     0.68635   0.87600   0.49907   0.00000  Uiso   1.00
C819   C     0.95726   0.83182   0.49148   0.00000  Uiso   1.00
C820   C     0.70941   0.83486   0.50850   0.00000  Uiso   1.00
C821   C     0.81215   0.69203   0.46355   0.00000  Uiso   1.00
C822   C     0.85433   0.97469   0.53663   0.00000  Uiso   1.00
C823   C     0.85387   0.69067   0.53702   0.00000  Uiso   1.00
C824   C     0.81309   0.97606   0.46274   0.00000  Uiso   1.00
C825   C     0.78617   0.71678   0.42540   0.00000  Uiso   1.00
C826   C     0.87997   0.95002   0.57516   0.00000  Uiso   1.00
C827   C     0.87409   0.71384   0.57988   0.00000  Uiso   1.00
C828   C     0.91232   0.83285   0.49563   0.00000  Uiso   1.00
C829   C     0.79406   0.95311   0.41898   0.00000  Uiso   1.00
C830   C     0.83319   0.83342   0.40702   0.00000  Uiso   1.00
C831   C     0.83346   0.83325   0.59298   0.00000  Uiso   1.00
C832   C     0.83328   0.83346   0.35523   0.00000  Uiso   1.00
C833   C     0.83337   0.83322   0.64477   0.00000  Uiso   1.00
C834   C     0.68879   0.79308   0.51444   0.00000  Uiso   1.00
C835   C     0.97789   0.87359   0.48552   0.00000  Uiso   1.00
C836   C     0.98033   0.79068   0.50090   0.00000  Uiso   1.00
Cu837  Cu    0.83333   0.88022   0.50000   0.00000  Uiso   1.00
Cu838  Cu    0.83333   0.78645   0.50000   0.00000  Uiso   1.00
H839   H     0.77941   0.73832   0.35460   0.00000  Uiso   1.00
H840   H     0.93506   0.92068   0.59518   0.00000  Uiso   1.00
H841   H     0.87343   0.72731   0.65268   0.00000  Uiso   1.00
H842   H     0.74744   0.91577   0.38933   0.00000  Uiso   1.00
I843   I     0.71669   0.73731   0.55724   0.00000  Uiso   1.00
I844   I     0.95002   0.92928   0.44258   0.00000  Uiso   1.00
I845   I     0.95809   0.72445   0.47909   0.00000  Uiso   1.00
I846   I     0.70862   0.94226   0.52073   0.00000  Uiso   1.00
N847   N     0.83333   0.95069   0.50000   0.00000  Uiso   1.00
N848   N     0.83333   0.71598   0.50000   0.00000  Uiso   1.00
O849   O     0.77321   0.87291   0.50000   0.00000  Uiso   1.00
O850   O     0.80034   0.72203   0.37791   0.00000  Uiso   1.00
O851   O     0.86711   0.94521   0.61646   0.00000  Uiso   1.00
O852   O     0.92020   0.93619   0.56565   0.00000  Uiso   1.00
O853   O     0.90623   0.73434   0.57570   0.00000  Uiso   1.00
O854   O     0.85678   0.71066   0.62590   0.00000  Uiso   1.00
O855   O     0.81040   0.95605   0.37944   0.00000  Uiso   1.00
O856   O     0.75715   0.92964   0.42199   0.00000  Uiso   1.00
O857   O     0.89345   0.79375   0.50000   0.00000  Uiso   1.00
O858   O     0.89345   0.87291   0.50000   0.00000  Uiso   1.00
O859   O     0.77321   0.79375   0.50000   0.00000  Uiso   1.00
O860   O     0.83333   0.87292   0.42946   0.00000  Uiso   1.00
O861   O     0.83333   0.79375   0.57054   0.00000  Uiso   1.00
O862   O     0.83333   0.87292   0.57054   0.00000  Uiso   1.00
O863   O     0.83333   0.79375   0.42946   0.00000  Uiso   1.00
O864   O     0.75124   0.72940   0.43434   0.00000  Uiso   1.00
C865   C     0.08768   0.16716   0.83770   0.00000  Uiso   1.00
C866   C     0.01968   0.20933   0.83241   0.00000  Uiso   1.00
C867   C     0.29059   0.16515   0.82482   0.00000  Uiso   1.00
C868   C     0.04275   0.16819   0.84183   0.00000  Uiso   1.00
C869   C     0.14548   0.02537   0.79689   0.00000  Uiso   1.00
C870   C     0.18766   0.30802   0.86996   0.00000  Uiso   1.00
C871   C     0.18720   0.02400   0.87035   0.00000  Uiso   1.00
C872   C     0.14642   0.30939   0.79608   0.00000  Uiso   1.00
C873   C     0.11950   0.05012   0.75873   0.00000  Uiso   1.00
C874   C     0.21331   0.28335   0.90850   0.00000  Uiso   1.00
C875   C     0.20743   0.04718   0.91321   0.00000  Uiso   1.00
C876   C     0.24566   0.16618   0.82896   0.00000  Uiso   1.00
C877   C     0.12739   0.28644   0.75231   0.00000  Uiso   1.00
C878   C     0.16653   0.16675   0.74035   0.00000  Uiso   1.00
C879   C     0.16680   0.16658   0.92632   0.00000  Uiso   1.00
C880   C     0.16661   0.16679   0.68856   0.00000  Uiso   1.00
C881   C     0.16670   0.16655   0.97811   0.00000  Uiso   1.00
C882   C     0.02212   0.12641   0.84777   0.00000  Uiso   1.00
C883   C     0.31122   0.20692   0.81885   0.00000  Uiso   1.00
C884   C     0.31366   0.12401   0.83423   0.00000  Uiso   1.00
Cu885  Cu    0.16667   0.21355   0.83333   0.00000  Uiso   1.00
Cu886  Cu    0.16667   0.11978   0.83333   0.00000  Uiso   1.00
H887   H     0.11274   0.07165   0.68794   0.00000  Uiso   1.00
H888   H     0.26839   0.25401   0.92851   0.00000  Uiso   1.00
H889   H     0.20676   0.06064   0.98601   0.00000  Uiso   1.00
H890   H     0.08078   0.24910   0.72266   0.00000  Uiso   1.00
I891   I     0.05002   0.07065   0.89057   0.00000  Uiso   1.00
I892   I     0.28335   0.26261   0.77592   0.00000  Uiso   1.00
I893   I     0.29143   0.05779   0.81243   0.00000  Uiso   1.00
I894   I     0.04196   0.27560   0.85407   0.00000  Uiso   1.00
N895   N     0.16667   0.28402   0.83333   0.00000  Uiso   1.00
N896   N     0.16667   0.04931   0.83333   0.00000  Uiso   1.00
O897   O     0.10655   0.20625   0.83333   0.00000  Uiso   1.00
O898   O     0.13367   0.05537   0.71125   0.00000  Uiso   1.00
O899   O     0.20045   0.27855   0.94979   0.00000  Uiso   1.00
O900   O     0.25354   0.26953   0.89898   0.00000  Uiso   1.00
O901   O     0.23956   0.06767   0.90904   0.00000  Uiso   1.00
O902   O     0.19011   0.04399   0.95924   0.00000  Uiso   1.00
O903   O     0.14374   0.28938   0.71278   0.00000  Uiso   1.00
O904   O     0.09048   0.26297   0.75532   0.00000  Uiso   1.00
O905   O     0.22679   0.12709   0.83334   0.00000  Uiso   1.00
O906   O     0.22679   0.20625   0.83334   0.00000  Uiso   1.00
O907   O     0.10655   0.12709   0.83333   0.00000  Uiso   1.00
O908   O     0.16667   0.20625   0.76280   0.00000  Uiso   1.00
O909   O     0.16667   0.12708   0.90387   0.00000  Uiso   1.00
O910   O     0.16667   0.20625   0.90387   0.00000  Uiso   1.00
O911   O     0.16667   0.12708   0.76280   0.00000  Uiso   1.00
O912   O     0.08458   0.06273   0.76768   0.00000  Uiso   1.00
C913   C     0.42101   0.16716   0.83770   0.00000  Uiso   1.00
C914   C     0.35301   0.20933   0.83241   0.00000  Uiso   1.00
C915   C     0.62392   0.16515   0.82482   0.00000  Uiso   1.00
C916   C     0.37608   0.16819   0.84183   0.00000  Uiso   1.00
C917   C     0.47882   0.02537   0.79689   0.00000  Uiso   1.00
C918   C     0.52100   0.30802   0.86996   0.00000  Uiso   1.00
C919   C     0.52053   0.02400   0.87035   0.00000  Uiso   1.00
C920   C     0.47975   0.30939   0.79608   0.00000  Uiso   1.00
C921   C     0.45284   0.05012   0.75873   0.00000  Uiso   1.00
C922   C     0.54664   0.28335   0.90850   0.00000  Uiso   1.00
C923   C     0.54076   0.04718   0.91321   0.00000  Uiso   1.00
C924   C     0.57899   0.16618   0.82896   0.00000  Uiso   1.00
C925   C     0.46072   0.28644   0.75231   0.00000  Uiso   1.00
C926   C     0.49986   0.16675   0.74035   0.00000  Uiso   1.00
C927   C     0.50013   0.16658   0.92632   0.00000  Uiso   1.00
C928   C     0.49995   0.16679   0.68856   0.00000  Uiso   1.00
C929   C     0.50004   0.16655   0.97811   0.00000  Uiso   1.00
C930   C     0.35545   0.12641   0.84777   0.00000  Uiso   1.00
C931   C     0.64456   0.20692   0.81885   0.00000  Uiso   1.00
C932   C     0.64699   0.12401   0.83423   0.00000  Uiso   1.00
Cu933  Cu    0.50000   0.21355   0.83333   0.00000  Uiso   1.00
Cu934  Cu    0.50000   0.11978   0.83333   0.00000  Uiso   1.00
H935   H     0.44608   0.07165   0.68794   0.00000  Uiso   1.00
H936   H     0.60173   0.25401   0.92851   0.00000  Uiso   1.00
H937   H     0.54009   0.06064   0.98601   0.00000  Uiso   1.00
H938   H     0.41411   0.24910   0.72266   0.00000  Uiso   1.00
I939   I     0.38335   0.07065   0.89057   0.00000  Uiso   1.00
I940   I     0.61669   0.26261   0.77592   0.00000  Uiso   1.00
I941   I     0.62476   0.05779   0.81243   0.00000  Uiso   1.00
I942   I     0.37529   0.27560   0.85407   0.00000  Uiso   1.00
N943   N     0.50000   0.28402   0.83333   0.00000  Uiso   1.00
N944   N     0.50000   0.04931   0.83333   0.00000  Uiso   1.00
O945   O     0.43988   0.20625   0.83333   0.00000  Uiso   1.00
O946   O     0.46701   0.05537   0.71125   0.00000  Uiso   1.00
O947   O     0.53378   0.27855   0.94979   0.00000  Uiso   1.00
O948   O     0.58687   0.26953   0.89898   0.00000  Uiso   1.00
O949   O     0.57290   0.06767   0.90904   0.00000  Uiso   1.00
O950   O     0.52344   0.04399   0.95924   0.00000  Uiso   1.00
O951   O     0.47707   0.28938   0.71278   0.00000  Uiso   1.00
O952   O     0.42382   0.26297   0.75532   0.00000  Uiso   1.00
O953   O     0.56012   0.12709   0.83334   0.00000  Uiso   1.00
O954   O     0.56012   0.20625   0.83334   0.00000  Uiso   1.00
O955   O     0.43988   0.12709   0.83333   0.00000  Uiso   1.00
O956   O     0.50000   0.20625   0.76280   0.00000  Uiso   1.00
O957   O     0.50000   0.12708   0.90387   0.00000  Uiso   1.00
O958   O     0.50000   0.20625   0.90387   0.00000  Uiso   1.00
O959   O     0.50000   0.12708   0.76280   0.00000  Uiso   1.00
O960   O     0.41791   0.06273   0.76768   0.00000  Uiso   1.00
C961   C     0.75435   0.16716   0.83770   0.00000  Uiso   1.00
C962   C     0.68635   0.20933   0.83241   0.00000  Uiso   1.00
C963   C     0.95726   0.16515   0.82482   0.00000  Uiso   1.00
C964   C     0.70941   0.16819   0.84183   0.00000  Uiso   1.00
C965   C     0.81215   0.02537   0.79689   0.00000  Uiso   1.00
C966   C     0.85433   0.30802   0.86996   0.00000  Uiso   1.00
C967   C     0.85387   0.02400   0.87035   0.00000  Uiso   1.00
C968   C     0.81309   0.30939   0.79608   0.00000  Uiso   1.00
C969   C     0.78617   0.05012   0.75873   0.00000  Uiso   1.00
C970   C     0.87997   0.28335   0.90850   0.00000  Uiso   1.00
C971   C     0.87409   0.04718   0.91321   0.00000  Uiso   1.00
C972   C     0.91232   0.16618   0.82896   0.00000  Uiso   1.00
C973   C     0.79406   0.28644   0.75231   0.00000  Uiso   1.00
C974   C     0.83319   0.16675   0.74035   0.00000  Uiso   1.00
C975   C     0.83346   0.16658   0.92632   0.00000  Uiso   1.00
C976   C     0.83328   0.16679   0.68856   0.00000  Uiso   1.00
C977   C     0.83337   0.16655   0.97811   0.00000  Uiso   1.00
C978   C     0.68879   0.12641   0.84777   0.00000  Uiso   1.00
C979   C     0.97789   0.20692   0.81885   0.00000  Uiso   1.00
C980   C     0.98033   0.12401   0.83423   0.00000  Uiso   1.00
Cu981  Cu    0.83333   0.21355   0.83333   0.00000  Uiso   1.00
Cu982  Cu    0.83333   0.11978   0.83333   0.00000  Uiso   1.00
H983   H     0.77941   0.07165   0.68794   0.00000  Uiso   1.00
H984   H     0.93506   0.25401   0.92851   0.00000  Uiso   1.00
H985   H     0.87343   0.06064   0.98601   0.00000  Uiso   1.00
H986   H     0.74744   0.24910   0.72266   0.00000  Uiso   1.00
I987   I     0.71669   0.07065   0.89057   0.00000  Uiso   1.00
I988   I     0.95002   0.26261   0.77592   0.00000  Uiso   1.00
I989   I     0.95809   0.05779   0.81243   0.00000  Uiso   1.00
I990   I     0.70862   0.27560   0.85407   0.00000  Uiso   1.00
N991   N     0.83333   0.28402   0.83333   0.00000  Uiso   1.00
N992   N     0.83333   0.04931   0.83333   0.00000  Uiso   1.00
O993   O     0.77321   0.20625   0.83333   0.00000  Uiso   1.00
O994   O     0.80034   0.05537   0.71125   0.00000  Uiso   1.00
O995   O     0.86711   0.27855   0.94979   0.00000  Uiso   1.00
O996   O     0.92020   0.26953   0.89898   0.00000  Uiso   1.00
O997   O     0.90623   0.06767   0.90904   0.00000  Uiso   1.00
O998   O     0.85678   0.04399   0.95924   0.00000  Uiso   1.00
O999   O     0.81040   0.28938   0.71278   0.00000  Uiso   1.00
O1000  O     0.75715   0.26297   0.75532   0.00000  Uiso   1.00
O1001  O     0.89345   0.12709   0.83334   0.00000  Uiso   1.00
O1002  O     0.89345   0.20625   0.83334   0.00000  Uiso   1.00
O1003  O     0.77321   0.12709   0.83333   0.00000  Uiso   1.00
O1004  O     0.83333   0.20625   0.76280   0.00000  Uiso   1.00
O1005  O     0.83333   0.12708   0.90387   0.00000  Uiso   1.00
O1006  O     0.83333   0.20625   0.90387   0.00000  Uiso   1.00
O1007  O     0.83333   0.12708   0.76280   0.00000  Uiso   1.00
O1008  O     0.75124   0.06273   0.76768   0.00000  Uiso   1.00
C1009  C     0.08768   0.50049   0.83770   0.00000  Uiso   1.00
C1010  C     0.01968   0.54267   0.83241   0.00000  Uiso   1.00
C1011  C     0.29059   0.49849   0.82482   0.00000  Uiso   1.00
C1012  C     0.04275   0.50152   0.84183   0.00000  Uiso   1.00
C1013  C     0.14548   0.35870   0.79689   0.00000  Uiso   1.00
C1014  C     0.18766   0.64135   0.86996   0.00000  Uiso   1.00
C1015  C     0.18720   0.35734   0.87035   0.00000  Uiso   1.00
C1016  C     0.14642   0.64273   0.79608   0.00000  Uiso   1.00
C1017  C     0.11950   0.38345   0.75873   0.00000  Uiso   1.00
C1018  C     0.21331   0.61669   0.90850   0.00000  Uiso   1.00
C1019  C     0.20743   0.38051   0.91321   0.00000  Uiso   1.00
C1020  C     0.24566   0.49951   0.82896   0.00000  Uiso   1.00
C1021  C     0.12739   0.61978   0.75231   0.00000  Uiso   1.00
C1022  C     0.16653   0.50009   0.74035   0.00000  Uiso   1.00
C1023  C     0.16680   0.49992   0.92632   0.00000  Uiso   1.00
C1024  C     0.16661   0.50012   0.68856   0.00000  Uiso   1.00
C1025  C     0.16670   0.49989   0.97811   0.00000  Uiso   1.00
C1026  C     0.02212   0.45975   0.84777   0.00000  Uiso   1.00
C1027  C     0.31122   0.54026   0.81885   0.00000  Uiso   1.00
C1028  C     0.31366   0.45735   0.83423   0.00000  Uiso   1.00
Cu1029 Cu    0.16667   0.54689   0.83333   0.00000  Uiso   1.00
Cu1030 Cu    0.16667   0.45311   0.83333   0.00000  Uiso   1.00
H1031  H     0.11274   0.40498   0.68794   0.00000  Uiso   1.00
H1032  H     0.26839   0.58734   0.92851   0.00000  Uiso   1.00
H1033  H     0.20676   0.39397   0.98601   0.00000  Uiso   1.00
H1034  H     0.08078   0.58244   0.72266   0.00000  Uiso   1.00
I1035  I     0.05002   0.40398   0.89057   0.00000  Uiso   1.00
I1036  I     0.28335   0.59595   0.77592   0.00000  Uiso   1.00
I1037  I     0.29143   0.39112   0.81243   0.00000  Uiso   1.00
I1038  I     0.04196   0.60893   0.85407   0.00000  Uiso   1.00
N1039  N     0.16667   0.61736   0.83333   0.00000  Uiso   1.00
N1040  N     0.16667   0.38264   0.83333   0.00000  Uiso   1.00
O1041  O     0.10655   0.53958   0.83333   0.00000  Uiso   1.00
O1042  O     0.13367   0.38870   0.71125   0.00000  Uiso   1.00
O1043  O     0.20045   0.61188   0.94979   0.00000  Uiso   1.00
O1044  O     0.25354   0.60286   0.89898   0.00000  Uiso   1.00
O1045  O     0.23956   0.40100   0.90904   0.00000  Uiso   1.00
O1046  O     0.19011   0.37733   0.95924   0.00000  Uiso   1.00
O1047  O     0.14374   0.62272   0.71278   0.00000  Uiso   1.00
O1048  O     0.09048   0.59631   0.75532   0.00000  Uiso   1.00
O1049  O     0.22679   0.46042   0.83334   0.00000  Uiso   1.00
O1050  O     0.22679   0.53958   0.83334   0.00000  Uiso   1.00
O1051  O     0.10655   0.46042   0.83333   0.00000  Uiso   1.00
O1052  O     0.16667   0.53959   0.76280   0.00000  Uiso   1.00
O1053  O     0.16667   0.46041   0.90387   0.00000  Uiso   1.00
O1054  O     0.16667   0.53959   0.90387   0.00000  Uiso   1.00
O1055  O     0.16667   0.46041   0.76280   0.00000  Uiso   1.00
O1056  O     0.08458   0.39607   0.76768   0.00000  Uiso   1.00
C1057  C     0.42101   0.50049   0.83770   0.00000  Uiso   1.00
C1058  C     0.35301   0.54267   0.83241   0.00000  Uiso   1.00
C1059  C     0.62392   0.49849   0.82482   0.00000  Uiso   1.00
C1060  C     0.37608   0.50152   0.84183   0.00000  Uiso   1.00
C1061  C     0.47882   0.35870   0.79689   0.00000  Uiso   1.00
C1062  C     0.52100   0.64135   0.86996   0.00000  Uiso   1.00
C1063  C     0.52053   0.35734   0.87035   0.00000  Uiso   1.00
C1064  C     0.47975   0.64273   0.79608   0.00000  Uiso   1.00
C1065  C     0.45284   0.38345   0.75873   0.00000  Uiso   1.00
C1066  C     0.54664   0.61669   0.90850   0.00000  Uiso   1.00
C1067  C     0.54076   0.38051   0.91321   0.00000  Uiso   1.00
C1068  C     0.57899   0.49951   0.82896   0.00000  Uiso   1.00
C1069  C     0.46072   0.61978   0.75231   0.00000  Uiso   1.00
C1070  C     0.49986   0.50009   0.74035   0.00000  Uiso   1.00
C1071  C     0.50013   0.49992   0.92632   0.00000  Uiso   1.00
C1072  C     0.49995   0.50012   0.68856   0.00000  Uiso   1.00
C1073  C     0.50004   0.49989   0.97811   0.00000  Uiso   1.00
C1074  C     0.35545   0.45975   0.84777   0.00000  Uiso   1.00
C1075  C     0.64456   0.54026   0.81885   0.00000  Uiso   1.00
C1076  C     0.64699   0.45735   0.83423   0.00000  Uiso   1.00
Cu1077 Cu    0.50000   0.54689   0.83333   0.00000  Uiso   1.00
Cu1078 Cu    0.50000   0.45311   0.83333   0.00000  Uiso   1.00
H1079  H     0.44608   0.40498   0.68794   0.00000  Uiso   1.00
H1080  H     0.60173   0.58734   0.92851   0.00000  Uiso   1.00
H1081  H     0.54009   0.39397   0.98601   0.00000  Uiso   1.00
H1082  H     0.41411   0.58244   0.72266   0.00000  Uiso   1.00
I1083  I     0.38335   0.40398   0.89057   0.00000  Uiso   1.00
I1084  I     0.61669   0.59595   0.77592   0.00000  Uiso   1.00
I1085  I     0.62476   0.39112   0.81243   0.00000  Uiso   1.00
I1086  I     0.37529   0.60893   0.85407   0.00000  Uiso   1.00
N1087  N     0.50000   0.61736   0.83333   0.00000  Uiso   1.00
N1088  N     0.50000   0.38264   0.83333   0.00000  Uiso   1.00
O1089  O     0.43988   0.53958   0.83333   0.00000  Uiso   1.00
O1090  O     0.46701   0.38870   0.71125   0.00000  Uiso   1.00
O1091  O     0.53378   0.61188   0.94979   0.00000  Uiso   1.00
O1092  O     0.58687   0.60286   0.89898   0.00000  Uiso   1.00
O1093  O     0.57290   0.40100   0.90904   0.00000  Uiso   1.00
O1094  O     0.52344   0.37733   0.95924   0.00000  Uiso   1.00
O1095  O     0.47707   0.62272   0.71278   0.00000  Uiso   1.00
O1096  O     0.42382   0.59631   0.75532   0.00000  Uiso   1.00
O1097  O     0.56012   0.46042   0.83334   0.00000  Uiso   1.00
O1098  O     0.56012   0.53958   0.83334   0.00000  Uiso   1.00
O1099  O     0.43988   0.46042   0.83333   0.00000  Uiso   1.00
O1100  O     0.50000   0.53959   0.76280   0.00000  Uiso   1.00
O1101  O     0.50000   0.46041   0.90387   0.00000  Uiso   1.00
O1102  O     0.50000   0.53959   0.90387   0.00000  Uiso   1.00
O1103  O     0.50000   0.46041   0.76280   0.00000  Uiso   1.00
O1104  O     0.41791   0.39607   0.76768   0.00000  Uiso   1.00
C1105  C     0.75435   0.50049   0.83770   0.00000  Uiso   1.00
C1106  C     0.68635   0.54267   0.83241   0.00000  Uiso   1.00
C1107  C     0.95726   0.49849   0.82482   0.00000  Uiso   1.00
C1108  C     0.70941   0.50152   0.84183   0.00000  Uiso   1.00
C1109  C     0.81215   0.35870   0.79689   0.00000  Uiso   1.00
C1110  C     0.85433   0.64135   0.86996   0.00000  Uiso   1.00
C1111  C     0.85387   0.35734   0.87035   0.00000  Uiso   1.00
C1112  C     0.81309   0.64273   0.79608   0.00000  Uiso   1.00
C1113  C     0.78617   0.38345   0.75873   0.00000  Uiso   1.00
C1114  C     0.87997   0.61669   0.90850   0.00000  Uiso   1.00
C1115  C     0.87409   0.38051   0.91321   0.00000  Uiso   1.00
C1116  C     0.91232   0.49951   0.82896   0.00000  Uiso   1.00
C1117  C     0.79406   0.61978   0.75231   0.00000  Uiso   1.00
C1118  C     0.83319   0.50009   0.74035   0.00000  Uiso   1.00
C1119  C     0.83346   0.49992   0.92632   0.00000  Uiso   1.00
C1120  C     0.83328   0.50012   0.68856   0.00000  Uiso   1.00
C1121  C     0.83337   0.49989   0.97811   0.00000  Uiso   1.00
C1122  C     0.68879   0.45975   0.84777   0.00000  Uiso   1.00
C1123  C     0.97789   0.54026   0.81885   0.00000  Uiso   1.00
C1124  C     0.98033   0.45735   0.83423   0.00000  Uiso   1.00
Cu1125 Cu    0.83333   0.54689   0.83333   0.00000  Uiso   1.00
Cu1126 Cu    0.83333   0.45311   0.83333   0.00000  Uiso   1.00
H1127  H     0.77941   0.40498   0.68794   0.00000  Uiso   1.00
H1128  H     0.93506   0.58734   0.92851   0.00000  Uiso   1.00
H1129  H     0.87343   0.39397   0.98601   0.00000  Uiso   1.00
H1130  H     0.74744   0.58244   0.72266   0.00000  Uiso   1.00
I1131  I     0.71669   0.40398   0.89057   0.00000  Uiso   1.00
I1132  I     0.95002   0.59595   0.77592   0.00000  Uiso   1.00
I1133  I     0.95809   0.39112   0.81243   0.00000  Uiso   1.00
I1134  I     0.70862   0.60893   0.85407   0.00000  Uiso   1.00
N1135  N     0.83333   0.61736   0.83333   0.00000  Uiso   1.00
N1136  N     0.83333   0.38264   0.83333   0.00000  Uiso   1.00
O1137  O     0.77321   0.53958   0.83333   0.00000  Uiso   1.00
O1138  O     0.80034   0.38870   0.71125   0.00000  Uiso   1.00
O1139  O     0.86711   0.61188   0.94979   0.00000  Uiso   1.00
O1140  O     0.92020   0.60286   0.89898   0.00000  Uiso   1.00
O1141  O     0.90623   0.40100   0.90904   0.00000  Uiso   1.00
O1142  O     0.85678   0.37733   0.95924   0.00000  Uiso   1.00
O1143  O     0.81040   0.62272   0.71278   0.00000  Uiso   1.00
O1144  O     0.75715   0.59631   0.75532   0.00000  Uiso   1.00
O1145  O     0.89345   0.46042   0.83334   0.00000  Uiso   1.00
O1146  O     0.89345   0.53958   0.83334   0.00000  Uiso   1.00
O1147  O     0.77321   0.46042   0.83333   0.00000  Uiso   1.00
O1148  O     0.83333   0.53959   0.76280   0.00000  Uiso   1.00
O1149  O     0.83333   0.46041   0.90387   0.00000  Uiso   1.00
O1150  O     0.83333   0.53959   0.90387   0.00000  Uiso   1.00
O1151  O     0.83333   0.46041   0.76280   0.00000  Uiso   1.00
O1152  O     0.75124   0.39607   0.76768   0.00000  Uiso   1.00
C1153  C     0.08768   0.83382   0.83770   0.00000  Uiso   1.00
C1154  C     0.01968   0.87600   0.83241   0.00000  Uiso   1.00
C1155  C     0.29059   0.83182   0.82482   0.00000  Uiso   1.00
C1156  C     0.04275   0.83486   0.84183   0.00000  Uiso   1.00
C1157  C     0.14548   0.69203   0.79689   0.00000  Uiso   1.00
C1158  C     0.18766   0.97469   0.86996   0.00000  Uiso   1.00
C1159  C     0.18720   0.69067   0.87035   0.00000  Uiso   1.00
C1160  C     0.14642   0.97606   0.79608   0.00000  Uiso   1.00
C1161  C     0.11950   0.71678   0.75873   0.00000  Uiso   1.00
C1162  C     0.21331   0.95002   0.90850   0.00000  Uiso   1.00
C1163  C     0.20743   0.71384   0.91321   0.00000  Uiso   1.00
C1164  C     0.24566   0.83285   0.82896   0.00000  Uiso   1.00
C1165  C     0.12739   0.95311   0.75231   0.00000  Uiso   1.00
C1166  C     0.16653   0.83342   0.74035   0.00000  Uiso   1.00
C1167  C     0.16680   0.83325   0.92632   0.00000  Uiso   1.00
C1168  C     0.16661   0.83346   0.68856   0.00000  Uiso   1.00
C1169  C     0.16670   0.83322   0.97811   0.00000  Uiso   1.00
C1170  C     0.02212   0.79308   0.84777   0.00000  Uiso   1.00
C1171  C     0.31122   0.87359   0.81885   0.00000  Uiso   1.00
C1172  C     0.31366   0.79068   0.83423   0.00000  Uiso   1.00
Cu1173 Cu    0.16667   0.88022   0.83333   0.00000  Uiso   1.00
Cu1174 Cu    0.16667   0.78645   0.83333   0.00000  Uiso   1.00
H1175  H     0.11274   0.73832   0.68794   0.00000  Uiso   1.00
H1176  H     0.26839   0.92068   0.92851   0.00000  Uiso   1.00
H1177  H     0.20676   0.72731   0.98601   0.00000  Uiso   1.00
H1178  H     0.08078   0.91577   0.72266   0.00000  Uiso   1.00
I1179  I     0.05002   0.73731   0.89057   0.00000  Uiso   1.00
I1180  I     0.28335   0.92928   0.77592   0.00000  Uiso   1.00
I1181  I     0.29143   0.72445   0.81243   0.00000  Uiso   1.00
I1182  I     0.04196   0.94226   0.85407   0.00000  Uiso   1.00
N1183  N     0.16667   0.95069   0.83333   0.00000  Uiso   1.00
N1184  N     0.16667   0.71598   0.83333   0.00000  Uiso   1.00
O1185  O     0.10655   0.87291   0.83333   0.00000  Uiso   1.00
O1186  O     0.13367   0.72203   0.71125   0.00000  Uiso   1.00
O1187  O     0.20045   0.94521   0.94979   0.00000  Uiso   1.00
O1188  O     0.25354   0.93619   0.89898   0.00000  Uiso   1.00
O1189  O     0.23956   0.73434   0.90904   0.00000  Uiso   1.00
O1190  O     0.19011   0.71066   0.95924   0.00000  Uiso   1.00
O1191  O     0.14374   0.95605   0.71278   0.00000  Uiso   1.00
O1192  O     0.09048   0.92964   0.75532   0.00000  Uiso   1.00
O1193  O     0.22679   0.79375   0.83334   0.00000  Uiso   1.00
O1194  O     0.22679   0.87291   0.83334   0.00000  Uiso   1.00
O1195  O     0.10655   0.79375   0.83333   0.00000  Uiso   1.00
O1196  O     0.16667   0.87292   0.76280   0.00000  Uiso   1.00
O1197  O     0.16667   0.79375   0.90387   0.00000  Uiso   1.00
O1198  O     0.16667   0.87292   0.90387   0.00000  Uiso   1.00
O1199  O     0.16667   0.79375   0.76280   0.00000  Uiso   1.00
O1200  O     0.08458   0.72940   0.76768   0.00000  Uiso   1.00
C1201  C     0.42101   0.83382   0.83770   0.00000  Uiso   1.00
C1202  C     0.35301   0.87600   0.83241   0.00000  Uiso   1.00
C1203  C     0.62392   0.83182   0.82482   0.00000  Uiso   1.00
C1204  C     0.37608   0.83486   0.84183   0.00000  Uiso   1.00
C1205  C     0.47882   0.69203   0.79689   0.00000  Uiso   1.00
C1206  C     0.52100   0.97469   0.86996   0.00000  Uiso   1.00
C1207  C     0.52053   0.69067   0.87035   0.00000  Uiso   1.00
C1208  C     0.47975   0.97606   0.79608   0.00000  Uiso   1.00
C1209  C     0.45284   0.71678   0.75873   0.00000  Uiso   1.00
C1210  C     0.54664   0.95002   0.90850   0.00000  Uiso   1.00
C1211  C     0.54076   0.71384   0.91321   0.00000  Uiso   1.00
C1212  C     0.57899   0.83285   0.82896   0.00000  Uiso   1.00
C1213  C     0.46072   0.95311   0.75231   0.00000  Uiso   1.00
C1214  C     0.49986   0.83342   0.74035   0.00000  Uiso   1.00
C1215  C     0.50013   0.83325   0.92632   0.00000  Uiso   1.00
C1216  C     0.49995   0.83346   0.68856   0.00000  Uiso   1.00
C1217  C     0.50004   0.83322   0.97811   0.00000  Uiso   1.00
C1218  C     0.35545   0.79308   0.84777   0.00000  Uiso   1.00
C1219  C     0.64456   0.87359   0.81885   0.00000  Uiso   1.00
C1220  C     0.64699   0.79068   0.83423   0.00000  Uiso   1.00
Cu1221 Cu    0.50000   0.88022   0.83333   0.00000  Uiso   1.00
Cu1222 Cu    0.50000   0.78645   0.83333   0.00000  Uiso   1.00
H1223  H     0.44608   0.73832   0.68794   0.00000  Uiso   1.00
H1224  H     0.60173   0.92068   0.92851   0.00000  Uiso   1.00
H1225  H     0.54009   0.72731   0.98601   0.00000  Uiso   1.00
H1226  H     0.41411   0.91577   0.72266   0.00000  Uiso   1.00
I1227  I     0.38335   0.73731   0.89057   0.00000  Uiso   1.00
I1228  I     0.61669   0.92928   0.77592   0.00000  Uiso   1.00
I1229  I     0.62476   0.72445   0.81243   0.00000  Uiso   1.00
I1230  I     0.37529   0.94226   0.85407   0.00000  Uiso   1.00
N1231  N     0.50000   0.95069   0.83333   0.00000  Uiso   1.00
N1232  N     0.50000   0.71598   0.83333   0.00000  Uiso   1.00
O1233  O     0.43988   0.87291   0.83333   0.00000  Uiso   1.00
O1234  O     0.46701   0.72203   0.71125   0.00000  Uiso   1.00
O1235  O     0.53378   0.94521   0.94979   0.00000  Uiso   1.00
O1236  O     0.58687   0.93619   0.89898   0.00000  Uiso   1.00
O1237  O     0.57290   0.73434   0.90904   0.00000  Uiso   1.00
O1238  O     0.52344   0.71066   0.95924   0.00000  Uiso   1.00
O1239  O     0.47707   0.95605   0.71278   0.00000  Uiso   1.00
O1240  O     0.42382   0.92964   0.75532   0.00000  Uiso   1.00
O1241  O     0.56012   0.79375   0.83334   0.00000  Uiso   1.00
O1242  O     0.56012   0.87291   0.83334   0.00000  Uiso   1.00
O1243  O     0.43988   0.79375   0.83333   0.00000  Uiso   1.00
O1244  O     0.50000   0.87292   0.76280   0.00000  Uiso   1.00
O1245  O     0.50000   0.79375   0.90387   0.00000  Uiso   1.00
O1246  O     0.50000   0.87292   0.90387   0.00000  Uiso   1.00
O1247  O     0.50000   0.79375   0.76280   0.00000  Uiso   1.00
O1248  O     0.41791   0.72940   0.76768   0.00000  Uiso   1.00
C1249  C     0.75435   0.83382   0.83770   0.00000  Uiso   1.00
C1250  C     0.68635   0.87600   0.83241   0.00000  Uiso   1.00
C1251  C     0.95726   0.83182   0.82482   0.00000  Uiso   1.00
C1252  C     0.70941   0.83486   0.84183   0.00000  Uiso   1.00
C1253  C     0.81215   0.69203   0.79689   0.00000  Uiso   1.00
C1254  C     0.85433   0.97469   0.86996   0.00000  Uiso   1.00
C1255  C     0.85387   0.69067   0.87035   0.00000  Uiso   1.00
C1256  C     0.81309   0.97606   0.79608   0.00000  Uiso   1.00
C1257  C     0.78617   0.71678   0.75873   0.00000  Uiso   1.00
C1258  C     0.87997   0.95002   0.90850   0.00000  Uiso   1.00
C1259  C     0.87409   0.71384   0.91321   0.00000  Uiso   1.00
C1260  C     0.91232   0.83285   0.82896   0.00000  Uiso   1.00
C1261  C     0.79406   0.95311   0.75231   0.00000  Uiso   1.00
C1262  C     0.83319   0.83342   0.74035   0.00000  Uiso   1.00
C1263  C     0.83346   0.83325   0.92632   0.00000  Uiso   1.00
C1264  C     0.83328   0.83346   0.68856   0.00000  Uiso   1.00
C1265  C     0.83337   0.83322   0.97811   0.00000  Uiso   1.00
C1266  C     0.68879   0.79308   0.84777   0.00000  Uiso   1.00
C1267  C     0.97789   0.87359   0.81885   0.00000  Uiso   1.00
C1268  C     0.98033   0.79068   0.83423   0.00000  Uiso   1.00
Cu1269 Cu    0.83333   0.88022   0.83333   0.00000  Uiso   1.00
Cu1270 Cu    0.83333   0.78645   0.83333   0.00000  Uiso   1.00
H1271  H     0.77941   0.73832   0.68794   0.00000  Uiso   1.00
H1272  H     0.93506   0.92068   0.92851   0.00000  Uiso   1.00
H1273  H     0.87343   0.72731   0.98601   0.00000  Uiso   1.00
H1274  H     0.74744   0.91577   0.72266   0.00000  Uiso   1.00
I1275  I     0.71669   0.73731   0.89057   0.00000  Uiso   1.00
I1276  I     0.95002   0.92928   0.77592   0.00000  Uiso   1.00
I1277  I     0.95809   0.72445   0.81243   0.00000  Uiso   1.00
I1278  I     0.70862   0.94226   0.85407   0.00000  Uiso   1.00
N1279  N     0.83333   0.95069   0.83333   0.00000  Uiso   1.00
N1280  N     0.83333   0.71598   0.83333   0.00000  Uiso   1.00
O1281  O     0.77321   0.87291   0.83333   0.00000  Uiso   1.00
O1282  O     0.80034   0.72203   0.71125   0.00000  Uiso   1.00
O1283  O     0.86711   0.94521   0.94979   0.00000  Uiso   1.00
O1284  O     0.92020   0.93619   0.89898   0.00000  Uiso   1.00
O1285  O     0.90623   0.73434   0.90904   0.00000  Uiso   1.00
O1286  O     0.85678   0.71066   0.95924   0.00000  Uiso   1.00
O1287  O     0.81040   0.95605   0.71278   0.00000  Uiso   1.00
O1288  O     0.75715   0.92964   0.75532   0.00000  Uiso   1.00
O1289  O     0.89345   0.79375   0.83334   0.00000  Uiso   1.00
O1290  O     0.89345   0.87291   0.83334   0.00000  Uiso   1.00
O1291  O     0.77321   0.79375   0.83333   0.00000  Uiso   1.00
O1292  O     0.83333   0.87292   0.76280   0.00000  Uiso   1.00
O1293  O     0.83333   0.79375   0.90387   0.00000  Uiso   1.00
O1294  O     0.83333   0.87292   0.90387   0.00000  Uiso   1.00
O1295  O     0.83333   0.79375   0.76280   0.00000  Uiso   1.00
O1296  O     0.75124   0.72940   0.76768   0.00000  Uiso   1.00
loop_
_geom_bond_atom_site_label_1
_geom_bond_atom_site_label_2
_geom_bond_distance
_geom_bond_site_symmetry_2
_ccdc_geom_bond_type
C1     C4      1.469   .     S
C1     O33     1.305   .     A
C1     O43     1.312   .     A
C2     C4      1.412   .     A
C2     I30     2.139   .     S
C2     C115    1.392   1_455 S
C3     C19     1.406   .     A
C3     C20     1.412   .     A
C3     C12     1.469   .     S
C4     C18     1.406   .     A
C5     C9      1.478   .     S
C5     N32     1.376   .     A
C5     C296    1.429   1_545 S
C6     C10     1.478   .     S
C6     N31     1.377   .     A
C6     C151    1.429   .     S
C7     N32     1.379   .     A
C7     C11     1.478   .     S
C7     C294    1.429   1_545 S
C8     N31     1.380   .     A
C8     C13     1.479   .     S
C8     C149    1.429   .     S
C9     O34     1.398   .     S
C9     O48     1.221   .     D
C10    O35     1.223   .     D
C10    O36     1.396   .     S
C11    O38     1.398   .     S
C11    O37     1.220   .     D
C12    O41     1.305   .     A
C12    O42     1.312   .     A
C13    O39     1.223   .     D
C13    O40     1.394   .     S
C14    C16     1.406   .     S
C14    O44     1.300   .     A
C14    O47     1.298   .     A
C15    O45     1.300   .     A
C15    O46     1.298   .     A
C15    C17     1.406   .     S
C16    C881    1.189   1_554 S
C17    C448    1.189   .     S
C18    I27     2.146   .     S
C18    C116    1.392   1_455 S
C19    I28     2.146   .     S
C19    C50     1.392   .     S
C20    I29     2.139   .     S
C20    C66     1.392   .     S
Cu21   O44     1.927   .     S
Cu21   Cu22    2.717   .     S
Cu21   N31     2.042   .     S
Cu21   O33     1.968   .     S
Cu21   O42     1.960   .     S
Cu21   O46     1.925   .     S
Cu22   O43     1.960   .     S
Cu22   O47     1.925   .     S
Cu22   N32     2.042   .     S
Cu22   O41     1.968   .     S
Cu22   O45     1.927   .     S
H23    O34     1.014   .     S
H24    O36     1.014   .     S
H25    O38     1.014   .     S
H26    O40     1.014   .     S
C49    C52     1.469   .     S
C49    O81     1.305   .     A
C49    O91     1.312   .     A
C50    C52     1.412   .     A
C50    I78     2.139   .     S
C51    C67     1.406   .     A
C51    C68     1.412   .     A
C51    C60     1.469   .     S
C52    C66     1.406   .     A
C53    C57     1.478   .     S
C53    N80     1.376   .     A
C53    C344    1.429   1_545 S
C54    C58     1.478   .     S
C54    N79     1.377   .     A
C54    C199    1.429   .     S
C55    N80     1.379   .     A
C55    C59     1.478   .     S
C55    C342    1.429   1_545 S
C56    N79     1.380   .     A
C56    C61     1.479   .     S
C56    C197    1.429   .     S
C57    O82     1.398   .     S
C57    O96     1.221   .     D
C58    O83     1.223   .     D
C58    O84     1.396   .     S
C59    O86     1.398   .     S
C59    O85     1.220   .     D
C60    O89     1.305   .     A
C60    O90     1.312   .     A
C61    O87     1.223   .     D
C61    O88     1.394   .     S
C62    C64     1.406   .     S
C62    O92     1.300   .     A
C62    O95     1.298   .     A
C63    O93     1.300   .     A
C63    O94     1.298   .     A
C63    C65     1.406   .     S
C64    C929    1.189   1_554 S
C65    C496    1.189   .     S
C66    I75     2.146   .     S
C67    I76     2.146   .     S
C67    C98     1.392   .     S
C68    I77     2.139   .     S
C68    C114    1.392   .     S
Cu69   O92     1.927   .     S
Cu69   Cu70    2.717   .     S
Cu69   N79     2.042   .     S
Cu69   O81     1.968   .     S
Cu69   O90     1.960   .     S
Cu69   O94     1.925   .     S
Cu70   O91     1.960   .     S
Cu70   O95     1.925   .     S
Cu70   N80     2.042   .     S
Cu70   O89     1.968   .     S
Cu70   O93     1.927   .     S
H71    O82     1.014   .     S
H72    O84     1.014   .     S
H73    O86     1.014   .     S
H74    O88     1.014   .     S
C97    C100    1.469   .     S
C97    O129    1.305   .     A
C97    O139    1.312   .     A
C98    C100    1.412   .     A
C98    I126    2.139   .     S
C99    C115    1.406   .     A
C99    C116    1.412   .     A
C99    C108    1.469   .     S
C100   C114    1.406   .     A
C101   C105    1.478   .     S
C101   N128    1.376   .     A
C101   C392    1.429   1_545 S
C102   C106    1.478   .     S
C102   N127    1.377   .     A
C102   C247    1.429   .     S
C103   N128    1.379   .     A
C103   C107    1.478   .     S
C103   C390    1.429   1_545 S
C104   N127    1.380   .     A
C104   C109    1.479   .     S
C104   C245    1.429   .     S
C105   O130    1.398   .     S
C105   O144    1.221   .     D
C106   O131    1.223   .     D
C106   O132    1.396   .     S
C107   O134    1.398   .     S
C107   O133    1.220   .     D
C108   O137    1.305   .     A
C108   O138    1.312   .     A
C109   O135    1.223   .     D
C109   O136    1.394   .     S
C110   C112    1.406   .     S
C110   O140    1.300   .     A
C110   O143    1.298   .     A
C111   O141    1.300   .     A
C111   O142    1.298   .     A
C111   C113    1.406   .     S
C112   C977    1.189   1_554 S
C113   C544    1.189   .     S
C114   I123    2.146   .     S
C115   I124    2.146   .     S
C115   C2      1.392   1_655 S
C116   I125    2.139   .     S
C116   C18     1.392   1_655 S
Cu117  O140    1.927   .     S
Cu117  Cu118   2.717   .     S
Cu117  N127    2.042   .     S
Cu117  O129    1.968   .     S
Cu117  O138    1.960   .     S
Cu117  O142    1.925   .     S
Cu118  O139    1.960   .     S
Cu118  O143    1.925   .     S
Cu118  N128    2.042   .     S
Cu118  O137    1.968   .     S
Cu118  O141    1.927   .     S
H119   O130    1.014   .     S
H120   O132    1.014   .     S
H121   O134    1.014   .     S
H122   O136    1.014   .     S
C145   C148    1.469   .     S
C145   O177    1.305   .     A
C145   O187    1.312   .     A
C146   C148    1.412   .     A
C146   I174    2.139   .     S
C146   C259    1.392   1_455 S
C147   C163    1.406   .     A
C147   C164    1.412   .     A
C147   C156    1.469   .     S
C148   C162    1.406   .     A
C149   C153    1.478   .     S
C149   N176    1.376   .     A
C150   C154    1.478   .     S
C150   N175    1.377   .     A
C150   C295    1.429   .     S
C151   N176    1.379   .     A
C151   C155    1.478   .     S
C152   N175    1.380   .     A
C152   C157    1.479   .     S
C152   C293    1.429   .     S
C153   O178    1.398   .     S
C153   O192    1.221   .     D
C154   O179    1.223   .     D
C154   O180    1.396   .     S
C155   O182    1.398   .     S
C155   O181    1.220   .     D
C156   O185    1.305   .     A
C156   O186    1.312   .     A
C157   O183    1.223   .     D
C157   O184    1.394   .     S
C158   C160    1.406   .     S
C158   O188    1.300   .     A
C158   O191    1.298   .     A
C159   O189    1.300   .     A
C159   O190    1.298   .     A
C159   C161    1.406   .     S
C160   C1025   1.189   1_554 S
C161   C592    1.189   .     S
C162   I171    2.146   .     S
C162   C260    1.392   1_455 S
C163   I172    2.146   .     S
C163   C194    1.392   .     S
C164   I173    2.139   .     S
C164   C210    1.392   .     S
Cu165  O188    1.927   .     S
Cu165  Cu166   2.717   .     S
Cu165  N175    2.042   .     S
Cu165  O177    1.968   .     S
Cu165  O186    1.960   .     S
Cu165  O190    1.925   .     S
Cu166  O187    1.960   .     S
Cu166  O191    1.925   .     S
Cu166  N176    2.042   .     S
Cu166  O185    1.968   .     S
Cu166  O189    1.927   .     S
H167   O178    1.014   .     S
H168   O180    1.014   .     S
H169   O182    1.014   .     S
H170   O184    1.014   .     S
C193   C196    1.469   .     S
C193   O225    1.305   .     A
C193   O235    1.312   .     A
C194   C196    1.412   .     A
C194   I222    2.139   .     S
C195   C211    1.406   .     A
C195   C212    1.412   .     A
C195   C204    1.469   .     S
C196   C210    1.406   .     A
C197   C201    1.478   .     S
C197   N224    1.376   .     A
C198   C202    1.478   .     S
C198   N223    1.377   .     A
C198   C343    1.429   .     S
C199   N224    1.379   .     A
C199   C203    1.478   .     S
C200   N223    1.380   .     A
C200   C205    1.479   .     S
C200   C341    1.429   .     S
C201   O226    1.398   .     S
C201   O240    1.221   .     D
C202   O227    1.223   .     D
C202   O228    1.396   .     S
C203   O230    1.398   .     S
C203   O229    1.220   .     D
C204   O233    1.305   .     A
C204   O234    1.312   .     A
C205   O231    1.223   .     D
C205   O232    1.394   .     S
C206   C208    1.406   .     S
C206   O236    1.300   .     A
C206   O239    1.298   .     A
C207   O237    1.300   .     A
C207   O238    1.298   .     A
C207   C209    1.406   .     S
C208   C1073   1.189   1_554 S
C209   C640    1.189   .     S
C210   I219    2.146   .     S
C211   I220    2.146   .     S
C211   C242    1.392   .     S
C212   I221    2.139   .     S
C212   C258    1.392   .     S
Cu213  O236    1.927   .     S
Cu213  Cu214   2.717   .     S
Cu213  N223    2.042   .     S
Cu213  O225    1.968   .     S
Cu213  O234    1.960   .     S
Cu213  O238    1.925   .     S
Cu214  O235    1.960   .     S
Cu214  O239    1.925   .     S
Cu214  N224    2.042   .     S
Cu214  O233    1.968   .     S
Cu214  O237    1.927   .     S
H215   O226    1.014   .     S
H216   O228    1.014   .     S
H217   O230    1.014   .     S
H218   O232    1.014   .     S
C241   C244    1.469   .     S
C241   O273    1.305   .     A
C241   O283    1.312   .     A
C242   C244    1.412   .     A
C242   I270    2.139   .     S
C243   C259    1.406   .     A
C243   C260    1.412   .     A
C243   C252    1.469   .     S
C244   C258    1.406   .     A
C245   C249    1.478   .     S
C245   N272    1.376   .     A
C246   C250    1.478   .     S
C246   N271    1.377   .     A
C246   C391    1.429   .     S
C247   N272    1.379   .     A
C247   C251    1.478   .     S
C248   N271    1.380   .     A
C248   C253    1.479   .     S
C248   C389    1.429   .     S
C249   O274    1.398   .     S
C249   O288    1.221   .     D
C250   O275    1.223   .     D
C250   O276    1.396   .     S
C251   O278    1.398   .     S
C251   O277    1.220   .     D
C252   O281    1.305   .     A
C252   O282    1.312   .     A
C253   O279    1.223   .     D
C253   O280    1.394   .     S
C254   C256    1.406   .     S
C254   O284    1.300   .     A
C254   O287    1.298   .     A
C255   O285    1.300   .     A
C255   O286    1.298   .     A
C255   C257    1.406   .     S
C256   C1121   1.189   1_554 S
C257   C688    1.189   .     S
C258   I267    2.146   .     S
C259   I268    2.146   .     S
C259   C146    1.392   1_655 S
C260   I269    2.139   .     S
C260   C162    1.392   1_655 S
Cu261  O284    1.927   .     S
Cu261  Cu262   2.717   .     S
Cu261  N271    2.042   .     S
Cu261  O273    1.968   .     S
Cu261  O282    1.960   .     S
Cu261  O286    1.925   .     S
Cu262  O283    1.960   .     S
Cu262  O287    1.925   .     S
Cu262  N272    2.042   .     S
Cu262  O281    1.968   .     S
Cu262  O285    1.927   .     S
H263   O274    1.014   .     S
H264   O276    1.014   .     S
H265   O278    1.014   .     S
H266   O280    1.014   .     S
C289   C292    1.469   .     S
C289   O321    1.305   .     A
C289   O331    1.312   .     A
C290   C292    1.412   .     A
C290   I318    2.139   .     S
C290   C403    1.392   1_455 S
C291   C307    1.406   .     A
C291   C308    1.412   .     A
C291   C300    1.469   .     S
C292   C306    1.406   .     A
C293   C297    1.478   .     S
C293   N320    1.376   .     A
C294   C298    1.478   .     S
C294   N319    1.377   .     A
C294   C7      1.429   1_565 S
C295   N320    1.379   .     A
C295   C299    1.478   .     S
C296   N319    1.380   .     A
C296   C301    1.479   .     S
C296   C5      1.429   1_565 S
C297   O322    1.398   .     S
C297   O336    1.221   .     D
C298   O323    1.223   .     D
C298   O324    1.396   .     S
C299   O326    1.398   .     S
C299   O325    1.220   .     D
C300   O329    1.305   .     A
C300   O330    1.312   .     A
C301   O327    1.223   .     D
C301   O328    1.394   .     S
C302   C304    1.406   .     S
C302   O332    1.300   .     A
C302   O335    1.298   .     A
C303   O333    1.300   .     A
C303   O334    1.298   .     A
C303   C305    1.406   .     S
C304   C1169   1.189   1_554 S
C305   C736    1.189   .     S
C306   I315    2.146   .     S
C306   C404    1.392   1_455 S
C307   I316    2.146   .     S
C307   C338    1.392   .     S
C308   I317    2.139   .     S
C308   C354    1.392   .     S
Cu309  O332    1.927   .     S
Cu309  Cu310   2.717   .     S
Cu309  N319    2.042   .     S
Cu309  O321    1.968   .     S
Cu309  O330    1.960   .     S
Cu309  O334    1.925   .     S
Cu310  O331    1.960   .     S
Cu310  O335    1.925   .     S
Cu310  N320    2.042   .     S
Cu310  O329    1.968   .     S
Cu310  O333    1.927   .     S
H311   O322    1.014   .     S
H312   O324    1.014   .     S
H313   O326    1.014   .     S
H314   O328    1.014   .     S
C337   C340    1.469   .     S
C337   O369    1.305   .     A
C337   O379    1.312   .     A
C338   C340    1.412   .     A
C338   I366    2.139   .     S
C339   C355    1.406   .     A
C339   C356    1.412   .     A
C339   C348    1.469   .     S
C340   C354    1.406   .     A
C341   C345    1.478   .     S
C341   N368    1.376   .     A
C342   C346    1.478   .     S
C342   N367    1.377   .     A
C342   C55     1.429   1_565 S
C343   N368    1.379   .     A
C343   C347    1.478   .     S
C344   N367    1.380   .     A
C344   C349    1.479   .     S
C344   C53     1.429   1_565 S
C345   O370    1.398   .     S
C345   O384    1.221   .     D
C346   O371    1.223   .     D
C346   O372    1.396   .     S
C347   O374    1.398   .     S
C347   O373    1.220   .     D
C348   O377    1.305   .     A
C348   O378    1.312   .     A
C349   O375    1.223   .     D
C349   O376    1.394   .     S
C350   C352    1.406   .     S
C350   O380    1.300   .     A
C350   O383    1.298   .     A
C351   O381    1.300   .     A
C351   O382    1.298   .     A
C351   C353    1.406   .     S
C352   C1217   1.189   1_554 S
C353   C784    1.189   .     S
C354   I363    2.146   .     S
C355   I364    2.146   .     S
C355   C386    1.392   .     S
C356   I365    2.139   .     S
C356   C402    1.392   .     S
Cu357  O380    1.927   .     S
Cu357  Cu358   2.717   .     S
Cu357  N367    2.042   .     S
Cu357  O369    1.968   .     S
Cu357  O378    1.960   .     S
Cu357  O382    1.925   .     S
Cu358  O379    1.960   .     S
Cu358  O383    1.925   .     S
Cu358  N368    2.042   .     S
Cu358  O377    1.968   .     S
Cu358  O381    1.927   .     S
H359   O370    1.014   .     S
H360   O372    1.014   .     S
H361   O374    1.014   .     S
H362   O376    1.014   .     S
C385   C388    1.469   .     S
C385   O417    1.305   .     A
C385   O427    1.312   .     A
C386   C388    1.412   .     A
C386   I414    2.139   .     S
C387   C403    1.406   .     A
C387   C404    1.412   .     A
C387   C396    1.469   .     S
C388   C402    1.406   .     A
C389   C393    1.478   .     S
C389   N416    1.376   .     A
C390   C394    1.478   .     S
C390   N415    1.377   .     A
C390   C103    1.429   1_565 S
C391   N416    1.379   .     A
C391   C395    1.478   .     S
C392   N415    1.380   .     A
C392   C397    1.479   .     S
C392   C101    1.429   1_565 S
C393   O418    1.398   .     S
C393   O432    1.221   .     D
C394   O419    1.223   .     D
C394   O420    1.396   .     S
C395   O422    1.398   .     S
C395   O421    1.220   .     D
C396   O425    1.305   .     A
C396   O426    1.312   .     A
C397   O423    1.223   .     D
C397   O424    1.394   .     S
C398   C400    1.406   .     S
C398   O428    1.300   .     A
C398   O431    1.298   .     A
C399   O429    1.300   .     A
C399   O430    1.298   .     A
C399   C401    1.406   .     S
C400   C1265   1.189   1_554 S
C401   C832    1.189   .     S
C402   I411    2.146   .     S
C403   I412    2.146   .     S
C403   C290    1.392   1_655 S
C404   I413    2.139   .     S
C404   C306    1.392   1_655 S
Cu405  O428    1.927   .     S
Cu405  Cu406   2.717   .     S
Cu405  N415    2.042   .     S
Cu405  O417    1.968   .     S
Cu405  O426    1.960   .     S
Cu405  O430    1.925   .     S
Cu406  O427    1.960   .     S
Cu406  O431    1.925   .     S
Cu406  N416    2.042   .     S
Cu406  O425    1.968   .     S
Cu406  O429    1.927   .     S
H407   O418    1.014   .     S
H408   O420    1.014   .     S
H409   O422    1.014   .     S
H410   O424    1.014   .     S
C433   C436    1.469   .     S
C433   O465    1.305   .     A
C433   O475    1.312   .     A
C434   C436    1.412   .     A
C434   I462    2.139   .     S
C434   C547    1.392   1_455 S
C435   C451    1.406   .     A
C435   C452    1.412   .     A
C435   C444    1.469   .     S
C436   C450    1.406   .     A
C437   C441    1.478   .     S
C437   N464    1.376   .     A
C437   C728    1.429   1_545 S
C438   C442    1.478   .     S
C438   N463    1.377   .     A
C438   C583    1.429   .     S
C439   N464    1.379   .     A
C439   C443    1.478   .     S
C439   C726    1.429   1_545 S
C440   N463    1.380   .     A
C440   C445    1.479   .     S
C440   C581    1.429   .     S
C441   O466    1.398   .     S
C441   O480    1.221   .     D
C442   O467    1.223   .     D
C442   O468    1.396   .     S
C443   O470    1.398   .     S
C443   O469    1.220   .     D
C444   O473    1.305   .     A
C444   O474    1.312   .     A
C445   O471    1.223   .     D
C445   O472    1.394   .     S
C446   C448    1.406   .     S
C446   O476    1.300   .     A
C446   O479    1.298   .     A
C447   O477    1.300   .     A
C447   O478    1.298   .     A
C447   C449    1.406   .     S
C449   C880    1.189   .     S
C450   I459    2.146   .     S
C450   C548    1.392   1_455 S
C451   I460    2.146   .     S
C451   C482    1.392   .     S
C452   I461    2.139   .     S
C452   C498    1.392   .     S
Cu453  O476    1.927   .     S
Cu453  Cu454   2.717   .     S
Cu453  N463    2.042   .     S
Cu453  O465    1.968   .     S
Cu453  O474    1.960   .     S
Cu453  O478    1.925   .     S
Cu454  O475    1.960   .     S
Cu454  O479    1.925   .     S
Cu454  N464    2.042   .     S
Cu454  O473    1.968   .     S
Cu454  O477    1.927   .     S
H455   O466    1.014   .     S
H456   O468    1.014   .     S
H457   O470    1.014   .     S
H458   O472    1.014   .     S
C481   C484    1.469   .     S
C481   O513    1.305   .     A
C481   O523    1.312   .     A
C482   C484    1.412   .     A
C482   I510    2.139   .     S
C483   C499    1.406   .     A
C483   C500    1.412   .     A
C483   C492    1.469   .     S
C484   C498    1.406   .     A
C485   C489    1.478   .     S
C485   N512    1.376   .     A
C485   C776    1.429   1_545 S
C486   C490    1.478   .     S
C486   N511    1.377   .     A
C486   C631    1.429   .     S
C487   N512    1.379   .     A
C487   C491    1.478   .     S
C487   C774    1.429   1_545 S
C488   N511    1.380   .     A
C488   C493    1.479   .     S
C488   C629    1.429   .     S
C489   O514    1.398   .     S
C489   O528    1.221   .     D
C490   O515    1.223   .     D
C490   O516    1.396   .     S
C491   O518    1.398   .     S
C491   O517    1.220   .     D
C492   O521    1.305   .     A
C492   O522    1.312   .     A
C493   O519    1.223   .     D
C493   O520    1.394   .     S
C494   C496    1.406   .     S
C494   O524    1.300   .     A
C494   O527    1.298   .     A
C495   O525    1.300   .     A
C495   O526    1.298   .     A
C495   C497    1.406   .     S
C497   C928    1.189   .     S
C498   I507    2.146   .     S
C499   I508    2.146   .     S
C499   C530    1.392   .     S
C500   I509    2.139   .     S
C500   C546    1.392   .     S
Cu501  O524    1.927   .     S
Cu501  Cu502   2.717   .     S
Cu501  N511    2.042   .     S
Cu501  O513    1.968   .     S
Cu501  O522    1.960   .     S
Cu501  O526    1.925   .     S
Cu502  O523    1.960   .     S
Cu502  O527    1.925   .     S
Cu502  N512    2.042   .     S
Cu502  O521    1.968   .     S
Cu502  O525    1.927   .     S
H503   O514    1.014   .     S
H504   O516    1.014   .     S
H505   O518    1.014   .     S
H506   O520    1.014   .     S
C529   C532    1.469   .     S
C529   O561    1.305   .     A
C529   O571    1.312   .     A
C530   C532    1.412   .     A
C530   I558    2.139   .     S
C531   C547    1.406   .     A
C531   C548    1.412   .     A
C531   C540    1.469   .     S
C532   C546    1.406   .     A
C533   C537    1.478   .     S
C533   N560    1.376   .     A
C533   C824    1.429   1_545 S
C534   C538    1.478   .     S
C534   N559    1.377   .     A
C534   C679    1.429   .     S
C535   N560    1.379   .     A
C535   C539    1.478   .     S
C535   C822    1.429   1_545 S
C536   N559    1.380   .     A
C536   C541    1.479   .     S
C536   C677    1.429   .     S
C537   O562    1.398   .     S
C537   O576    1.221   .     D
C538   O563    1.223   .     D
C538   O564    1.396   .     S
C539   O566    1.398   .     S
C539   O565    1.220   .     D
C540   O569    1.305   .     A
C540   O570    1.312   .     A
C541   O567    1.223   .     D
C541   O568    1.394   .     S
C542   C544    1.406   .     S
C542   O572    1.300   .     A
C542   O575    1.298   .     A
C543   O573    1.300   .     A
C543   O574    1.298   .     A
C543   C545    1.406   .     S
C545   C976    1.189   .     S
C546   I555    2.146   .     S
C547   I556    2.146   .     S
C547   C434    1.392   1_655 S
C548   I557    2.139   .     S
C548   C450    1.392   1_655 S
Cu549  O572    1.927   .     S
Cu549  Cu550   2.717   .     S
Cu549  N559    2.042   .     S
Cu549  O561    1.968   .     S
Cu549  O570    1.960   .     S
Cu549  O574    1.925   .     S
Cu550  O571    1.960   .     S
Cu550  O575    1.925   .     S
Cu550  N560    2.042   .     S
Cu550  O569    1.968   .     S
Cu550  O573    1.927   .     S
H551   O562    1.014   .     S
H552   O564    1.014   .     S
H553   O566    1.014   .     S
H554   O568    1.014   .     S
C577   C580    1.469   .     S
C577   O609    1.305   .     A
C577   O619    1.312   .     A
C578   C580    1.412   .     A
C578   I606    2.139   .     S
C578   C691    1.392   1_455 S
C579   C595    1.406   .     A
C579   C596    1.412   .     A
C579   C588    1.469   .     S
C580   C594    1.406   .     A
C581   C585    1.478   .     S
C581   N608    1.376   .     A
C582   C586    1.478   .     S
C582   N607    1.377   .     A
C582   C727    1.429   .     S
C583   N608    1.379   .     A
C583   C587    1.478   .     S
C584   N607    1.380   .     A
C584   C589    1.479   .     S
C584   C725    1.429   .     S
C585   O610    1.398   .     S
C585   O624    1.221   .     D
C586   O611    1.223   .     D
C586   O612    1.396   .     S
C587   O614    1.398   .     S
C587   O613    1.220   .     D
C588   O617    1.305   .     A
C588   O618    1.312   .     A
C589   O615    1.223   .     D
C589   O616    1.394   .     S
C590   C592    1.406   .     S
C590   O620    1.300   .     A
C590   O623    1.298   .     A
C591   O621    1.300   .     A
C591   O622    1.298   .     A
C591   C593    1.406   .     S
C593   C1024   1.189   .     S
C594   I603    2.146   .     S
C594   C692    1.392   1_455 S
C595   I604    2.146   .     S
C595   C626    1.392   .     S
C596   I605    2.139   .     S
C596   C642    1.392   .     S
Cu597  O620    1.927   .     S
Cu597  Cu598   2.717   .     S
Cu597  N607    2.042   .     S
Cu597  O609    1.968   .     S
Cu597  O618    1.960   .     S
Cu597  O622    1.925   .     S
Cu598  O619    1.960   .     S
Cu598  O623    1.925   .     S
Cu598  N608    2.042   .     S
Cu598  O617    1.968   .     S
Cu598  O621    1.927   .     S
H599   O610    1.014   .     S
H600   O612    1.014   .     S
H601   O614    1.014   .     S
H602   O616    1.014   .     S
C625   C628    1.469   .     S
C625   O657    1.305   .     A
C625   O667    1.312   .     A
C626   C628    1.412   .     A
C626   I654    2.139   .     S
C627   C643    1.406   .     A
C627   C644    1.412   .     A
C627   C636    1.469   .     S
C628   C642    1.406   .     A
C629   C633    1.478   .     S
C629   N656    1.376   .     A
C630   C634    1.478   .     S
C630   N655    1.377   .     A
C630   C775    1.429   .     S
C631   N656    1.379   .     A
C631   C635    1.478   .     S
C632   N655    1.380   .     A
C632   C637    1.479   .     S
C632   C773    1.429   .     S
C633   O658    1.398   .     S
C633   O672    1.221   .     D
C634   O659    1.223   .     D
C634   O660    1.396   .     S
C635   O662    1.398   .     S
C635   O661    1.220   .     D
C636   O665    1.305   .     A
C636   O666    1.312   .     A
C637   O663    1.223   .     D
C637   O664    1.394   .     S
C638   C640    1.406   .     S
C638   O668    1.300   .     A
C638   O671    1.298   .     A
C639   O669    1.300   .     A
C639   O670    1.298   .     A
C639   C641    1.406   .     S
C641   C1072   1.189   .     S
C642   I651    2.146   .     S
C643   I652    2.146   .     S
C643   C674    1.392   .     S
C644   I653    2.139   .     S
C644   C690    1.392   .     S
Cu645  O668    1.927   .     S
Cu645  Cu646   2.717   .     S
Cu645  N655    2.042   .     S
Cu645  O657    1.968   .     S
Cu645  O666    1.960   .     S
Cu645  O670    1.925   .     S
Cu646  O667    1.960   .     S
Cu646  O671    1.925   .     S
Cu646  N656    2.042   .     S
Cu646  O665    1.968   .     S
Cu646  O669    1.927   .     S
H647   O658    1.014   .     S
H648   O660    1.014   .     S
H649   O662    1.014   .     S
H650   O664    1.014   .     S
C673   C676    1.469   .     S
C673   O705    1.305   .     A
C673   O715    1.312   .     A
C674   C676    1.412   .     A
C674   I702    2.139   .     S
C675   C691    1.406   .     A
C675   C692    1.412   .     A
C675   C684    1.469   .     S
C676   C690    1.406   .     A
C677   C681    1.478   .     S
C677   N704    1.376   .     A
C678   C682    1.478   .     S
C678   N703    1.377   .     A
C678   C823    1.429   .     S
C679   N704    1.379   .     A
C679   C683    1.478   .     S
C680   N703    1.380   .     A
C680   C685    1.479   .     S
C680   C821    1.429   .     S
C681   O706    1.398   .     S
C681   O720    1.221   .     D
C682   O707    1.223   .     D
C682   O708    1.396   .     S
C683   O710    1.398   .     S
C683   O709    1.220   .     D
C684   O713    1.305   .     A
C684   O714    1.312   .     A
C685   O711    1.223   .     D
C685   O712    1.394   .     S
C686   C688    1.406   .     S
C686   O716    1.300   .     A
C686   O719    1.298   .     A
C687   O717    1.300   .     A
C687   O718    1.298   .     A
C687   C689    1.406   .     S
C689   C1120   1.189   .     S
C690   I699    2.146   .     S
C691   I700    2.146   .     S
C691   C578    1.392   1_655 S
C692   I701    2.139   .     S
C692   C594    1.392   1_655 S
Cu693  O716    1.927   .     S
Cu693  Cu694   2.717   .     S
Cu693  N703    2.042   .     S
Cu693  O705    1.968   .     S
Cu693  O714    1.960   .     S
Cu693  O718    1.925   .     S
Cu694  O715    1.960   .     S
Cu694  O719    1.925   .     S
Cu694  N704    2.042   .     S
Cu694  O713    1.968   .     S
Cu694  O717    1.927   .     S
H695   O706    1.014   .     S
H696   O708    1.014   .     S
H697   O710    1.014   .     S
H698   O712    1.014   .     S
C721   C724    1.469   .     S
C721   O753    1.305   .     A
C721   O763    1.312   .     A
C722   C724    1.412   .     A
C722   I750    2.139   .     S
C722   C835    1.392   1_455 S
C723   C739    1.406   .     A
C723   C740    1.412   .     A
C723   C732    1.469   .     S
C724   C738    1.406   .     A
C725   C729    1.478   .     S
C725   N752    1.376   .     A
C726   C730    1.478   .     S
C726   N751    1.377   .     A
C726   C439    1.429   1_565 S
C727   N752    1.379   .     A
C727   C731    1.478   .     S
C728   N751    1.380   .     A
C728   C733    1.479   .     S
C728   C437    1.429   1_565 S
C729   O754    1.398   .     S
C729   O768    1.221   .     D
C730   O755    1.223   .     D
C730   O756    1.396   .     S
C731   O758    1.398   .     S
C731   O757    1.220   .     D
C732   O761    1.305   .     A
C732   O762    1.312   .     A
C733   O759    1.223   .     D
C733   O760    1.394   .     S
C734   C736    1.406   .     S
C734   O764    1.300   .     A
C734   O767    1.298   .     A
C735   O765    1.300   .     A
C735   O766    1.298   .     A
C735   C737    1.406   .     S
C737   C1168   1.189   .     S
C738   I747    2.146   .     S
C738   C836    1.392   1_455 S
C739   I748    2.146   .     S
C739   C770    1.392   .     S
C740   I749    2.139   .     S
C740   C786    1.392   .     S
Cu741  O764    1.927   .     S
Cu741  Cu742   2.717   .     S
Cu741  N751    2.042   .     S
Cu741  O753    1.968   .     S
Cu741  O762    1.960   .     S
Cu741  O766    1.925   .     S
Cu742  O763    1.960   .     S
Cu742  O767    1.925   .     S
Cu742  N752    2.042   .     S
Cu742  O761    1.968   .     S
Cu742  O765    1.927   .     S
H743   O754    1.014   .     S
H744   O756    1.014   .     S
H745   O758    1.014   .     S
H746   O760    1.014   .     S
C769   C772    1.469   .     S
C769   O801    1.305   .     A
C769   O811    1.312   .     A
C770   C772    1.412   .     A
C770   I798    2.139   .     S
C771   C787    1.406   .     A
C771   C788    1.412   .     A
C771   C780    1.469   .     S
C772   C786    1.406   .     A
C773   C777    1.478   .     S
C773   N800    1.376   .     A
C774   C778    1.478   .     S
C774   N799    1.377   .     A
C774   C487    1.429   1_565 S
C775   N800    1.379   .     A
C775   C779    1.478   .     S
C776   N799    1.380   .     A
C776   C781    1.479   .     S
C776   C485    1.429   1_565 S
C777   O802    1.398   .     S
C777   O816    1.221   .     D
C778   O803    1.223   .     D
C778   O804    1.396   .     S
C779   O806    1.398   .     S
C779   O805    1.220   .     D
C780   O809    1.305   .     A
C780   O810    1.312   .     A
C781   O807    1.223   .     D
C781   O808    1.394   .     S
C782   C784    1.406   .     S
C782   O812    1.300   .     A
C782   O815    1.298   .     A
C783   O813    1.300   .     A
C783   O814    1.298   .     A
C783   C785    1.406   .     S
C785   C1216   1.189   .     S
C786   I795    2.146   .     S
C787   I796    2.146   .     S
C787   C818    1.392   .     S
C788   I797    2.139   .     S
C788   C834    1.392   .     S
Cu789  O812    1.927   .     S
Cu789  Cu790   2.717   .     S
Cu789  N799    2.042   .     S
Cu789  O801    1.968   .     S
Cu789  O810    1.960   .     S
Cu789  O814    1.925   .     S
Cu790  O811    1.960   .     S
Cu790  O815    1.925   .     S
Cu790  N800    2.042   .     S
Cu790  O809    1.968   .     S
Cu790  O813    1.927   .     S
H791   O802    1.014   .     S
H792   O804    1.014   .     S
H793   O806    1.014   .     S
H794   O808    1.014   .     S
C817   C820    1.469   .     S
C817   O849    1.305   .     A
C817   O859    1.312   .     A
C818   C820    1.412   .     A
C818   I846    2.139   .     S
C819   C835    1.406   .     A
C819   C836    1.412   .     A
C819   C828    1.469   .     S
C820   C834    1.406   .     A
C821   C825    1.478   .     S
C821   N848    1.376   .     A
C822   C826    1.478   .     S
C822   N847    1.377   .     A
C822   C535    1.429   1_565 S
C823   N848    1.379   .     A
C823   C827    1.478   .     S
C824   N847    1.380   .     A
C824   C829    1.479   .     S
C824   C533    1.429   1_565 S
C825   O850    1.398   .     S
C825   O864    1.221   .     D
C826   O851    1.223   .     D
C826   O852    1.396   .     S
C827   O854    1.398   .     S
C827   O853    1.220   .     D
C828   O857    1.305   .     A
C828   O858    1.312   .     A
C829   O855    1.223   .     D
C829   O856    1.394   .     S
C830   C832    1.406   .     S
C830   O860    1.300   .     A
C830   O863    1.298   .     A
C831   O861    1.300   .     A
C831   O862    1.298   .     A
C831   C833    1.406   .     S
C833   C1264   1.189   .     S
C834   I843    2.146   .     S
C835   I844    2.146   .     S
C835   C722    1.392   1_655 S
C836   I845    2.139   .     S
C836   C738    1.392   1_655 S
Cu837  O860    1.927   .     S
Cu837  Cu838   2.717   .     S
Cu837  N847    2.042   .     S
Cu837  O849    1.968   .     S
Cu837  O858    1.960   .     S
Cu837  O862    1.925   .     S
Cu838  O859    1.960   .     S
Cu838  O863    1.925   .     S
Cu838  N848    2.042   .     S
Cu838  O857    1.968   .     S
Cu838  O861    1.927   .     S
H839   O850    1.014   .     S
H840   O852    1.014   .     S
H841   O854    1.014   .     S
H842   O856    1.014   .     S
C865   C868    1.469   .     S
C865   O897    1.305   .     A
C865   O907    1.312   .     A
C866   C868    1.412   .     A
C866   I894    2.139   .     S
C866   C979    1.392   1_455 S
C867   C883    1.406   .     A
C867   C884    1.412   .     A
C867   C876    1.469   .     S
C868   C882    1.406   .     A
C869   C873    1.478   .     S
C869   N896    1.376   .     A
C869   C1160   1.429   1_545 S
C870   C874    1.478   .     S
C870   N895    1.377   .     A
C870   C1015   1.429   .     S
C871   N896    1.379   .     A
C871   C875    1.478   .     S
C871   C1158   1.429   1_545 S
C872   N895    1.380   .     A
C872   C877    1.479   .     S
C872   C1013   1.429   .     S
C873   O898    1.398   .     S
C873   O912    1.221   .     D
C874   O899    1.223   .     D
C874   O900    1.396   .     S
C875   O902    1.398   .     S
C875   O901    1.220   .     D
C876   O905    1.305   .     A
C876   O906    1.312   .     A
C877   O903    1.223   .     D
C877   O904    1.394   .     S
C878   C880    1.406   .     S
C878   O908    1.300   .     A
C878   O911    1.298   .     A
C879   O909    1.300   .     A
C879   O910    1.298   .     A
C879   C881    1.406   .     S
C881   C16     1.189   1_556 S
C882   I891    2.146   .     S
C882   C980    1.392   1_455 S
C883   I892    2.146   .     S
C883   C914    1.392   .     S
C884   I893    2.139   .     S
C884   C930    1.392   .     S
Cu885  O908    1.927   .     S
Cu885  Cu886   2.717   .     S
Cu885  N895    2.042   .     S
Cu885  O897    1.968   .     S
Cu885  O906    1.960   .     S
Cu885  O910    1.925   .     S
Cu886  O907    1.960   .     S
Cu886  O911    1.925   .     S
Cu886  N896    2.042   .     S
Cu886  O905    1.968   .     S
Cu886  O909    1.927   .     S
H887   O898    1.014   .     S
H888   O900    1.014   .     S
H889   O902    1.014   .     S
H890   O904    1.014   .     S
C913   C916    1.469   .     S
C913   O945    1.305   .     A
C913   O955    1.312   .     A
C914   C916    1.412   .     A
C914   I942    2.139   .     S
C915   C931    1.406   .     A
C915   C932    1.412   .     A
C915   C924    1.469   .     S
C916   C930    1.406   .     A
C917   C921    1.478   .     S
C917   N944    1.376   .     A
C917   C1208   1.429   1_545 S
C918   C922    1.478   .     S
C918   N943    1.377   .     A
C918   C1063   1.429   .     S
C919   N944    1.379   .     A
C919   C923    1.478   .     S
C919   C1206   1.429   1_545 S
C920   N943    1.380   .     A
C920   C925    1.479   .     S
C920   C1061   1.429   .     S
C921   O946    1.398   .     S
C921   O960    1.221   .     D
C922   O947    1.223   .     D
C922   O948    1.396   .     S
C923   O950    1.398   .     S
C923   O949    1.220   .     D
C924   O953    1.305   .     A
C924   O954    1.312   .     A
C925   O951    1.223   .     D
C925   O952    1.394   .     S
C926   C928    1.406   .     S
C926   O956    1.300   .     A
C926   O959    1.298   .     A
C927   O957    1.300   .     A
C927   O958    1.298   .     A
C927   C929    1.406   .     S
C929   C64     1.189   1_556 S
C930   I939    2.146   .     S
C931   I940    2.146   .     S
C931   C962    1.392   .     S
C932   I941    2.139   .     S
C932   C978    1.392   .     S
Cu933  O956    1.927   .     S
Cu933  Cu934   2.717   .     S
Cu933  N943    2.042   .     S
Cu933  O945    1.968   .     S
Cu933  O954    1.960   .     S
Cu933  O958    1.925   .     S
Cu934  O955    1.960   .     S
Cu934  O959    1.925   .     S
Cu934  N944    2.042   .     S
Cu934  O953    1.968   .     S
Cu934  O957    1.927   .     S
H935   O946    1.014   .     S
H936   O948    1.014   .     S
H937   O950    1.014   .     S
H938   O952    1.014   .     S
C961   C964    1.469   .     S
C961   O993    1.305   .     A
C961   O1003   1.312   .     A
C962   C964    1.412   .     A
C962   I990    2.139   .     S
C963   C979    1.406   .     A
C963   C980    1.412   .     A
C963   C972    1.469   .     S
C964   C978    1.406   .     A
C965   C969    1.478   .     S
C965   N992    1.376   .     A
C965   C1256   1.429   1_545 S
C966   C970    1.478   .     S
C966   N991    1.377   .     A
C966   C1111   1.429   .     S
C967   N992    1.379   .     A
C967   C971    1.478   .     S
C967   C1254   1.429   1_545 S
C968   N991    1.380   .     A
C968   C973    1.479   .     S
C968   C1109   1.429   .     S
C969   O994    1.398   .     S
C969   O1008   1.221   .     D
C970   O995    1.223   .     D
C970   O996    1.396   .     S
C971   O998    1.398   .     S
C971   O997    1.220   .     D
C972   O1001   1.305   .     A
C972   O1002   1.312   .     A
C973   O999    1.223   .     D
C973   O1000   1.394   .     S
C974   C976    1.406   .     S
C974   O1004   1.300   .     A
C974   O1007   1.298   .     A
C975   O1005   1.300   .     A
C975   O1006   1.298   .     A
C975   C977    1.406   .     S
C977   C112    1.189   1_556 S
C978   I987    2.146   .     S
C979   I988    2.146   .     S
C979   C866    1.392   1_655 S
C980   I989    2.139   .     S
C980   C882    1.392   1_655 S
Cu981  O1004   1.927   .     S
Cu981  Cu982   2.717   .     S
Cu981  N991    2.042   .     S
Cu981  O993    1.968   .     S
Cu981  O1002   1.960   .     S
Cu981  O1006   1.925   .     S
Cu982  O1003   1.960   .     S
Cu982  O1007   1.925   .     S
Cu982  N992    2.042   .     S
Cu982  O1001   1.968   .     S
Cu982  O1005   1.927   .     S
H983   O994    1.014   .     S
H984   O996    1.014   .     S
H985   O998    1.014   .     S
H986   O1000   1.014   .     S
C1009  C1012   1.469   .     S
C1009  O1041   1.305   .     A
C1009  O1051   1.312   .     A
C1010  C1012   1.412   .     A
C1010  I1038   2.139   .     S
C1010  C1123   1.392   1_455 S
C1011  C1027   1.406   .     A
C1011  C1028   1.412   .     A
C1011  C1020   1.469   .     S
C1012  C1026   1.406   .     A
C1013  C1017   1.478   .     S
C1013  N1040   1.376   .     A
C1014  C1018   1.478   .     S
C1014  N1039   1.377   .     A
C1014  C1159   1.429   .     S
C1015  N1040   1.379   .     A
C1015  C1019   1.478   .     S
C1016  N1039   1.380   .     A
C1016  C1021   1.479   .     S
C1016  C1157   1.429   .     S
C1017  O1042   1.398   .     S
C1017  O1056   1.221   .     D
C1018  O1043   1.223   .     D
C1018  O1044   1.396   .     S
C1019  O1046   1.398   .     S
C1019  O1045   1.220   .     D
C1020  O1049   1.305   .     A
C1020  O1050   1.312   .     A
C1021  O1047   1.223   .     D
C1021  O1048   1.394   .     S
C1022  C1024   1.406   .     S
C1022  O1052   1.300   .     A
C1022  O1055   1.298   .     A
C1023  O1053   1.300   .     A
C1023  O1054   1.298   .     A
C1023  C1025   1.406   .     S
C1025  C160    1.189   1_556 S
C1026  I1035   2.146   .     S
C1026  C1124   1.392   1_455 S
C1027  I1036   2.146   .     S
C1027  C1058   1.392   .     S
C1028  I1037   2.139   .     S
C1028  C1074   1.392   .     S
Cu1029 O1052   1.927   .     S
Cu1029 Cu1030  2.717   .     S
Cu1029 N1039   2.042   .     S
Cu1029 O1041   1.968   .     S
Cu1029 O1050   1.960   .     S
Cu1029 O1054   1.925   .     S
Cu1030 O1051   1.960   .     S
Cu1030 O1055   1.925   .     S
Cu1030 N1040   2.042   .     S
Cu1030 O1049   1.968   .     S
Cu1030 O1053   1.927   .     S
H1031  O1042   1.014   .     S
H1032  O1044   1.014   .     S
H1033  O1046   1.014   .     S
H1034  O1048   1.014   .     S
C1057  C1060   1.469   .     S
C1057  O1089   1.305   .     A
C1057  O1099   1.312   .     A
C1058  C1060   1.412   .     A
C1058  I1086   2.139   .     S
C1059  C1075   1.406   .     A
C1059  C1076   1.412   .     A
C1059  C1068   1.469   .     S
C1060  C1074   1.406   .     A
C1061  C1065   1.478   .     S
C1061  N1088   1.376   .     A
C1062  C1066   1.478   .     S
C1062  N1087   1.377   .     A
C1062  C1207   1.429   .     S
C1063  N1088   1.379   .     A
C1063  C1067   1.478   .     S
C1064  N1087   1.380   .     A
C1064  C1069   1.479   .     S
C1064  C1205   1.429   .     S
C1065  O1090   1.398   .     S
C1065  O1104   1.221   .     D
C1066  O1091   1.223   .     D
C1066  O1092   1.396   .     S
C1067  O1094   1.398   .     S
C1067  O1093   1.220   .     D
C1068  O1097   1.305   .     A
C1068  O1098   1.312   .     A
C1069  O1095   1.223   .     D
C1069  O1096   1.394   .     S
C1070  C1072   1.406   .     S
C1070  O1100   1.300   .     A
C1070  O1103   1.298   .     A
C1071  O1101   1.300   .     A
C1071  O1102   1.298   .     A
C1071  C1073   1.406   .     S
C1073  C208    1.189   1_556 S
C1074  I1083   2.146   .     S
C1075  I1084   2.146   .     S
C1075  C1106   1.392   .     S
C1076  I1085   2.139   .     S
C1076  C1122   1.392   .     S
Cu1077 O1100   1.927   .     S
Cu1077 Cu1078  2.717   .     S
Cu1077 N1087   2.042   .     S
Cu1077 O1089   1.968   .     S
Cu1077 O1098   1.960   .     S
Cu1077 O1102   1.925   .     S
Cu1078 O1099   1.960   .     S
Cu1078 O1103   1.925   .     S
Cu1078 N1088   2.042   .     S
Cu1078 O1097   1.968   .     S
Cu1078 O1101   1.927   .     S
H1079  O1090   1.014   .     S
H1080  O1092   1.014   .     S
H1081  O1094   1.014   .     S
H1082  O1096   1.014   .     S
C1105  C1108   1.469   .     S
C1105  O1137   1.305   .     A
C1105  O1147   1.312   .     A
C1106  C1108   1.412   .     A
C1106  I1134   2.139   .     S
C1107  C1123   1.406   .     A
C1107  C1124   1.412   .     A
C1107  C1116   1.469   .     S
C1108  C1122   1.406   .     A
C1109  C1113   1.478   .     S
C1109  N1136   1.376   .     A
C1110  C1114   1.478   .     S
C1110  N1135   1.377   .     A
C1110  C1255   1.429   .     S
C1111  N1136   1.379   .     A
C1111  C1115   1.478   .     S
C1112  N1135   1.380   .     A
C1112  C1117   1.479   .     S
C1112  C1253   1.429   .     S
C1113  O1138   1.398   .     S
C1113  O1152   1.221   .     D
C1114  O1139   1.223   .     D
C1114  O1140   1.396   .     S
C1115  O1142   1.398   .     S
C1115  O1141   1.220   .     D
C1116  O1145   1.305   .     A
C1116  O1146   1.312   .     A
C1117  O1143   1.223   .     D
C1117  O1144   1.394   .     S
C1118  C1120   1.406   .     S
C1118  O1148   1.300   .     A
C1118  O1151   1.298   .     A
C1119  O1149   1.300   .     A
C1119  O1150   1.298   .     A
C1119  C1121   1.406   .     S
C1121  C256    1.189   1_556 S
C1122  I1131   2.146   .     S
C1123  I1132   2.146   .     S
C1123  C1010   1.392   1_655 S
C1124  I1133   2.139   .     S
C1124  C1026   1.392   1_655 S
Cu1125 O1148   1.927   .     S
Cu1125 Cu1126  2.717   .     S
Cu1125 N1135   2.042   .     S
Cu1125 O1137   1.968   .     S
Cu1125 O1146   1.960   .     S
Cu1125 O1150   1.925   .     S
Cu1126 O1147   1.960   .     S
Cu1126 O1151   1.925   .     S
Cu1126 N1136   2.042   .     S
Cu1126 O1145   1.968   .     S
Cu1126 O1149   1.927   .     S
H1127  O1138   1.014   .     S
H1128  O1140   1.014   .     S
H1129  O1142   1.014   .     S
H1130  O1144   1.014   .     S
C1153  C1156   1.469   .     S
C1153  O1185   1.305   .     A
C1153  O1195   1.312   .     A
C1154  C1156   1.412   .     A
C1154  I1182   2.139   .     S
C1154  C1267   1.392   1_455 S
C1155  C1171   1.406   .     A
C1155  C1172   1.412   .     A
C1155  C1164   1.469   .     S
C1156  C1170   1.406   .     A
C1157  C1161   1.478   .     S
C1157  N1184   1.376   .     A
C1158  C1162   1.478   .     S
C1158  N1183   1.377   .     A
C1158  C871    1.429   1_565 S
C1159  N1184   1.379   .     A
C1159  C1163   1.478   .     S
C1160  N1183   1.380   .     A
C1160  C1165   1.479   .     S
C1160  C869    1.429   1_565 S
C1161  O1186   1.398   .     S
C1161  O1200   1.221   .     D
C1162  O1187   1.223   .     D
C1162  O1188   1.396   .     S
C1163  O1190   1.398   .     S
C1163  O1189   1.220   .     D
C1164  O1193   1.305   .     A
C1164  O1194   1.312   .     A
C1165  O1191   1.223   .     D
C1165  O1192   1.394   .     S
C1166  C1168   1.406   .     S
C1166  O1196   1.300   .     A
C1166  O1199   1.298   .     A
C1167  O1197   1.300   .     A
C1167  O1198   1.298   .     A
C1167  C1169   1.406   .     S
C1169  C304    1.189   1_556 S
C1170  I1179   2.146   .     S
C1170  C1268   1.392   1_455 S
C1171  I1180   2.146   .     S
C1171  C1202   1.392   .     S
C1172  I1181   2.139   .     S
C1172  C1218   1.392   .     S
Cu1173 O1196   1.927   .     S
Cu1173 Cu1174  2.717   .     S
Cu1173 N1183   2.042   .     S
Cu1173 O1185   1.968   .     S
Cu1173 O1194   1.960   .     S
Cu1173 O1198   1.925   .     S
Cu1174 O1195   1.960   .     S
Cu1174 O1199   1.925   .     S
Cu1174 N1184   2.042   .     S
Cu1174 O1193   1.968   .     S
Cu1174 O1197   1.927   .     S
H1175  O1186   1.014   .     S
H1176  O1188   1.014   .     S
H1177  O1190   1.014   .     S
H1178  O1192   1.014   .     S
C1201  C1204   1.469   .     S
C1201  O1233   1.305   .     A
C1201  O1243   1.312   .     A
C1202  C1204   1.412   .     A
C1202  I1230   2.139   .     S
C1203  C1219   1.406   .     A
C1203  C1220   1.412   .     A
C1203  C1212   1.469   .     S
C1204  C1218   1.406   .     A
C1205  C1209   1.478   .     S
C1205  N1232   1.376   .     A
C1206  C1210   1.478   .     S
C1206  N1231   1.377   .     A
C1206  C919    1.429   1_565 S
C1207  N1232   1.379   .     A
C1207  C1211   1.478   .     S
C1208  N1231   1.380   .     A
C1208  C1213   1.479   .     S
C1208  C917    1.429   1_565 S
C1209  O1234   1.398   .     S
C1209  O1248   1.221   .     D
C1210  O1235   1.223   .     D
C1210  O1236   1.396   .     S
C1211  O1238   1.398   .     S
C1211  O1237   1.220   .     D
C1212  O1241   1.305   .     A
C1212  O1242   1.312   .     A
C1213  O1239   1.223   .     D
C1213  O1240   1.394   .     S
C1214  C1216   1.406   .     S
C1214  O1244   1.300   .     A
C1214  O1247   1.298   .     A
C1215  O1245   1.300   .     A
C1215  O1246   1.298   .     A
C1215  C1217   1.406   .     S
C1217  C352    1.189   1_556 S
C1218  I1227   2.146   .     S
C1219  I1228   2.146   .     S
C1219  C1250   1.392   .     S
C1220  I1229   2.139   .     S
C1220  C1266   1.392   .     S
Cu1221 O1244   1.927   .     S
Cu1221 Cu1222  2.717   .     S
Cu1221 N1231   2.042   .     S
Cu1221 O1233   1.968   .     S
Cu1221 O1242   1.960   .     S
Cu1221 O1246   1.925   .     S
Cu1222 O1243   1.960   .     S
Cu1222 O1247   1.925   .     S
Cu1222 N1232   2.042   .     S
Cu1222 O1241   1.968   .     S
Cu1222 O1245   1.927   .     S
H1223  O1234   1.014   .     S
H1224  O1236   1.014   .     S
H1225  O1238   1.014   .     S
H1226  O1240   1.014   .     S
C1249  C1252   1.469   .     S
C1249  O1281   1.305   .     A
C1249  O1291   1.312   .     A
C1250  C1252   1.412   .     A
C1250  I1278   2.139   .     S
C1251  C1267   1.406   .     A
C1251  C1268   1.412   .     A
C1251  C1260   1.469   .     S
C1252  C1266   1.406   .     A
C1253  C1257   1.478   .     S
C1253  N1280   1.376   .     A
C1254  C1258   1.478   .     S
C1254  N1279   1.377   .     A
C1254  C967    1.429   1_565 S
C1255  N1280   1.379   .     A
C1255  C1259   1.478   .     S
C1256  N1279   1.380   .     A
C1256  C1261   1.479   .     S
C1256  C965    1.429   1_565 S
C1257  O1282   1.398   .     S
C1257  O1296   1.221   .     D
C1258  O1283   1.223   .     D
C1258  O1284   1.396   .     S
C1259  O1286   1.398   .     S
C1259  O1285   1.220   .     D
C1260  O1289   1.305   .     A
C1260  O1290   1.312   .     A
C1261  O1287   1.223   .     D
C1261  O1288   1.394   .     S
C1262  C1264   1.406   .     S
C1262  O1292   1.300   .     A
C1262  O1295   1.298   .     A
C1263  O1293   1.300   .     A
C1263  O1294   1.298   .     A
C1263  C1265   1.406   .     S
C1265  C400    1.189   1_556 S
C1266  I1275   2.146   .     S
C1267  I1276   2.146   .     S
C1267  C1154   1.392   1_655 S
C1268  I1277   2.139   .     S
C1268  C1170   1.392   1_655 S
Cu1269 O1292   1.927   .     S
Cu1269 Cu1270  2.717   .     S
Cu1269 N1279   2.042   .     S
Cu1269 O1281   1.968   .     S
Cu1269 O1290   1.960   .     S
Cu1269 O1294   1.925   .     S
Cu1270 O1291   1.960   .     S
Cu1270 O1295   1.925   .     S
Cu1270 N1280   2.042   .     S
Cu1270 O1289   1.968   .     S
Cu1270 O1293   1.927   .     S
H1271  O1282   1.014   .     S
H1272  O1284   1.014   .     S
H1273  O1286   1.014   .     S
H1274  O1288   1.014   .     S
