data_str_m2_o2_o10_pcu_sym.166
_audit_creation_date              2020-01-03
_audit_creation_method            'Materials Studio'
_symmetry_space_group_name_H-M    'P1'
_symmetry_Int_Tables_number       1
_symmetry_cell_setting            triclinic
loop_
_symmetry_equiv_pos_as_xyz
  x,y,z
_cell_length_a                    26.2037
_cell_length_b                    30.2925
_cell_length_c                    27.7658
_cell_angle_alpha                 89.8814
_cell_angle_beta                  98.0343
_cell_angle_gamma                 90.3339
loop_
_atom_site_label
_atom_site_type_symbol
_atom_site_fract_x
_atom_site_fract_y
_atom_site_fract_z
_atom_site_U_iso_or_equiv
_atom_site_adp_type
_atom_site_occupancy
C1     C     0.16692   0.16493   0.25013   0.00000  Uiso   1.00
C2     C     0.16701   0.33507   0.24996   0.00000  Uiso   1.00
C3     C     0.20576   0.27171   0.05925   0.00000  Uiso   1.00
C4     C     0.14129   0.21649   0.44257   0.00000  Uiso   1.00
C5     C     0.20443   0.27193   0.10973   0.00000  Uiso   1.00
C6     C     0.14108   0.21762   0.39187   0.00000  Uiso   1.00
C7     C     0.12938   0.22753   0.09970   0.00000  Uiso   1.00
C8     C     0.19289   0.28192   0.39885   0.00000  Uiso   1.00
C9     C     0.12852   0.22753   0.04897   0.00000  Uiso   1.00
C10    C     0.19285   0.28264   0.44946   0.00000  Uiso   1.00
C11    C     0.16716   0.24959   0.02743   0.00000  Uiso   1.00
C12    C     0.16709   0.24954   0.47270   0.00000  Uiso   1.00
C13    C     0.06790   0.24998   0.23754   0.00000  Uiso   1.00
C14    C     0.26543   0.25002   0.26246   0.00000  Uiso   1.00
C15    C     0.01260   0.25001   0.23068   0.00000  Uiso   1.00
C16    C     0.32073   0.25001   0.26930   0.00000  Uiso   1.00
C17    C     0.18324   0.04727   0.29317   0.00000  Uiso   1.00
C18    C     0.18343   0.45290   0.21131   0.00000  Uiso   1.00
C19    C     0.18345   0.09316   0.29353   0.00000  Uiso   1.00
C20    C     0.18372   0.40701   0.21102   0.00000  Uiso   1.00
C21    C     0.16708   0.11664   0.25042   0.00000  Uiso   1.00
C22    C     0.16725   0.38336   0.24975   0.00000  Uiso   1.00
C23    C     0.15057   0.09355   0.20727   0.00000  Uiso   1.00
C24    C     0.15070   0.40628   0.28854   0.00000  Uiso   1.00
C25    C     0.15002   0.04766   0.20716   0.00000  Uiso   1.00
C26    C     0.15009   0.45215   0.28851   0.00000  Uiso   1.00
C27    C     0.16643   0.02423   0.25009   0.00000  Uiso   1.00
C28    C     0.16649   0.47576   0.24991   0.00000  Uiso   1.00
Cu29   Cu    0.16667   0.24999   0.29821   0.00000  Uiso   1.00
Cu30   Cu    0.16667   0.25000   0.20178   0.00000  Uiso   1.00
H31    H     0.32590   0.25004   0.19364   0.00000  Uiso   1.00
H32    H     0.00744   0.24998   0.30634   0.00000  Uiso   1.00
H33    H     0.19698   0.02975   0.32647   0.00000  Uiso   1.00
H34    H     0.19720   0.47057   0.18167   0.00000  Uiso   1.00
H35    H     0.13744   0.11094   0.17374   0.00000  Uiso   1.00
H36    H     0.13757   0.38875   0.31860   0.00000  Uiso   1.00
H37    H     0.13624   0.03051   0.17363   0.00000  Uiso   1.00
H38    H     0.13623   0.46915   0.31838   0.00000  Uiso   1.00
H39    H     0.23746   0.28842   0.04577   0.00000  Uiso   1.00
H40    H     0.12177   0.18933   0.45766   0.00000  Uiso   1.00
H41    H     0.23412   0.28947   0.13329   0.00000  Uiso   1.00
H42    H     0.12066   0.19218   0.36952   0.00000  Uiso   1.00
H43    H     0.09716   0.21051   0.02706   0.00000  Uiso   1.00
H44    H     0.21272   0.30950   0.46984   0.00000  Uiso   1.00
N45    N     0.16667   0.25001   0.12934   0.00000  Uiso   1.00
N46    N     0.16667   0.24999   0.37065   0.00000  Uiso   1.00
O47    O     0.16667   0.18572   0.29071   0.00000  Uiso   1.00
O48    O     0.16666   0.31427   0.20928   0.00000  Uiso   1.00
O49    O     0.16667   0.18573   0.20928   0.00000  Uiso   1.00
O50    O     0.16666   0.31427   0.29072   0.00000  Uiso   1.00
O51    O     0.09161   0.24999   0.28132   0.00000  Uiso   1.00
O52    O     0.24172   0.25000   0.21868   0.00000  Uiso   1.00
O53    O     0.09161   0.25000   0.19988   0.00000  Uiso   1.00
O54    O     0.24172   0.25000   0.30011   0.00000  Uiso   1.00
F55    F     0.20078   0.11435   0.33576   0.00000  Uiso   1.00
F56    F     0.20119   0.38600   0.17343   0.00000  Uiso   1.00
F57    F     0.09266   0.20454   0.11905   0.00000  Uiso   1.00
F58    F     0.21980   0.31337   0.37825   0.00000  Uiso   1.00
C59    C     0.50025   0.16493   0.25013   0.00000  Uiso   1.00
C60    C     0.50035   0.33507   0.24996   0.00000  Uiso   1.00
C61    C     0.53909   0.27171   0.05925   0.00000  Uiso   1.00
C62    C     0.47462   0.21649   0.44257   0.00000  Uiso   1.00
C63    C     0.53777   0.27193   0.10973   0.00000  Uiso   1.00
C64    C     0.47441   0.21762   0.39187   0.00000  Uiso   1.00
C65    C     0.46272   0.22753   0.09970   0.00000  Uiso   1.00
C66    C     0.52622   0.28192   0.39885   0.00000  Uiso   1.00
C67    C     0.46185   0.22753   0.04897   0.00000  Uiso   1.00
C68    C     0.52619   0.28264   0.44946   0.00000  Uiso   1.00
C69    C     0.50049   0.24959   0.02743   0.00000  Uiso   1.00
C70    C     0.50042   0.24954   0.47270   0.00000  Uiso   1.00
C71    C     0.40123   0.24998   0.23754   0.00000  Uiso   1.00
C72    C     0.59877   0.25002   0.26246   0.00000  Uiso   1.00
C73    C     0.34594   0.25001   0.23068   0.00000  Uiso   1.00
C74    C     0.65406   0.25001   0.26930   0.00000  Uiso   1.00
C75    C     0.51657   0.04727   0.29317   0.00000  Uiso   1.00
C76    C     0.51677   0.45290   0.21131   0.00000  Uiso   1.00
C77    C     0.51679   0.09316   0.29353   0.00000  Uiso   1.00
C78    C     0.51705   0.40701   0.21102   0.00000  Uiso   1.00
C79    C     0.50041   0.11664   0.25042   0.00000  Uiso   1.00
C80    C     0.50058   0.38336   0.24975   0.00000  Uiso   1.00
C81    C     0.48391   0.09355   0.20727   0.00000  Uiso   1.00
C82    C     0.48404   0.40628   0.28854   0.00000  Uiso   1.00
C83    C     0.48336   0.04766   0.20716   0.00000  Uiso   1.00
C84    C     0.48342   0.45215   0.28851   0.00000  Uiso   1.00
C85    C     0.49976   0.02423   0.25009   0.00000  Uiso   1.00
C86    C     0.49982   0.47576   0.24991   0.00000  Uiso   1.00
Cu87   Cu    0.50000   0.24999   0.29821   0.00000  Uiso   1.00
Cu88   Cu    0.50000   0.25000   0.20178   0.00000  Uiso   1.00
H89    H     0.65923   0.25004   0.19364   0.00000  Uiso   1.00
H90    H     0.34077   0.24998   0.30634   0.00000  Uiso   1.00
H91    H     0.53031   0.02975   0.32647   0.00000  Uiso   1.00
H92    H     0.53054   0.47057   0.18167   0.00000  Uiso   1.00
H93    H     0.47077   0.11094   0.17374   0.00000  Uiso   1.00
H94    H     0.47090   0.38875   0.31860   0.00000  Uiso   1.00
H95    H     0.46957   0.03051   0.17363   0.00000  Uiso   1.00
H96    H     0.46957   0.46915   0.31838   0.00000  Uiso   1.00
H97    H     0.57079   0.28842   0.04577   0.00000  Uiso   1.00
H98    H     0.45510   0.18933   0.45766   0.00000  Uiso   1.00
H99    H     0.56746   0.28947   0.13329   0.00000  Uiso   1.00
H100   H     0.45399   0.19218   0.36952   0.00000  Uiso   1.00
H101   H     0.43050   0.21051   0.02706   0.00000  Uiso   1.00
H102   H     0.54605   0.30950   0.46984   0.00000  Uiso   1.00
N103   N     0.50000   0.25001   0.12934   0.00000  Uiso   1.00
N104   N     0.50000   0.24999   0.37065   0.00000  Uiso   1.00
O105   O     0.50000   0.18572   0.29071   0.00000  Uiso   1.00
O106   O     0.50000   0.31427   0.20928   0.00000  Uiso   1.00
O107   O     0.50000   0.18573   0.20928   0.00000  Uiso   1.00
O108   O     0.50000   0.31427   0.29072   0.00000  Uiso   1.00
O109   O     0.42495   0.24999   0.28132   0.00000  Uiso   1.00
O110   O     0.57505   0.25000   0.21868   0.00000  Uiso   1.00
O111   O     0.42495   0.25000   0.19988   0.00000  Uiso   1.00
O112   O     0.57505   0.25000   0.30011   0.00000  Uiso   1.00
F113   F     0.53411   0.11435   0.33576   0.00000  Uiso   1.00
F114   F     0.53452   0.38600   0.17343   0.00000  Uiso   1.00
F115   F     0.42599   0.20454   0.11905   0.00000  Uiso   1.00
F116   F     0.55313   0.31337   0.37825   0.00000  Uiso   1.00
C117   C     0.83359   0.16493   0.25013   0.00000  Uiso   1.00
C118   C     0.83368   0.33507   0.24996   0.00000  Uiso   1.00
C119   C     0.87243   0.27171   0.05925   0.00000  Uiso   1.00
C120   C     0.80795   0.21649   0.44257   0.00000  Uiso   1.00
C121   C     0.87110   0.27193   0.10973   0.00000  Uiso   1.00
C122   C     0.80774   0.21762   0.39187   0.00000  Uiso   1.00
C123   C     0.79605   0.22753   0.09970   0.00000  Uiso   1.00
C124   C     0.85956   0.28192   0.39885   0.00000  Uiso   1.00
C125   C     0.79518   0.22753   0.04897   0.00000  Uiso   1.00
C126   C     0.85952   0.28264   0.44946   0.00000  Uiso   1.00
C127   C     0.83383   0.24959   0.02743   0.00000  Uiso   1.00
C128   C     0.83376   0.24954   0.47270   0.00000  Uiso   1.00
C129   C     0.73456   0.24998   0.23754   0.00000  Uiso   1.00
C130   C     0.93210   0.25002   0.26246   0.00000  Uiso   1.00
C131   C     0.67927   0.25001   0.23068   0.00000  Uiso   1.00
C132   C     0.98739   0.25001   0.26930   0.00000  Uiso   1.00
C133   C     0.84990   0.04727   0.29317   0.00000  Uiso   1.00
C134   C     0.85010   0.45290   0.21131   0.00000  Uiso   1.00
C135   C     0.85012   0.09316   0.29353   0.00000  Uiso   1.00
C136   C     0.85038   0.40701   0.21102   0.00000  Uiso   1.00
C137   C     0.83374   0.11664   0.25042   0.00000  Uiso   1.00
C138   C     0.83392   0.38336   0.24975   0.00000  Uiso   1.00
C139   C     0.81724   0.09355   0.20727   0.00000  Uiso   1.00
C140   C     0.81737   0.40628   0.28854   0.00000  Uiso   1.00
C141   C     0.81669   0.04766   0.20716   0.00000  Uiso   1.00
C142   C     0.81675   0.45215   0.28851   0.00000  Uiso   1.00
C143   C     0.83310   0.02423   0.25009   0.00000  Uiso   1.00
C144   C     0.83316   0.47576   0.24991   0.00000  Uiso   1.00
Cu145  Cu    0.83333   0.24999   0.29821   0.00000  Uiso   1.00
Cu146  Cu    0.83333   0.25000   0.20178   0.00000  Uiso   1.00
H147   H     0.99256   0.25004   0.19364   0.00000  Uiso   1.00
H148   H     0.67410   0.24998   0.30634   0.00000  Uiso   1.00
H149   H     0.86364   0.02975   0.32647   0.00000  Uiso   1.00
H150   H     0.86387   0.47057   0.18167   0.00000  Uiso   1.00
H151   H     0.80410   0.11094   0.17374   0.00000  Uiso   1.00
H152   H     0.80423   0.38875   0.31860   0.00000  Uiso   1.00
H153   H     0.80290   0.03051   0.17363   0.00000  Uiso   1.00
H154   H     0.80290   0.46915   0.31838   0.00000  Uiso   1.00
H155   H     0.90413   0.28842   0.04577   0.00000  Uiso   1.00
H156   H     0.78843   0.18933   0.45766   0.00000  Uiso   1.00
H157   H     0.90079   0.28947   0.13329   0.00000  Uiso   1.00
H158   H     0.78732   0.19218   0.36952   0.00000  Uiso   1.00
H159   H     0.76383   0.21051   0.02706   0.00000  Uiso   1.00
H160   H     0.87938   0.30950   0.46984   0.00000  Uiso   1.00
N161   N     0.83333   0.25001   0.12934   0.00000  Uiso   1.00
N162   N     0.83333   0.24999   0.37065   0.00000  Uiso   1.00
O163   O     0.83334   0.18572   0.29071   0.00000  Uiso   1.00
O164   O     0.83333   0.31427   0.20928   0.00000  Uiso   1.00
O165   O     0.83334   0.18573   0.20928   0.00000  Uiso   1.00
O166   O     0.83333   0.31427   0.29072   0.00000  Uiso   1.00
O167   O     0.75828   0.24999   0.28132   0.00000  Uiso   1.00
O168   O     0.90839   0.25000   0.21868   0.00000  Uiso   1.00
O169   O     0.75828   0.25000   0.19988   0.00000  Uiso   1.00
O170   O     0.90839   0.25000   0.30011   0.00000  Uiso   1.00
F171   F     0.86745   0.11435   0.33576   0.00000  Uiso   1.00
F172   F     0.86785   0.38600   0.17343   0.00000  Uiso   1.00
F173   F     0.75932   0.20454   0.11905   0.00000  Uiso   1.00
F174   F     0.88646   0.31337   0.37825   0.00000  Uiso   1.00
C175   C     0.16692   0.66493   0.25013   0.00000  Uiso   1.00
C176   C     0.16701   0.83507   0.24996   0.00000  Uiso   1.00
C177   C     0.20576   0.77171   0.05925   0.00000  Uiso   1.00
C178   C     0.14129   0.71649   0.44257   0.00000  Uiso   1.00
C179   C     0.20443   0.77193   0.10973   0.00000  Uiso   1.00
C180   C     0.14108   0.71762   0.39187   0.00000  Uiso   1.00
C181   C     0.12938   0.72753   0.09970   0.00000  Uiso   1.00
C182   C     0.19289   0.78192   0.39885   0.00000  Uiso   1.00
C183   C     0.12852   0.72753   0.04897   0.00000  Uiso   1.00
C184   C     0.19285   0.78264   0.44946   0.00000  Uiso   1.00
C185   C     0.16716   0.74959   0.02743   0.00000  Uiso   1.00
C186   C     0.16709   0.74954   0.47270   0.00000  Uiso   1.00
C187   C     0.06790   0.74998   0.23754   0.00000  Uiso   1.00
C188   C     0.26543   0.75002   0.26246   0.00000  Uiso   1.00
C189   C     0.01260   0.75001   0.23068   0.00000  Uiso   1.00
C190   C     0.32073   0.75001   0.26930   0.00000  Uiso   1.00
C191   C     0.18324   0.54727   0.29317   0.00000  Uiso   1.00
C192   C     0.18343   0.95290   0.21131   0.00000  Uiso   1.00
C193   C     0.18345   0.59316   0.29353   0.00000  Uiso   1.00
C194   C     0.18372   0.90701   0.21102   0.00000  Uiso   1.00
C195   C     0.16708   0.61664   0.25042   0.00000  Uiso   1.00
C196   C     0.16725   0.88336   0.24975   0.00000  Uiso   1.00
C197   C     0.15057   0.59355   0.20727   0.00000  Uiso   1.00
C198   C     0.15070   0.90628   0.28854   0.00000  Uiso   1.00
C199   C     0.15002   0.54766   0.20716   0.00000  Uiso   1.00
C200   C     0.15009   0.95215   0.28851   0.00000  Uiso   1.00
C201   C     0.16643   0.52423   0.25009   0.00000  Uiso   1.00
C202   C     0.16649   0.97576   0.24991   0.00000  Uiso   1.00
Cu203  Cu    0.16667   0.74999   0.29821   0.00000  Uiso   1.00
Cu204  Cu    0.16667   0.75000   0.20178   0.00000  Uiso   1.00
H205   H     0.32590   0.75004   0.19364   0.00000  Uiso   1.00
H206   H     0.00744   0.74998   0.30634   0.00000  Uiso   1.00
H207   H     0.19698   0.52975   0.32647   0.00000  Uiso   1.00
H208   H     0.19720   0.97057   0.18167   0.00000  Uiso   1.00
H209   H     0.13744   0.61094   0.17374   0.00000  Uiso   1.00
H210   H     0.13757   0.88875   0.31860   0.00000  Uiso   1.00
H211   H     0.13624   0.53051   0.17363   0.00000  Uiso   1.00
H212   H     0.13623   0.96915   0.31838   0.00000  Uiso   1.00
H213   H     0.23746   0.78842   0.04577   0.00000  Uiso   1.00
H214   H     0.12177   0.68933   0.45766   0.00000  Uiso   1.00
H215   H     0.23412   0.78947   0.13329   0.00000  Uiso   1.00
H216   H     0.12066   0.69218   0.36952   0.00000  Uiso   1.00
H217   H     0.09716   0.71051   0.02706   0.00000  Uiso   1.00
H218   H     0.21272   0.80950   0.46984   0.00000  Uiso   1.00
N219   N     0.16667   0.75001   0.12934   0.00000  Uiso   1.00
N220   N     0.16667   0.74999   0.37065   0.00000  Uiso   1.00
O221   O     0.16667   0.68572   0.29071   0.00000  Uiso   1.00
O222   O     0.16666   0.81427   0.20928   0.00000  Uiso   1.00
O223   O     0.16667   0.68573   0.20928   0.00000  Uiso   1.00
O224   O     0.16666   0.81427   0.29072   0.00000  Uiso   1.00
O225   O     0.09161   0.74999   0.28132   0.00000  Uiso   1.00
O226   O     0.24172   0.75000   0.21868   0.00000  Uiso   1.00
O227   O     0.09161   0.75000   0.19988   0.00000  Uiso   1.00
O228   O     0.24172   0.75000   0.30011   0.00000  Uiso   1.00
F229   F     0.20078   0.61435   0.33576   0.00000  Uiso   1.00
F230   F     0.20119   0.88600   0.17343   0.00000  Uiso   1.00
F231   F     0.09266   0.70454   0.11905   0.00000  Uiso   1.00
F232   F     0.21980   0.81337   0.37825   0.00000  Uiso   1.00
C233   C     0.50025   0.66493   0.25013   0.00000  Uiso   1.00
C234   C     0.50035   0.83507   0.24996   0.00000  Uiso   1.00
C235   C     0.53909   0.77171   0.05925   0.00000  Uiso   1.00
C236   C     0.47462   0.71649   0.44257   0.00000  Uiso   1.00
C237   C     0.53777   0.77193   0.10973   0.00000  Uiso   1.00
C238   C     0.47441   0.71762   0.39187   0.00000  Uiso   1.00
C239   C     0.46272   0.72753   0.09970   0.00000  Uiso   1.00
C240   C     0.52622   0.78192   0.39885   0.00000  Uiso   1.00
C241   C     0.46185   0.72753   0.04897   0.00000  Uiso   1.00
C242   C     0.52619   0.78264   0.44946   0.00000  Uiso   1.00
C243   C     0.50049   0.74959   0.02743   0.00000  Uiso   1.00
C244   C     0.50042   0.74954   0.47270   0.00000  Uiso   1.00
C245   C     0.40123   0.74998   0.23754   0.00000  Uiso   1.00
C246   C     0.59877   0.75002   0.26246   0.00000  Uiso   1.00
C247   C     0.34594   0.75001   0.23068   0.00000  Uiso   1.00
C248   C     0.65406   0.75001   0.26930   0.00000  Uiso   1.00
C249   C     0.51657   0.54727   0.29317   0.00000  Uiso   1.00
C250   C     0.51677   0.95290   0.21131   0.00000  Uiso   1.00
C251   C     0.51679   0.59316   0.29353   0.00000  Uiso   1.00
C252   C     0.51705   0.90701   0.21102   0.00000  Uiso   1.00
C253   C     0.50041   0.61664   0.25042   0.00000  Uiso   1.00
C254   C     0.50058   0.88336   0.24975   0.00000  Uiso   1.00
C255   C     0.48391   0.59355   0.20727   0.00000  Uiso   1.00
C256   C     0.48404   0.90628   0.28854   0.00000  Uiso   1.00
C257   C     0.48336   0.54766   0.20716   0.00000  Uiso   1.00
C258   C     0.48342   0.95215   0.28851   0.00000  Uiso   1.00
C259   C     0.49976   0.52423   0.25009   0.00000  Uiso   1.00
C260   C     0.49982   0.97576   0.24991   0.00000  Uiso   1.00
Cu261  Cu    0.50000   0.74999   0.29821   0.00000  Uiso   1.00
Cu262  Cu    0.50000   0.75000   0.20178   0.00000  Uiso   1.00
H263   H     0.65923   0.75004   0.19364   0.00000  Uiso   1.00
H264   H     0.34077   0.74998   0.30634   0.00000  Uiso   1.00
H265   H     0.53031   0.52975   0.32647   0.00000  Uiso   1.00
H266   H     0.53054   0.97057   0.18167   0.00000  Uiso   1.00
H267   H     0.47077   0.61094   0.17374   0.00000  Uiso   1.00
H268   H     0.47090   0.88875   0.31860   0.00000  Uiso   1.00
H269   H     0.46957   0.53051   0.17363   0.00000  Uiso   1.00
H270   H     0.46957   0.96915   0.31838   0.00000  Uiso   1.00
H271   H     0.57079   0.78842   0.04577   0.00000  Uiso   1.00
H272   H     0.45510   0.68933   0.45766   0.00000  Uiso   1.00
H273   H     0.56746   0.78947   0.13329   0.00000  Uiso   1.00
H274   H     0.45399   0.69218   0.36952   0.00000  Uiso   1.00
H275   H     0.43050   0.71051   0.02706   0.00000  Uiso   1.00
H276   H     0.54605   0.80950   0.46984   0.00000  Uiso   1.00
N277   N     0.50000   0.75001   0.12934   0.00000  Uiso   1.00
N278   N     0.50000   0.74999   0.37065   0.00000  Uiso   1.00
O279   O     0.50000   0.68572   0.29071   0.00000  Uiso   1.00
O280   O     0.50000   0.81427   0.20928   0.00000  Uiso   1.00
O281   O     0.50000   0.68573   0.20928   0.00000  Uiso   1.00
O282   O     0.50000   0.81427   0.29072   0.00000  Uiso   1.00
O283   O     0.42495   0.74999   0.28132   0.00000  Uiso   1.00
O284   O     0.57505   0.75000   0.21868   0.00000  Uiso   1.00
O285   O     0.42495   0.75000   0.19988   0.00000  Uiso   1.00
O286   O     0.57505   0.75000   0.30011   0.00000  Uiso   1.00
F287   F     0.53411   0.61435   0.33576   0.00000  Uiso   1.00
F288   F     0.53452   0.88600   0.17343   0.00000  Uiso   1.00
F289   F     0.42599   0.70454   0.11905   0.00000  Uiso   1.00
F290   F     0.55313   0.81337   0.37825   0.00000  Uiso   1.00
C291   C     0.83359   0.66493   0.25013   0.00000  Uiso   1.00
C292   C     0.83368   0.83507   0.24996   0.00000  Uiso   1.00
C293   C     0.87243   0.77171   0.05925   0.00000  Uiso   1.00
C294   C     0.80795   0.71649   0.44257   0.00000  Uiso   1.00
C295   C     0.87110   0.77193   0.10973   0.00000  Uiso   1.00
C296   C     0.80774   0.71762   0.39187   0.00000  Uiso   1.00
C297   C     0.79605   0.72753   0.09970   0.00000  Uiso   1.00
C298   C     0.85956   0.78192   0.39885   0.00000  Uiso   1.00
C299   C     0.79518   0.72753   0.04897   0.00000  Uiso   1.00
C300   C     0.85952   0.78264   0.44946   0.00000  Uiso   1.00
C301   C     0.83383   0.74959   0.02743   0.00000  Uiso   1.00
C302   C     0.83376   0.74954   0.47270   0.00000  Uiso   1.00
C303   C     0.73456   0.74998   0.23754   0.00000  Uiso   1.00
C304   C     0.93210   0.75002   0.26246   0.00000  Uiso   1.00
C305   C     0.67927   0.75001   0.23068   0.00000  Uiso   1.00
C306   C     0.98739   0.75001   0.26930   0.00000  Uiso   1.00
C307   C     0.84990   0.54727   0.29317   0.00000  Uiso   1.00
C308   C     0.85010   0.95290   0.21131   0.00000  Uiso   1.00
C309   C     0.85012   0.59316   0.29353   0.00000  Uiso   1.00
C310   C     0.85038   0.90701   0.21102   0.00000  Uiso   1.00
C311   C     0.83374   0.61664   0.25042   0.00000  Uiso   1.00
C312   C     0.83392   0.88336   0.24975   0.00000  Uiso   1.00
C313   C     0.81724   0.59355   0.20727   0.00000  Uiso   1.00
C314   C     0.81737   0.90628   0.28854   0.00000  Uiso   1.00
C315   C     0.81669   0.54766   0.20716   0.00000  Uiso   1.00
C316   C     0.81675   0.95215   0.28851   0.00000  Uiso   1.00
C317   C     0.83310   0.52423   0.25009   0.00000  Uiso   1.00
C318   C     0.83316   0.97576   0.24991   0.00000  Uiso   1.00
Cu319  Cu    0.83333   0.74999   0.29821   0.00000  Uiso   1.00
Cu320  Cu    0.83333   0.75000   0.20178   0.00000  Uiso   1.00
H321   H     0.99256   0.75004   0.19364   0.00000  Uiso   1.00
H322   H     0.67410   0.74998   0.30634   0.00000  Uiso   1.00
H323   H     0.86364   0.52975   0.32647   0.00000  Uiso   1.00
H324   H     0.86387   0.97057   0.18167   0.00000  Uiso   1.00
H325   H     0.80410   0.61094   0.17374   0.00000  Uiso   1.00
H326   H     0.80423   0.88875   0.31860   0.00000  Uiso   1.00
H327   H     0.80290   0.53051   0.17363   0.00000  Uiso   1.00
H328   H     0.80290   0.96915   0.31838   0.00000  Uiso   1.00
H329   H     0.90413   0.78842   0.04577   0.00000  Uiso   1.00
H330   H     0.78843   0.68933   0.45766   0.00000  Uiso   1.00
H331   H     0.90079   0.78947   0.13329   0.00000  Uiso   1.00
H332   H     0.78732   0.69218   0.36952   0.00000  Uiso   1.00
H333   H     0.76383   0.71051   0.02706   0.00000  Uiso   1.00
H334   H     0.87938   0.80950   0.46984   0.00000  Uiso   1.00
N335   N     0.83333   0.75001   0.12934   0.00000  Uiso   1.00
N336   N     0.83333   0.74999   0.37065   0.00000  Uiso   1.00
O337   O     0.83334   0.68572   0.29071   0.00000  Uiso   1.00
O338   O     0.83333   0.81427   0.20928   0.00000  Uiso   1.00
O339   O     0.83334   0.68573   0.20928   0.00000  Uiso   1.00
O340   O     0.83333   0.81427   0.29072   0.00000  Uiso   1.00
O341   O     0.75828   0.74999   0.28132   0.00000  Uiso   1.00
O342   O     0.90839   0.75000   0.21868   0.00000  Uiso   1.00
O343   O     0.75828   0.75000   0.19988   0.00000  Uiso   1.00
O344   O     0.90839   0.75000   0.30011   0.00000  Uiso   1.00
F345   F     0.86745   0.61435   0.33576   0.00000  Uiso   1.00
F346   F     0.86785   0.88600   0.17343   0.00000  Uiso   1.00
F347   F     0.75932   0.70454   0.11905   0.00000  Uiso   1.00
F348   F     0.88646   0.81337   0.37825   0.00000  Uiso   1.00
C349   C     0.16692   0.16493   0.75013   0.00000  Uiso   1.00
C350   C     0.16701   0.33507   0.74996   0.00000  Uiso   1.00
C351   C     0.20576   0.27171   0.55925   0.00000  Uiso   1.00
C352   C     0.14129   0.21649   0.94257   0.00000  Uiso   1.00
C353   C     0.20443   0.27193   0.60973   0.00000  Uiso   1.00
C354   C     0.14108   0.21762   0.89187   0.00000  Uiso   1.00
C355   C     0.12938   0.22753   0.59970   0.00000  Uiso   1.00
C356   C     0.19289   0.28192   0.89885   0.00000  Uiso   1.00
C357   C     0.12852   0.22753   0.54897   0.00000  Uiso   1.00
C358   C     0.19285   0.28264   0.94946   0.00000  Uiso   1.00
C359   C     0.16716   0.24959   0.52743   0.00000  Uiso   1.00
C360   C     0.16709   0.24954   0.97270   0.00000  Uiso   1.00
C361   C     0.06790   0.24998   0.73754   0.00000  Uiso   1.00
C362   C     0.26543   0.25002   0.76246   0.00000  Uiso   1.00
C363   C     0.01260   0.25001   0.73068   0.00000  Uiso   1.00
C364   C     0.32073   0.25001   0.76930   0.00000  Uiso   1.00
C365   C     0.18324   0.04727   0.79317   0.00000  Uiso   1.00
C366   C     0.18343   0.45290   0.71131   0.00000  Uiso   1.00
C367   C     0.18345   0.09316   0.79353   0.00000  Uiso   1.00
C368   C     0.18372   0.40701   0.71102   0.00000  Uiso   1.00
C369   C     0.16708   0.11664   0.75042   0.00000  Uiso   1.00
C370   C     0.16725   0.38336   0.74975   0.00000  Uiso   1.00
C371   C     0.15057   0.09355   0.70727   0.00000  Uiso   1.00
C372   C     0.15070   0.40628   0.78854   0.00000  Uiso   1.00
C373   C     0.15002   0.04766   0.70716   0.00000  Uiso   1.00
C374   C     0.15009   0.45215   0.78851   0.00000  Uiso   1.00
C375   C     0.16643   0.02423   0.75009   0.00000  Uiso   1.00
C376   C     0.16649   0.47576   0.74991   0.00000  Uiso   1.00
Cu377  Cu    0.16667   0.24999   0.79821   0.00000  Uiso   1.00
Cu378  Cu    0.16667   0.25000   0.70178   0.00000  Uiso   1.00
H379   H     0.32590   0.25004   0.69364   0.00000  Uiso   1.00
H380   H     0.00744   0.24998   0.80634   0.00000  Uiso   1.00
H381   H     0.19698   0.02975   0.82647   0.00000  Uiso   1.00
H382   H     0.19720   0.47057   0.68167   0.00000  Uiso   1.00
H383   H     0.13744   0.11094   0.67374   0.00000  Uiso   1.00
H384   H     0.13757   0.38875   0.81860   0.00000  Uiso   1.00
H385   H     0.13624   0.03051   0.67363   0.00000  Uiso   1.00
H386   H     0.13623   0.46915   0.81838   0.00000  Uiso   1.00
H387   H     0.23746   0.28842   0.54577   0.00000  Uiso   1.00
H388   H     0.12177   0.18933   0.95766   0.00000  Uiso   1.00
H389   H     0.23412   0.28947   0.63329   0.00000  Uiso   1.00
H390   H     0.12066   0.19218   0.86952   0.00000  Uiso   1.00
H391   H     0.09716   0.21051   0.52706   0.00000  Uiso   1.00
H392   H     0.21272   0.30950   0.96984   0.00000  Uiso   1.00
N393   N     0.16667   0.25001   0.62934   0.00000  Uiso   1.00
N394   N     0.16667   0.24999   0.87065   0.00000  Uiso   1.00
O395   O     0.16667   0.18572   0.79071   0.00000  Uiso   1.00
O396   O     0.16666   0.31427   0.70928   0.00000  Uiso   1.00
O397   O     0.16667   0.18573   0.70928   0.00000  Uiso   1.00
O398   O     0.16666   0.31427   0.79072   0.00000  Uiso   1.00
O399   O     0.09161   0.24999   0.78132   0.00000  Uiso   1.00
O400   O     0.24172   0.25000   0.71868   0.00000  Uiso   1.00
O401   O     0.09161   0.25000   0.69988   0.00000  Uiso   1.00
O402   O     0.24172   0.25000   0.80011   0.00000  Uiso   1.00
F403   F     0.20078   0.11435   0.83576   0.00000  Uiso   1.00
F404   F     0.20119   0.38600   0.67343   0.00000  Uiso   1.00
F405   F     0.09266   0.20454   0.61905   0.00000  Uiso   1.00
F406   F     0.21980   0.31337   0.87825   0.00000  Uiso   1.00
C407   C     0.50025   0.16493   0.75013   0.00000  Uiso   1.00
C408   C     0.50035   0.33507   0.74996   0.00000  Uiso   1.00
C409   C     0.53909   0.27171   0.55925   0.00000  Uiso   1.00
C410   C     0.47462   0.21649   0.94257   0.00000  Uiso   1.00
C411   C     0.53777   0.27193   0.60973   0.00000  Uiso   1.00
C412   C     0.47441   0.21762   0.89187   0.00000  Uiso   1.00
C413   C     0.46272   0.22753   0.59970   0.00000  Uiso   1.00
C414   C     0.52622   0.28192   0.89885   0.00000  Uiso   1.00
C415   C     0.46185   0.22753   0.54897   0.00000  Uiso   1.00
C416   C     0.52619   0.28264   0.94946   0.00000  Uiso   1.00
C417   C     0.50049   0.24959   0.52743   0.00000  Uiso   1.00
C418   C     0.50042   0.24954   0.97270   0.00000  Uiso   1.00
C419   C     0.40123   0.24998   0.73754   0.00000  Uiso   1.00
C420   C     0.59877   0.25002   0.76246   0.00000  Uiso   1.00
C421   C     0.34594   0.25001   0.73068   0.00000  Uiso   1.00
C422   C     0.65406   0.25001   0.76930   0.00000  Uiso   1.00
C423   C     0.51657   0.04727   0.79317   0.00000  Uiso   1.00
C424   C     0.51677   0.45290   0.71131   0.00000  Uiso   1.00
C425   C     0.51679   0.09316   0.79353   0.00000  Uiso   1.00
C426   C     0.51705   0.40701   0.71102   0.00000  Uiso   1.00
C427   C     0.50041   0.11664   0.75042   0.00000  Uiso   1.00
C428   C     0.50058   0.38336   0.74975   0.00000  Uiso   1.00
C429   C     0.48391   0.09355   0.70727   0.00000  Uiso   1.00
C430   C     0.48404   0.40628   0.78854   0.00000  Uiso   1.00
C431   C     0.48336   0.04766   0.70716   0.00000  Uiso   1.00
C432   C     0.48342   0.45215   0.78851   0.00000  Uiso   1.00
C433   C     0.49976   0.02423   0.75009   0.00000  Uiso   1.00
C434   C     0.49982   0.47576   0.74991   0.00000  Uiso   1.00
Cu435  Cu    0.50000   0.24999   0.79821   0.00000  Uiso   1.00
Cu436  Cu    0.50000   0.25000   0.70178   0.00000  Uiso   1.00
H437   H     0.65923   0.25004   0.69364   0.00000  Uiso   1.00
H438   H     0.34077   0.24998   0.80634   0.00000  Uiso   1.00
H439   H     0.53031   0.02975   0.82647   0.00000  Uiso   1.00
H440   H     0.53054   0.47057   0.68167   0.00000  Uiso   1.00
H441   H     0.47077   0.11094   0.67374   0.00000  Uiso   1.00
H442   H     0.47090   0.38875   0.81860   0.00000  Uiso   1.00
H443   H     0.46957   0.03051   0.67363   0.00000  Uiso   1.00
H444   H     0.46957   0.46915   0.81838   0.00000  Uiso   1.00
H445   H     0.57079   0.28842   0.54577   0.00000  Uiso   1.00
H446   H     0.45510   0.18933   0.95766   0.00000  Uiso   1.00
H447   H     0.56746   0.28947   0.63329   0.00000  Uiso   1.00
H448   H     0.45399   0.19218   0.86952   0.00000  Uiso   1.00
H449   H     0.43050   0.21051   0.52706   0.00000  Uiso   1.00
H450   H     0.54605   0.30950   0.96984   0.00000  Uiso   1.00
N451   N     0.50000   0.25001   0.62934   0.00000  Uiso   1.00
N452   N     0.50000   0.24999   0.87065   0.00000  Uiso   1.00
O453   O     0.50000   0.18572   0.79071   0.00000  Uiso   1.00
O454   O     0.50000   0.31427   0.70928   0.00000  Uiso   1.00
O455   O     0.50000   0.18573   0.70928   0.00000  Uiso   1.00
O456   O     0.50000   0.31427   0.79072   0.00000  Uiso   1.00
O457   O     0.42495   0.24999   0.78132   0.00000  Uiso   1.00
O458   O     0.57505   0.25000   0.71868   0.00000  Uiso   1.00
O459   O     0.42495   0.25000   0.69988   0.00000  Uiso   1.00
O460   O     0.57505   0.25000   0.80011   0.00000  Uiso   1.00
F461   F     0.53411   0.11435   0.83576   0.00000  Uiso   1.00
F462   F     0.53452   0.38600   0.67343   0.00000  Uiso   1.00
F463   F     0.42599   0.20454   0.61905   0.00000  Uiso   1.00
F464   F     0.55313   0.31337   0.87825   0.00000  Uiso   1.00
C465   C     0.83359   0.16493   0.75013   0.00000  Uiso   1.00
C466   C     0.83368   0.33507   0.74996   0.00000  Uiso   1.00
C467   C     0.87243   0.27171   0.55925   0.00000  Uiso   1.00
C468   C     0.80795   0.21649   0.94257   0.00000  Uiso   1.00
C469   C     0.87110   0.27193   0.60973   0.00000  Uiso   1.00
C470   C     0.80774   0.21762   0.89187   0.00000  Uiso   1.00
C471   C     0.79605   0.22753   0.59970   0.00000  Uiso   1.00
C472   C     0.85956   0.28192   0.89885   0.00000  Uiso   1.00
C473   C     0.79518   0.22753   0.54897   0.00000  Uiso   1.00
C474   C     0.85952   0.28264   0.94946   0.00000  Uiso   1.00
C475   C     0.83383   0.24959   0.52743   0.00000  Uiso   1.00
C476   C     0.83376   0.24954   0.97270   0.00000  Uiso   1.00
C477   C     0.73456   0.24998   0.73754   0.00000  Uiso   1.00
C478   C     0.93210   0.25002   0.76246   0.00000  Uiso   1.00
C479   C     0.67927   0.25001   0.73068   0.00000  Uiso   1.00
C480   C     0.98739   0.25001   0.76930   0.00000  Uiso   1.00
C481   C     0.84990   0.04727   0.79317   0.00000  Uiso   1.00
C482   C     0.85010   0.45290   0.71131   0.00000  Uiso   1.00
C483   C     0.85012   0.09316   0.79353   0.00000  Uiso   1.00
C484   C     0.85038   0.40701   0.71102   0.00000  Uiso   1.00
C485   C     0.83374   0.11664   0.75042   0.00000  Uiso   1.00
C486   C     0.83392   0.38336   0.74975   0.00000  Uiso   1.00
C487   C     0.81724   0.09355   0.70727   0.00000  Uiso   1.00
C488   C     0.81737   0.40628   0.78854   0.00000  Uiso   1.00
C489   C     0.81669   0.04766   0.70716   0.00000  Uiso   1.00
C490   C     0.81675   0.45215   0.78851   0.00000  Uiso   1.00
C491   C     0.83310   0.02423   0.75009   0.00000  Uiso   1.00
C492   C     0.83316   0.47576   0.74991   0.00000  Uiso   1.00
Cu493  Cu    0.83333   0.24999   0.79821   0.00000  Uiso   1.00
Cu494  Cu    0.83333   0.25000   0.70178   0.00000  Uiso   1.00
H495   H     0.99256   0.25004   0.69364   0.00000  Uiso   1.00
H496   H     0.67410   0.24998   0.80634   0.00000  Uiso   1.00
H497   H     0.86364   0.02975   0.82647   0.00000  Uiso   1.00
H498   H     0.86387   0.47057   0.68167   0.00000  Uiso   1.00
H499   H     0.80410   0.11094   0.67374   0.00000  Uiso   1.00
H500   H     0.80423   0.38875   0.81860   0.00000  Uiso   1.00
H501   H     0.80290   0.03051   0.67363   0.00000  Uiso   1.00
H502   H     0.80290   0.46915   0.81838   0.00000  Uiso   1.00
H503   H     0.90413   0.28842   0.54577   0.00000  Uiso   1.00
H504   H     0.78843   0.18933   0.95766   0.00000  Uiso   1.00
H505   H     0.90079   0.28947   0.63329   0.00000  Uiso   1.00
H506   H     0.78732   0.19218   0.86952   0.00000  Uiso   1.00
H507   H     0.76383   0.21051   0.52706   0.00000  Uiso   1.00
H508   H     0.87938   0.30950   0.96984   0.00000  Uiso   1.00
N509   N     0.83333   0.25001   0.62934   0.00000  Uiso   1.00
N510   N     0.83333   0.24999   0.87065   0.00000  Uiso   1.00
O511   O     0.83334   0.18572   0.79071   0.00000  Uiso   1.00
O512   O     0.83333   0.31427   0.70928   0.00000  Uiso   1.00
O513   O     0.83334   0.18573   0.70928   0.00000  Uiso   1.00
O514   O     0.83333   0.31427   0.79072   0.00000  Uiso   1.00
O515   O     0.75828   0.24999   0.78132   0.00000  Uiso   1.00
O516   O     0.90839   0.25000   0.71868   0.00000  Uiso   1.00
O517   O     0.75828   0.25000   0.69988   0.00000  Uiso   1.00
O518   O     0.90839   0.25000   0.80011   0.00000  Uiso   1.00
F519   F     0.86745   0.11435   0.83576   0.00000  Uiso   1.00
F520   F     0.86785   0.38600   0.67343   0.00000  Uiso   1.00
F521   F     0.75932   0.20454   0.61905   0.00000  Uiso   1.00
F522   F     0.88646   0.31337   0.87825   0.00000  Uiso   1.00
C523   C     0.16692   0.66493   0.75013   0.00000  Uiso   1.00
C524   C     0.16701   0.83507   0.74996   0.00000  Uiso   1.00
C525   C     0.20576   0.77171   0.55925   0.00000  Uiso   1.00
C526   C     0.14129   0.71649   0.94257   0.00000  Uiso   1.00
C527   C     0.20443   0.77193   0.60973   0.00000  Uiso   1.00
C528   C     0.14108   0.71762   0.89187   0.00000  Uiso   1.00
C529   C     0.12938   0.72753   0.59970   0.00000  Uiso   1.00
C530   C     0.19289   0.78192   0.89885   0.00000  Uiso   1.00
C531   C     0.12852   0.72753   0.54897   0.00000  Uiso   1.00
C532   C     0.19285   0.78264   0.94946   0.00000  Uiso   1.00
C533   C     0.16716   0.74959   0.52743   0.00000  Uiso   1.00
C534   C     0.16709   0.74954   0.97270   0.00000  Uiso   1.00
C535   C     0.06790   0.74998   0.73754   0.00000  Uiso   1.00
C536   C     0.26543   0.75002   0.76246   0.00000  Uiso   1.00
C537   C     0.01260   0.75001   0.73068   0.00000  Uiso   1.00
C538   C     0.32073   0.75001   0.76930   0.00000  Uiso   1.00
C539   C     0.18324   0.54727   0.79317   0.00000  Uiso   1.00
C540   C     0.18343   0.95290   0.71131   0.00000  Uiso   1.00
C541   C     0.18345   0.59316   0.79353   0.00000  Uiso   1.00
C542   C     0.18372   0.90701   0.71102   0.00000  Uiso   1.00
C543   C     0.16708   0.61664   0.75042   0.00000  Uiso   1.00
C544   C     0.16725   0.88336   0.74975   0.00000  Uiso   1.00
C545   C     0.15057   0.59355   0.70727   0.00000  Uiso   1.00
C546   C     0.15070   0.90628   0.78854   0.00000  Uiso   1.00
C547   C     0.15002   0.54766   0.70716   0.00000  Uiso   1.00
C548   C     0.15009   0.95215   0.78851   0.00000  Uiso   1.00
C549   C     0.16643   0.52423   0.75009   0.00000  Uiso   1.00
C550   C     0.16649   0.97576   0.74991   0.00000  Uiso   1.00
Cu551  Cu    0.16667   0.74999   0.79821   0.00000  Uiso   1.00
Cu552  Cu    0.16667   0.75000   0.70178   0.00000  Uiso   1.00
H553   H     0.32590   0.75004   0.69364   0.00000  Uiso   1.00
H554   H     0.00744   0.74998   0.80634   0.00000  Uiso   1.00
H555   H     0.19698   0.52975   0.82647   0.00000  Uiso   1.00
H556   H     0.19720   0.97057   0.68167   0.00000  Uiso   1.00
H557   H     0.13744   0.61094   0.67374   0.00000  Uiso   1.00
H558   H     0.13757   0.88875   0.81860   0.00000  Uiso   1.00
H559   H     0.13624   0.53051   0.67363   0.00000  Uiso   1.00
H560   H     0.13623   0.96915   0.81838   0.00000  Uiso   1.00
H561   H     0.23746   0.78842   0.54577   0.00000  Uiso   1.00
H562   H     0.12177   0.68933   0.95766   0.00000  Uiso   1.00
H563   H     0.23412   0.78947   0.63329   0.00000  Uiso   1.00
H564   H     0.12066   0.69218   0.86952   0.00000  Uiso   1.00
H565   H     0.09716   0.71051   0.52706   0.00000  Uiso   1.00
H566   H     0.21272   0.80950   0.96984   0.00000  Uiso   1.00
N567   N     0.16667   0.75001   0.62934   0.00000  Uiso   1.00
N568   N     0.16667   0.74999   0.87065   0.00000  Uiso   1.00
O569   O     0.16667   0.68572   0.79071   0.00000  Uiso   1.00
O570   O     0.16666   0.81427   0.70928   0.00000  Uiso   1.00
O571   O     0.16667   0.68573   0.70928   0.00000  Uiso   1.00
O572   O     0.16666   0.81427   0.79072   0.00000  Uiso   1.00
O573   O     0.09161   0.74999   0.78132   0.00000  Uiso   1.00
O574   O     0.24172   0.75000   0.71868   0.00000  Uiso   1.00
O575   O     0.09161   0.75000   0.69988   0.00000  Uiso   1.00
O576   O     0.24172   0.75000   0.80011   0.00000  Uiso   1.00
F577   F     0.20078   0.61435   0.83576   0.00000  Uiso   1.00
F578   F     0.20119   0.88600   0.67343   0.00000  Uiso   1.00
F579   F     0.09266   0.70454   0.61905   0.00000  Uiso   1.00
F580   F     0.21980   0.81337   0.87825   0.00000  Uiso   1.00
C581   C     0.50025   0.66493   0.75013   0.00000  Uiso   1.00
C582   C     0.50035   0.83507   0.74996   0.00000  Uiso   1.00
C583   C     0.53909   0.77171   0.55925   0.00000  Uiso   1.00
C584   C     0.47462   0.71649   0.94257   0.00000  Uiso   1.00
C585   C     0.53777   0.77193   0.60973   0.00000  Uiso   1.00
C586   C     0.47441   0.71762   0.89187   0.00000  Uiso   1.00
C587   C     0.46272   0.72753   0.59970   0.00000  Uiso   1.00
C588   C     0.52622   0.78192   0.89885   0.00000  Uiso   1.00
C589   C     0.46185   0.72753   0.54897   0.00000  Uiso   1.00
C590   C     0.52619   0.78264   0.94946   0.00000  Uiso   1.00
C591   C     0.50049   0.74959   0.52743   0.00000  Uiso   1.00
C592   C     0.50042   0.74954   0.97270   0.00000  Uiso   1.00
C593   C     0.40123   0.74998   0.73754   0.00000  Uiso   1.00
C594   C     0.59877   0.75002   0.76246   0.00000  Uiso   1.00
C595   C     0.34594   0.75001   0.73068   0.00000  Uiso   1.00
C596   C     0.65406   0.75001   0.76930   0.00000  Uiso   1.00
C597   C     0.51657   0.54727   0.79317   0.00000  Uiso   1.00
C598   C     0.51677   0.95290   0.71131   0.00000  Uiso   1.00
C599   C     0.51679   0.59316   0.79353   0.00000  Uiso   1.00
C600   C     0.51705   0.90701   0.71102   0.00000  Uiso   1.00
C601   C     0.50041   0.61664   0.75042   0.00000  Uiso   1.00
C602   C     0.50058   0.88336   0.74975   0.00000  Uiso   1.00
C603   C     0.48391   0.59355   0.70727   0.00000  Uiso   1.00
C604   C     0.48404   0.90628   0.78854   0.00000  Uiso   1.00
C605   C     0.48336   0.54766   0.70716   0.00000  Uiso   1.00
C606   C     0.48342   0.95215   0.78851   0.00000  Uiso   1.00
C607   C     0.49976   0.52423   0.75009   0.00000  Uiso   1.00
C608   C     0.49982   0.97576   0.74991   0.00000  Uiso   1.00
Cu609  Cu    0.50000   0.74999   0.79821   0.00000  Uiso   1.00
Cu610  Cu    0.50000   0.75000   0.70178   0.00000  Uiso   1.00
H611   H     0.65923   0.75004   0.69364   0.00000  Uiso   1.00
H612   H     0.34077   0.74998   0.80634   0.00000  Uiso   1.00
H613   H     0.53031   0.52975   0.82647   0.00000  Uiso   1.00
H614   H     0.53054   0.97057   0.68167   0.00000  Uiso   1.00
H615   H     0.47077   0.61094   0.67374   0.00000  Uiso   1.00
H616   H     0.47090   0.88875   0.81860   0.00000  Uiso   1.00
H617   H     0.46957   0.53051   0.67363   0.00000  Uiso   1.00
H618   H     0.46957   0.96915   0.81838   0.00000  Uiso   1.00
H619   H     0.57079   0.78842   0.54577   0.00000  Uiso   1.00
H620   H     0.45510   0.68933   0.95766   0.00000  Uiso   1.00
H621   H     0.56746   0.78947   0.63329   0.00000  Uiso   1.00
H622   H     0.45399   0.69218   0.86952   0.00000  Uiso   1.00
H623   H     0.43050   0.71051   0.52706   0.00000  Uiso   1.00
H624   H     0.54605   0.80950   0.96984   0.00000  Uiso   1.00
N625   N     0.50000   0.75001   0.62934   0.00000  Uiso   1.00
N626   N     0.50000   0.74999   0.87065   0.00000  Uiso   1.00
O627   O     0.50000   0.68572   0.79071   0.00000  Uiso   1.00
O628   O     0.50000   0.81427   0.70928   0.00000  Uiso   1.00
O629   O     0.50000   0.68573   0.70928   0.00000  Uiso   1.00
O630   O     0.50000   0.81427   0.79072   0.00000  Uiso   1.00
O631   O     0.42495   0.74999   0.78132   0.00000  Uiso   1.00
O632   O     0.57505   0.75000   0.71868   0.00000  Uiso   1.00
O633   O     0.42495   0.75000   0.69988   0.00000  Uiso   1.00
O634   O     0.57505   0.75000   0.80011   0.00000  Uiso   1.00
F635   F     0.53411   0.61435   0.83576   0.00000  Uiso   1.00
F636   F     0.53452   0.88600   0.67343   0.00000  Uiso   1.00
F637   F     0.42599   0.70454   0.61905   0.00000  Uiso   1.00
F638   F     0.55313   0.81337   0.87825   0.00000  Uiso   1.00
C639   C     0.83359   0.66493   0.75013   0.00000  Uiso   1.00
C640   C     0.83368   0.83507   0.74996   0.00000  Uiso   1.00
C641   C     0.87243   0.77171   0.55925   0.00000  Uiso   1.00
C642   C     0.80795   0.71649   0.94257   0.00000  Uiso   1.00
C643   C     0.87110   0.77193   0.60973   0.00000  Uiso   1.00
C644   C     0.80774   0.71762   0.89187   0.00000  Uiso   1.00
C645   C     0.79605   0.72753   0.59970   0.00000  Uiso   1.00
C646   C     0.85956   0.78192   0.89885   0.00000  Uiso   1.00
C647   C     0.79518   0.72753   0.54897   0.00000  Uiso   1.00
C648   C     0.85952   0.78264   0.94946   0.00000  Uiso   1.00
C649   C     0.83383   0.74959   0.52743   0.00000  Uiso   1.00
C650   C     0.83376   0.74954   0.97270   0.00000  Uiso   1.00
C651   C     0.73456   0.74998   0.73754   0.00000  Uiso   1.00
C652   C     0.93210   0.75002   0.76246   0.00000  Uiso   1.00
C653   C     0.67927   0.75001   0.73068   0.00000  Uiso   1.00
C654   C     0.98739   0.75001   0.76930   0.00000  Uiso   1.00
C655   C     0.84990   0.54727   0.79317   0.00000  Uiso   1.00
C656   C     0.85010   0.95290   0.71131   0.00000  Uiso   1.00
C657   C     0.85012   0.59316   0.79353   0.00000  Uiso   1.00
C658   C     0.85038   0.90701   0.71102   0.00000  Uiso   1.00
C659   C     0.83374   0.61664   0.75042   0.00000  Uiso   1.00
C660   C     0.83392   0.88336   0.74975   0.00000  Uiso   1.00
C661   C     0.81724   0.59355   0.70727   0.00000  Uiso   1.00
C662   C     0.81737   0.90628   0.78854   0.00000  Uiso   1.00
C663   C     0.81669   0.54766   0.70716   0.00000  Uiso   1.00
C664   C     0.81675   0.95215   0.78851   0.00000  Uiso   1.00
C665   C     0.83310   0.52423   0.75009   0.00000  Uiso   1.00
C666   C     0.83316   0.97576   0.74991   0.00000  Uiso   1.00
Cu667  Cu    0.83333   0.74999   0.79821   0.00000  Uiso   1.00
Cu668  Cu    0.83333   0.75000   0.70178   0.00000  Uiso   1.00
H669   H     0.99256   0.75004   0.69364   0.00000  Uiso   1.00
H670   H     0.67410   0.74998   0.80634   0.00000  Uiso   1.00
H671   H     0.86364   0.52975   0.82647   0.00000  Uiso   1.00
H672   H     0.86387   0.97057   0.68167   0.00000  Uiso   1.00
H673   H     0.80410   0.61094   0.67374   0.00000  Uiso   1.00
H674   H     0.80423   0.88875   0.81860   0.00000  Uiso   1.00
H675   H     0.80290   0.53051   0.67363   0.00000  Uiso   1.00
H676   H     0.80290   0.96915   0.81838   0.00000  Uiso   1.00
H677   H     0.90413   0.78842   0.54577   0.00000  Uiso   1.00
H678   H     0.78843   0.68933   0.95766   0.00000  Uiso   1.00
H679   H     0.90079   0.78947   0.63329   0.00000  Uiso   1.00
H680   H     0.78732   0.69218   0.86952   0.00000  Uiso   1.00
H681   H     0.76383   0.71051   0.52706   0.00000  Uiso   1.00
H682   H     0.87938   0.80950   0.96984   0.00000  Uiso   1.00
N683   N     0.83333   0.75001   0.62934   0.00000  Uiso   1.00
N684   N     0.83333   0.74999   0.87065   0.00000  Uiso   1.00
O685   O     0.83334   0.68572   0.79071   0.00000  Uiso   1.00
O686   O     0.83333   0.81427   0.70928   0.00000  Uiso   1.00
O687   O     0.83334   0.68573   0.70928   0.00000  Uiso   1.00
O688   O     0.83333   0.81427   0.79072   0.00000  Uiso   1.00
O689   O     0.75828   0.74999   0.78132   0.00000  Uiso   1.00
O690   O     0.90839   0.75000   0.71868   0.00000  Uiso   1.00
O691   O     0.75828   0.75000   0.69988   0.00000  Uiso   1.00
O692   O     0.90839   0.75000   0.80011   0.00000  Uiso   1.00
F693   F     0.86745   0.61435   0.83576   0.00000  Uiso   1.00
F694   F     0.86785   0.88600   0.67343   0.00000  Uiso   1.00
F695   F     0.75932   0.70454   0.61905   0.00000  Uiso   1.00
F696   F     0.88646   0.81337   0.87825   0.00000  Uiso   1.00
loop_
_geom_bond_atom_site_label_1
_geom_bond_atom_site_label_2
_geom_bond_distance
_geom_bond_site_symmetry_2
_ccdc_geom_bond_type
C1     C21     1.463   .     S
C1     O49     1.295   .     A
C1     O47     1.293   .     A
C2     C22     1.463   .     S
C2     O48     1.293   .     A
C2     O50     1.295   .     A
C3     H39     1.080   .     S
C3     C5      1.407   .     A
C3     C11     1.413   .     A
C4     C6      1.407   .     A
C4     C12     1.413   .     A
C4     H40     1.080   .     S
C5     N45     1.363   .     A
C5     H41     1.082   .     S
C6     N46     1.363   .     A
C6     H42     1.082   .     S
C7     N45     1.366   .     A
C7     C9      1.406   .     A
C7     F57     1.355   .     S
C8     C10     1.405   .     A
C8     N46     1.366   .     A
C8     F58     1.355   .     S
C9     C11     1.410   .     A
C9     H43     1.081   .     S
C10    C12     1.410   .     A
C10    H44     1.081   .     S
C11    C360    1.519   1_554 S
C12    C359    1.519   .     S
C13    C15     1.435   .     S
C13    O53     1.289   .     A
C13    O51     1.286   .     A
C14    O54     1.289   .     A
C14    C16     1.435   .     S
C14    O52     1.286   .     A
C15    C132    1.336   1_455 S
C15    H147    1.087   1_455 S
C16    C73     1.336   .     S
C16    H90     1.087   .     S
C17    H33     1.083   .     S
C17    C27     1.402   .     A
C17    C19     1.390   .     A
C18    C28     1.402   .     A
C18    H34     1.083   .     S
C18    C20     1.390   .     A
C19    F55     1.358   .     S
C19    C21     1.407   .     A
C20    F56     1.358   .     S
C20    C22     1.407   .     A
C21    C23     1.402   .     A
C22    C24     1.402   .     A
C23    H35     1.083   .     S
C23    C25     1.390   .     A
C24    H36     1.083   .     S
C24    C26     1.390   .     A
C25    C27     1.403   .     A
C25    H37     1.083   .     S
C26    C28     1.402   .     A
C26    H38     1.083   .     S
C27    C202    1.468   1_545 S
C28    C201    1.468   .     S
Cu29   Cu30    2.677   .     S
Cu29   N46     2.011   .     S
Cu29   O47     1.958   .     S
Cu29   O50     1.958   .     S
Cu29   O51     1.957   .     S
Cu29   O54     1.960   .     S
Cu30   N45     2.011   .     S
Cu30   O49     1.958   .     S
Cu30   O53     1.960   .     S
Cu30   O48     1.958   .     S
Cu30   O52     1.957   .     S
H31    C73     1.087   .     S
H32    C132    1.087   1_455 S
C59    C79     1.463   .     S
C59    O107    1.295   .     A
C59    O105    1.293   .     A
C60    C80     1.463   .     S
C60    O106    1.293   .     A
C60    O108    1.295   .     A
C61    H97     1.080   .     S
C61    C63     1.407   .     A
C61    C69     1.413   .     A
C62    C64     1.407   .     A
C62    C70     1.413   .     A
C62    H98     1.080   .     S
C63    N103    1.363   .     A
C63    H99     1.082   .     S
C64    N104    1.363   .     A
C64    H100    1.082   .     S
C65    N103    1.366   .     A
C65    C67     1.406   .     A
C65    F115    1.355   .     S
C66    C68     1.405   .     A
C66    N104    1.366   .     A
C66    F116    1.355   .     S
C67    C69     1.410   .     A
C67    H101    1.081   .     S
C68    C70     1.410   .     A
C68    H102    1.081   .     S
C69    C418    1.519   1_554 S
C70    C417    1.519   .     S
C71    C73     1.435   .     S
C71    O111    1.289   .     A
C71    O109    1.286   .     A
C72    O112    1.289   .     A
C72    C74     1.435   .     S
C72    O110    1.286   .     A
C74    C131    1.336   .     S
C74    H148    1.087   .     S
C75    H91     1.083   .     S
C75    C85     1.402   .     A
C75    C77     1.390   .     A
C76    C86     1.402   .     A
C76    H92     1.083   .     S
C76    C78     1.390   .     A
C77    F113    1.358   .     S
C77    C79     1.407   .     A
C78    F114    1.358   .     S
C78    C80     1.407   .     A
C79    C81     1.402   .     A
C80    C82     1.402   .     A
C81    H93     1.083   .     S
C81    C83     1.390   .     A
C82    H94     1.083   .     S
C82    C84     1.390   .     A
C83    C85     1.403   .     A
C83    H95     1.083   .     S
C84    C86     1.402   .     A
C84    H96     1.083   .     S
C85    C260    1.468   1_545 S
C86    C259    1.468   .     S
Cu87   Cu88    2.677   .     S
Cu87   N104    2.011   .     S
Cu87   O105    1.958   .     S
Cu87   O108    1.958   .     S
Cu87   O109    1.957   .     S
Cu87   O112    1.960   .     S
Cu88   N103    2.011   .     S
Cu88   O107    1.958   .     S
Cu88   O111    1.960   .     S
Cu88   O106    1.958   .     S
Cu88   O110    1.957   .     S
H89    C131    1.087   .     S
C117   C137    1.463   .     S
C117   O165    1.295   .     A
C117   O163    1.293   .     A
C118   C138    1.463   .     S
C118   O164    1.293   .     A
C118   O166    1.295   .     A
C119   H155    1.080   .     S
C119   C121    1.407   .     A
C119   C127    1.413   .     A
C120   C122    1.407   .     A
C120   C128    1.413   .     A
C120   H156    1.080   .     S
C121   N161    1.363   .     A
C121   H157    1.082   .     S
C122   N162    1.363   .     A
C122   H158    1.082   .     S
C123   N161    1.366   .     A
C123   C125    1.406   .     A
C123   F173    1.355   .     S
C124   C126    1.405   .     A
C124   N162    1.366   .     A
C124   F174    1.355   .     S
C125   C127    1.410   .     A
C125   H159    1.081   .     S
C126   C128    1.410   .     A
C126   H160    1.081   .     S
C127   C476    1.519   1_554 S
C128   C475    1.519   .     S
C129   C131    1.435   .     S
C129   O169    1.289   .     A
C129   O167    1.286   .     A
C130   O170    1.289   .     A
C130   C132    1.435   .     S
C130   O168    1.286   .     A
C132   C15     1.336   1_655 S
C132   H32     1.087   1_655 S
C133   H149    1.083   .     S
C133   C143    1.402   .     A
C133   C135    1.390   .     A
C134   C144    1.402   .     A
C134   H150    1.083   .     S
C134   C136    1.390   .     A
C135   F171    1.358   .     S
C135   C137    1.407   .     A
C136   F172    1.358   .     S
C136   C138    1.407   .     A
C137   C139    1.402   .     A
C138   C140    1.402   .     A
C139   H151    1.083   .     S
C139   C141    1.390   .     A
C140   H152    1.083   .     S
C140   C142    1.390   .     A
C141   C143    1.403   .     A
C141   H153    1.083   .     S
C142   C144    1.402   .     A
C142   H154    1.083   .     S
C143   C318    1.468   1_545 S
C144   C317    1.468   .     S
Cu145  Cu146   2.677   .     S
Cu145  N162    2.011   .     S
Cu145  O163    1.958   .     S
Cu145  O166    1.958   .     S
Cu145  O167    1.957   .     S
Cu145  O170    1.960   .     S
Cu146  N161    2.011   .     S
Cu146  O165    1.958   .     S
Cu146  O169    1.960   .     S
Cu146  O164    1.958   .     S
Cu146  O168    1.957   .     S
H147   C15     1.087   1_655 S
C175   C195    1.463   .     S
C175   O223    1.295   .     A
C175   O221    1.293   .     A
C176   C196    1.463   .     S
C176   O222    1.293   .     A
C176   O224    1.295   .     A
C177   H213    1.080   .     S
C177   C179    1.407   .     A
C177   C185    1.413   .     A
C178   C180    1.407   .     A
C178   C186    1.413   .     A
C178   H214    1.080   .     S
C179   N219    1.363   .     A
C179   H215    1.082   .     S
C180   N220    1.363   .     A
C180   H216    1.082   .     S
C181   N219    1.366   .     A
C181   C183    1.406   .     A
C181   F231    1.355   .     S
C182   C184    1.405   .     A
C182   N220    1.366   .     A
C182   F232    1.355   .     S
C183   C185    1.410   .     A
C183   H217    1.081   .     S
C184   C186    1.410   .     A
C184   H218    1.081   .     S
C185   C534    1.519   1_554 S
C186   C533    1.519   .     S
C187   C189    1.435   .     S
C187   O227    1.289   .     A
C187   O225    1.286   .     A
C188   O228    1.289   .     A
C188   C190    1.435   .     S
C188   O226    1.286   .     A
C189   C306    1.336   1_455 S
C189   H321    1.087   1_455 S
C190   C247    1.336   .     S
C190   H264    1.087   .     S
C191   H207    1.083   .     S
C191   C201    1.402   .     A
C191   C193    1.390   .     A
C192   C202    1.402   .     A
C192   H208    1.083   .     S
C192   C194    1.390   .     A
C193   F229    1.358   .     S
C193   C195    1.407   .     A
C194   F230    1.358   .     S
C194   C196    1.407   .     A
C195   C197    1.402   .     A
C196   C198    1.402   .     A
C197   H209    1.083   .     S
C197   C199    1.390   .     A
C198   H210    1.083   .     S
C198   C200    1.390   .     A
C199   C201    1.403   .     A
C199   H211    1.083   .     S
C200   C202    1.402   .     A
C200   H212    1.083   .     S
C202   C27     1.468   1_565 S
Cu203  Cu204   2.677   .     S
Cu203  N220    2.011   .     S
Cu203  O221    1.958   .     S
Cu203  O224    1.958   .     S
Cu203  O225    1.957   .     S
Cu203  O228    1.960   .     S
Cu204  N219    2.011   .     S
Cu204  O223    1.958   .     S
Cu204  O227    1.960   .     S
Cu204  O222    1.958   .     S
Cu204  O226    1.957   .     S
H205   C247    1.087   .     S
H206   C306    1.087   1_455 S
C233   C253    1.463   .     S
C233   O281    1.295   .     A
C233   O279    1.293   .     A
C234   C254    1.463   .     S
C234   O280    1.293   .     A
C234   O282    1.295   .     A
C235   H271    1.080   .     S
C235   C237    1.407   .     A
C235   C243    1.413   .     A
C236   C238    1.407   .     A
C236   C244    1.413   .     A
C236   H272    1.080   .     S
C237   N277    1.363   .     A
C237   H273    1.082   .     S
C238   N278    1.363   .     A
C238   H274    1.082   .     S
C239   N277    1.366   .     A
C239   C241    1.406   .     A
C239   F289    1.355   .     S
C240   C242    1.405   .     A
C240   N278    1.366   .     A
C240   F290    1.355   .     S
C241   C243    1.410   .     A
C241   H275    1.081   .     S
C242   C244    1.410   .     A
C242   H276    1.081   .     S
C243   C592    1.519   1_554 S
C244   C591    1.519   .     S
C245   C247    1.435   .     S
C245   O285    1.289   .     A
C245   O283    1.286   .     A
C246   O286    1.289   .     A
C246   C248    1.435   .     S
C246   O284    1.286   .     A
C248   C305    1.336   .     S
C248   H322    1.087   .     S
C249   H265    1.083   .     S
C249   C259    1.402   .     A
C249   C251    1.390   .     A
C250   C260    1.402   .     A
C250   H266    1.083   .     S
C250   C252    1.390   .     A
C251   F287    1.358   .     S
C251   C253    1.407   .     A
C252   F288    1.358   .     S
C252   C254    1.407   .     A
C253   C255    1.402   .     A
C254   C256    1.402   .     A
C255   H267    1.083   .     S
C255   C257    1.390   .     A
C256   H268    1.083   .     S
C256   C258    1.390   .     A
C257   C259    1.403   .     A
C257   H269    1.083   .     S
C258   C260    1.402   .     A
C258   H270    1.083   .     S
C260   C85     1.468   1_565 S
Cu261  Cu262   2.677   .     S
Cu261  N278    2.011   .     S
Cu261  O279    1.958   .     S
Cu261  O282    1.958   .     S
Cu261  O283    1.957   .     S
Cu261  O286    1.960   .     S
Cu262  N277    2.011   .     S
Cu262  O281    1.958   .     S
Cu262  O285    1.960   .     S
Cu262  O280    1.958   .     S
Cu262  O284    1.957   .     S
H263   C305    1.087   .     S
C291   C311    1.463   .     S
C291   O339    1.295   .     A
C291   O337    1.293   .     A
C292   C312    1.463   .     S
C292   O338    1.293   .     A
C292   O340    1.295   .     A
C293   H329    1.080   .     S
C293   C295    1.407   .     A
C293   C301    1.413   .     A
C294   C296    1.407   .     A
C294   C302    1.413   .     A
C294   H330    1.080   .     S
C295   N335    1.363   .     A
C295   H331    1.082   .     S
C296   N336    1.363   .     A
C296   H332    1.082   .     S
C297   N335    1.366   .     A
C297   C299    1.406   .     A
C297   F347    1.355   .     S
C298   C300    1.405   .     A
C298   N336    1.366   .     A
C298   F348    1.355   .     S
C299   C301    1.410   .     A
C299   H333    1.081   .     S
C300   C302    1.410   .     A
C300   H334    1.081   .     S
C301   C650    1.519   1_554 S
C302   C649    1.519   .     S
C303   C305    1.435   .     S
C303   O343    1.289   .     A
C303   O341    1.286   .     A
C304   O344    1.289   .     A
C304   C306    1.435   .     S
C304   O342    1.286   .     A
C306   C189    1.336   1_655 S
C306   H206    1.087   1_655 S
C307   H323    1.083   .     S
C307   C317    1.402   .     A
C307   C309    1.390   .     A
C308   C318    1.402   .     A
C308   H324    1.083   .     S
C308   C310    1.390   .     A
C309   F345    1.358   .     S
C309   C311    1.407   .     A
C310   F346    1.358   .     S
C310   C312    1.407   .     A
C311   C313    1.402   .     A
C312   C314    1.402   .     A
C313   H325    1.083   .     S
C313   C315    1.390   .     A
C314   H326    1.083   .     S
C314   C316    1.390   .     A
C315   C317    1.403   .     A
C315   H327    1.083   .     S
C316   C318    1.402   .     A
C316   H328    1.083   .     S
C318   C143    1.468   1_565 S
Cu319  Cu320   2.677   .     S
Cu319  N336    2.011   .     S
Cu319  O337    1.958   .     S
Cu319  O340    1.958   .     S
Cu319  O341    1.957   .     S
Cu319  O344    1.960   .     S
Cu320  N335    2.011   .     S
Cu320  O339    1.958   .     S
Cu320  O343    1.960   .     S
Cu320  O338    1.958   .     S
Cu320  O342    1.957   .     S
H321   C189    1.087   1_655 S
C349   C369    1.463   .     S
C349   O397    1.295   .     A
C349   O395    1.293   .     A
C350   C370    1.463   .     S
C350   O396    1.293   .     A
C350   O398    1.295   .     A
C351   H387    1.080   .     S
C351   C353    1.407   .     A
C351   C359    1.413   .     A
C352   C354    1.407   .     A
C352   C360    1.413   .     A
C352   H388    1.080   .     S
C353   N393    1.363   .     A
C353   H389    1.082   .     S
C354   N394    1.363   .     A
C354   H390    1.082   .     S
C355   N393    1.366   .     A
C355   C357    1.406   .     A
C355   F405    1.355   .     S
C356   C358    1.405   .     A
C356   N394    1.366   .     A
C356   F406    1.355   .     S
C357   C359    1.410   .     A
C357   H391    1.081   .     S
C358   C360    1.410   .     A
C358   H392    1.081   .     S
C360   C11     1.519   1_556 S
C361   C363    1.435   .     S
C361   O401    1.289   .     A
C361   O399    1.286   .     A
C362   O402    1.289   .     A
C362   C364    1.435   .     S
C362   O400    1.286   .     A
C363   C480    1.336   1_455 S
C363   H495    1.087   1_455 S
C364   C421    1.336   .     S
C364   H438    1.087   .     S
C365   H381    1.083   .     S
C365   C375    1.402   .     A
C365   C367    1.390   .     A
C366   C376    1.402   .     A
C366   H382    1.083   .     S
C366   C368    1.390   .     A
C367   F403    1.358   .     S
C367   C369    1.407   .     A
C368   F404    1.358   .     S
C368   C370    1.407   .     A
C369   C371    1.402   .     A
C370   C372    1.402   .     A
C371   H383    1.083   .     S
C371   C373    1.390   .     A
C372   H384    1.083   .     S
C372   C374    1.390   .     A
C373   C375    1.403   .     A
C373   H385    1.083   .     S
C374   C376    1.402   .     A
C374   H386    1.083   .     S
C375   C550    1.468   1_545 S
C376   C549    1.468   .     S
Cu377  Cu378   2.677   .     S
Cu377  N394    2.011   .     S
Cu377  O395    1.958   .     S
Cu377  O398    1.958   .     S
Cu377  O399    1.957   .     S
Cu377  O402    1.960   .     S
Cu378  N393    2.011   .     S
Cu378  O397    1.958   .     S
Cu378  O401    1.960   .     S
Cu378  O396    1.958   .     S
Cu378  O400    1.957   .     S
H379   C421    1.087   .     S
H380   C480    1.087   1_455 S
C407   C427    1.463   .     S
C407   O455    1.295   .     A
C407   O453    1.293   .     A
C408   C428    1.463   .     S
C408   O454    1.293   .     A
C408   O456    1.295   .     A
C409   H445    1.080   .     S
C409   C411    1.407   .     A
C409   C417    1.413   .     A
C410   C412    1.407   .     A
C410   C418    1.413   .     A
C410   H446    1.080   .     S
C411   N451    1.363   .     A
C411   H447    1.082   .     S
C412   N452    1.363   .     A
C412   H448    1.082   .     S
C413   N451    1.366   .     A
C413   C415    1.406   .     A
C413   F463    1.355   .     S
C414   C416    1.405   .     A
C414   N452    1.366   .     A
C414   F464    1.355   .     S
C415   C417    1.410   .     A
C415   H449    1.081   .     S
C416   C418    1.410   .     A
C416   H450    1.081   .     S
C418   C69     1.519   1_556 S
C419   C421    1.435   .     S
C419   O459    1.289   .     A
C419   O457    1.286   .     A
C420   O460    1.289   .     A
C420   C422    1.435   .     S
C420   O458    1.286   .     A
C422   C479    1.336   .     S
C422   H496    1.087   .     S
C423   H439    1.083   .     S
C423   C433    1.402   .     A
C423   C425    1.390   .     A
C424   C434    1.402   .     A
C424   H440    1.083   .     S
C424   C426    1.390   .     A
C425   F461    1.358   .     S
C425   C427    1.407   .     A
C426   F462    1.358   .     S
C426   C428    1.407   .     A
C427   C429    1.402   .     A
C428   C430    1.402   .     A
C429   H441    1.083   .     S
C429   C431    1.390   .     A
C430   H442    1.083   .     S
C430   C432    1.390   .     A
C431   C433    1.403   .     A
C431   H443    1.083   .     S
C432   C434    1.402   .     A
C432   H444    1.083   .     S
C433   C608    1.468   1_545 S
C434   C607    1.468   .     S
Cu435  Cu436   2.677   .     S
Cu435  N452    2.011   .     S
Cu435  O453    1.958   .     S
Cu435  O456    1.958   .     S
Cu435  O457    1.957   .     S
Cu435  O460    1.960   .     S
Cu436  N451    2.011   .     S
Cu436  O455    1.958   .     S
Cu436  O459    1.960   .     S
Cu436  O454    1.958   .     S
Cu436  O458    1.957   .     S
H437   C479    1.087   .     S
C465   C485    1.463   .     S
C465   O513    1.295   .     A
C465   O511    1.293   .     A
C466   C486    1.463   .     S
C466   O512    1.293   .     A
C466   O514    1.295   .     A
C467   H503    1.080   .     S
C467   C469    1.407   .     A
C467   C475    1.413   .     A
C468   C470    1.407   .     A
C468   C476    1.413   .     A
C468   H504    1.080   .     S
C469   N509    1.363   .     A
C469   H505    1.082   .     S
C470   N510    1.363   .     A
C470   H506    1.082   .     S
C471   N509    1.366   .     A
C471   C473    1.406   .     A
C471   F521    1.355   .     S
C472   C474    1.405   .     A
C472   N510    1.366   .     A
C472   F522    1.355   .     S
C473   C475    1.410   .     A
C473   H507    1.081   .     S
C474   C476    1.410   .     A
C474   H508    1.081   .     S
C476   C127    1.519   1_556 S
C477   C479    1.435   .     S
C477   O517    1.289   .     A
C477   O515    1.286   .     A
C478   O518    1.289   .     A
C478   C480    1.435   .     S
C478   O516    1.286   .     A
C480   C363    1.336   1_655 S
C480   H380    1.087   1_655 S
C481   H497    1.083   .     S
C481   C491    1.402   .     A
C481   C483    1.390   .     A
C482   C492    1.402   .     A
C482   H498    1.083   .     S
C482   C484    1.390   .     A
C483   F519    1.358   .     S
C483   C485    1.407   .     A
C484   F520    1.358   .     S
C484   C486    1.407   .     A
C485   C487    1.402   .     A
C486   C488    1.402   .     A
C487   H499    1.083   .     S
C487   C489    1.390   .     A
C488   H500    1.083   .     S
C488   C490    1.390   .     A
C489   C491    1.403   .     A
C489   H501    1.083   .     S
C490   C492    1.402   .     A
C490   H502    1.083   .     S
C491   C666    1.468   1_545 S
C492   C665    1.468   .     S
Cu493  Cu494   2.677   .     S
Cu493  N510    2.011   .     S
Cu493  O511    1.958   .     S
Cu493  O514    1.958   .     S
Cu493  O515    1.957   .     S
Cu493  O518    1.960   .     S
Cu494  N509    2.011   .     S
Cu494  O513    1.958   .     S
Cu494  O517    1.960   .     S
Cu494  O512    1.958   .     S
Cu494  O516    1.957   .     S
H495   C363    1.087   1_655 S
C523   C543    1.463   .     S
C523   O571    1.295   .     A
C523   O569    1.293   .     A
C524   C544    1.463   .     S
C524   O570    1.293   .     A
C524   O572    1.295   .     A
C525   H561    1.080   .     S
C525   C527    1.407   .     A
C525   C533    1.413   .     A
C526   C528    1.407   .     A
C526   C534    1.413   .     A
C526   H562    1.080   .     S
C527   N567    1.363   .     A
C527   H563    1.082   .     S
C528   N568    1.363   .     A
C528   H564    1.082   .     S
C529   N567    1.366   .     A
C529   C531    1.406   .     A
C529   F579    1.355   .     S
C530   C532    1.405   .     A
C530   N568    1.366   .     A
C530   F580    1.355   .     S
C531   C533    1.410   .     A
C531   H565    1.081   .     S
C532   C534    1.410   .     A
C532   H566    1.081   .     S
C534   C185    1.519   1_556 S
C535   C537    1.435   .     S
C535   O575    1.289   .     A
C535   O573    1.286   .     A
C536   O576    1.289   .     A
C536   C538    1.435   .     S
C536   O574    1.286   .     A
C537   C654    1.336   1_455 S
C537   H669    1.087   1_455 S
C538   C595    1.336   .     S
C538   H612    1.087   .     S
C539   H555    1.083   .     S
C539   C549    1.402   .     A
C539   C541    1.390   .     A
C540   C550    1.402   .     A
C540   H556    1.083   .     S
C540   C542    1.390   .     A
C541   F577    1.358   .     S
C541   C543    1.407   .     A
C542   F578    1.358   .     S
C542   C544    1.407   .     A
C543   C545    1.402   .     A
C544   C546    1.402   .     A
C545   H557    1.083   .     S
C545   C547    1.390   .     A
C546   H558    1.083   .     S
C546   C548    1.390   .     A
C547   C549    1.403   .     A
C547   H559    1.083   .     S
C548   C550    1.402   .     A
C548   H560    1.083   .     S
C550   C375    1.468   1_565 S
Cu551  Cu552   2.677   .     S
Cu551  N568    2.011   .     S
Cu551  O569    1.958   .     S
Cu551  O572    1.958   .     S
Cu551  O573    1.957   .     S
Cu551  O576    1.960   .     S
Cu552  N567    2.011   .     S
Cu552  O571    1.958   .     S
Cu552  O575    1.960   .     S
Cu552  O570    1.958   .     S
Cu552  O574    1.957   .     S
H553   C595    1.087   .     S
H554   C654    1.087   1_455 S
C581   C601    1.463   .     S
C581   O629    1.295   .     A
C581   O627    1.293   .     A
C582   C602    1.463   .     S
C582   O628    1.293   .     A
C582   O630    1.295   .     A
C583   H619    1.080   .     S
C583   C585    1.407   .     A
C583   C591    1.413   .     A
C584   C586    1.407   .     A
C584   C592    1.413   .     A
C584   H620    1.080   .     S
C585   N625    1.363   .     A
C585   H621    1.082   .     S
C586   N626    1.363   .     A
C586   H622    1.082   .     S
C587   N625    1.366   .     A
C587   C589    1.406   .     A
C587   F637    1.355   .     S
C588   C590    1.405   .     A
C588   N626    1.366   .     A
C588   F638    1.355   .     S
C589   C591    1.410   .     A
C589   H623    1.081   .     S
C590   C592    1.410   .     A
C590   H624    1.081   .     S
C592   C243    1.519   1_556 S
C593   C595    1.435   .     S
C593   O633    1.289   .     A
C593   O631    1.286   .     A
C594   O634    1.289   .     A
C594   C596    1.435   .     S
C594   O632    1.286   .     A
C596   C653    1.336   .     S
C596   H670    1.087   .     S
C597   H613    1.083   .     S
C597   C607    1.402   .     A
C597   C599    1.390   .     A
C598   C608    1.402   .     A
C598   H614    1.083   .     S
C598   C600    1.390   .     A
C599   F635    1.358   .     S
C599   C601    1.407   .     A
C600   F636    1.358   .     S
C600   C602    1.407   .     A
C601   C603    1.402   .     A
C602   C604    1.402   .     A
C603   H615    1.083   .     S
C603   C605    1.390   .     A
C604   H616    1.083   .     S
C604   C606    1.390   .     A
C605   C607    1.403   .     A
C605   H617    1.083   .     S
C606   C608    1.402   .     A
C606   H618    1.083   .     S
C608   C433    1.468   1_565 S
Cu609  Cu610   2.677   .     S
Cu609  N626    2.011   .     S
Cu609  O627    1.958   .     S
Cu609  O630    1.958   .     S
Cu609  O631    1.957   .     S
Cu609  O634    1.960   .     S
Cu610  N625    2.011   .     S
Cu610  O629    1.958   .     S
Cu610  O633    1.960   .     S
Cu610  O628    1.958   .     S
Cu610  O632    1.957   .     S
H611   C653    1.087   .     S
C639   C659    1.463   .     S
C639   O687    1.295   .     A
C639   O685    1.293   .     A
C640   C660    1.463   .     S
C640   O686    1.293   .     A
C640   O688    1.295   .     A
C641   H677    1.080   .     S
C641   C643    1.407   .     A
C641   C649    1.413   .     A
C642   C644    1.407   .     A
C642   C650    1.413   .     A
C642   H678    1.080   .     S
C643   N683    1.363   .     A
C643   H679    1.082   .     S
C644   N684    1.363   .     A
C644   H680    1.082   .     S
C645   N683    1.366   .     A
C645   C647    1.406   .     A
C645   F695    1.355   .     S
C646   C648    1.405   .     A
C646   N684    1.366   .     A
C646   F696    1.355   .     S
C647   C649    1.410   .     A
C647   H681    1.081   .     S
C648   C650    1.410   .     A
C648   H682    1.081   .     S
C650   C301    1.519   1_556 S
C651   C653    1.435   .     S
C651   O691    1.289   .     A
C651   O689    1.286   .     A
C652   O692    1.289   .     A
C652   C654    1.435   .     S
C652   O690    1.286   .     A
C654   C537    1.336   1_655 S
C654   H554    1.087   1_655 S
C655   H671    1.083   .     S
C655   C665    1.402   .     A
C655   C657    1.390   .     A
C656   C666    1.402   .     A
C656   H672    1.083   .     S
C656   C658    1.390   .     A
C657   F693    1.358   .     S
C657   C659    1.407   .     A
C658   F694    1.358   .     S
C658   C660    1.407   .     A
C659   C661    1.402   .     A
C660   C662    1.402   .     A
C661   H673    1.083   .     S
C661   C663    1.390   .     A
C662   H674    1.083   .     S
C662   C664    1.390   .     A
C663   C665    1.403   .     A
C663   H675    1.083   .     S
C664   C666    1.402   .     A
C664   H676    1.083   .     S
C666   C491    1.468   1_565 S
Cu667  Cu668   2.677   .     S
Cu667  N684    2.011   .     S
Cu667  O685    1.958   .     S
Cu667  O688    1.958   .     S
Cu667  O689    1.957   .     S
Cu667  O692    1.960   .     S
Cu668  N683    2.011   .     S
Cu668  O687    1.958   .     S
Cu668  O691    1.960   .     S
Cu668  O686    1.958   .     S
Cu668  O690    1.957   .     S
H669   C537    1.087   1_655 S
