data_str_m2_o1_o2_pcu_sym.17
_audit_creation_date              2020-01-03
_audit_creation_method            'Materials Studio'
_symmetry_space_group_name_H-M    'P1'
_symmetry_Int_Tables_number       1
_symmetry_cell_setting            triclinic
loop_
_symmetry_equiv_pos_as_xyz
  x,y,z
_cell_length_a                    32.5010
_cell_length_b                    28.5402
_cell_length_c                    30.2115
_cell_angle_alpha                 90.0064
_cell_angle_beta                  90.1643
_cell_angle_gamma                 89.9965
loop_
_atom_site_label
_atom_site_type_symbol
_atom_site_fract_x
_atom_site_fract_y
_atom_site_fract_z
_atom_site_U_iso_or_equiv
_atom_site_adp_type
_atom_site_occupancy
C1     C     0.08735   0.16667   0.24997   0.00000  Uiso   1.00
C2     C     0.31205   0.20925   0.25004   0.00000  Uiso   1.00
C3     C     0.31205   0.12409   0.25004   0.00000  Uiso   1.00
C4     C     0.02128   0.20925   0.24999   0.00000  Uiso   1.00
C5     C     0.18533   0.20376   0.04747   0.00000  Uiso   1.00
C6     C     0.18737   0.13059   0.45266   0.00000  Uiso   1.00
C7     C     0.14612   0.20262   0.45259   0.00000  Uiso   1.00
C8     C     0.14813   0.12941   0.04735   0.00000  Uiso   1.00
C9     C     0.18406   0.20423   0.09360   0.00000  Uiso   1.00
C10    C     0.18760   0.13143   0.40623   0.00000  Uiso   1.00
C11    C     0.14588   0.20185   0.40616   0.00000  Uiso   1.00
C12    C     0.24599   0.16667   0.25004   0.00000  Uiso   1.00
C13    C     0.14931   0.12902   0.09350   0.00000  Uiso   1.00
C14    C     0.16666   0.16664   0.11668   0.00000  Uiso   1.00
C15    C     0.16673   0.16666   0.38321   0.00000  Uiso   1.00
C16    C     0.16675   0.16657   0.02416   0.00000  Uiso   1.00
C17    C     0.16674   0.16659   0.47555   0.00000  Uiso   1.00
C18    C     0.29060   0.16667   0.25005   0.00000  Uiso   1.00
C19    C     0.04274   0.16667   0.24997   0.00000  Uiso   1.00
C20    C     0.24560   0.23208   0.02127   0.00000  Uiso   1.00
C21    C     0.20279   0.05190   0.46116   0.00000  Uiso   1.00
C22    C     0.13077   0.28130   0.46117   0.00000  Uiso   1.00
C23    C     0.16664   0.16666   0.16495   0.00000  Uiso   1.00
C24    C     0.08790   0.10094   0.02084   0.00000  Uiso   1.00
C25    C     0.16670   0.16667   0.33501   0.00000  Uiso   1.00
C26    C     0.14104   0.02481   0.22251   0.00000  Uiso   1.00
C27    C     0.19228   0.30852   0.27750   0.00000  Uiso   1.00
C28    C     0.19228   0.02482   0.27751   0.00000  Uiso   1.00
C29    C     0.14104   0.30852   0.22251   0.00000  Uiso   1.00
C30    C     0.02129   0.12409   0.24999   0.00000  Uiso   1.00
Cu31   Cu    0.16667   0.21355   0.25000   0.00000  Uiso   1.00
Cu32   Cu    0.16667   0.11978   0.25000   0.00000  Uiso   1.00
H33    H     0.12052   0.04353   0.20048   0.00000  Uiso   1.00
H34    H     0.29604   0.24254   0.25006   0.00000  Uiso   1.00
H35    H     0.29604   0.09079   0.25007   0.00000  Uiso   1.00
H36    H     0.03729   0.24254   0.24997   0.00000  Uiso   1.00
H37    H     0.25156   0.19925   0.00241   0.00000  Uiso   1.00
H38    H     0.26074   0.23051   0.05433   0.00000  Uiso   1.00
H39    H     0.25977   0.26138   0.00263   0.00000  Uiso   1.00
H40    H     0.21050   0.02692   0.48807   0.00000  Uiso   1.00
H41    H     0.22328   0.04385   0.43281   0.00000  Uiso   1.00
H42    H     0.16997   0.04582   0.45203   0.00000  Uiso   1.00
H43    H     0.12308   0.30622   0.48809   0.00000  Uiso   1.00
H44    H     0.21281   0.28981   0.29952   0.00000  Uiso   1.00
H45    H     0.11031   0.28946   0.43271   0.00000  Uiso   1.00
H46    H     0.16360   0.28735   0.45228   0.00000  Uiso   1.00
H47    H     0.08183   0.13378   0.00203   0.00000  Uiso   1.00
H48    H     0.07278   0.10237   0.05383   0.00000  Uiso   1.00
H49    H     0.07377   0.07163   0.00206   0.00000  Uiso   1.00
H50    H     0.21279   0.04353   0.29954   0.00000  Uiso   1.00
H51    H     0.12051   0.28980   0.20050   0.00000  Uiso   1.00
H52    H     0.19762   0.23345   0.11130   0.00000  Uiso   1.00
H53    H     0.20477   0.10538   0.38792   0.00000  Uiso   1.00
H54    H     0.12870   0.22792   0.38779   0.00000  Uiso   1.00
H55    H     0.13571   0.09981   0.11111   0.00000  Uiso   1.00
H56    H     0.03730   0.09080   0.24997   0.00000  Uiso   1.00
N57    N     0.16667   0.28402   0.25000   0.00000  Uiso   1.00
N58    N     0.16667   0.04931   0.25000   0.00000  Uiso   1.00
O59    O     0.10655   0.20625   0.24999   0.00000  Uiso   1.00
O60    O     0.20992   0.09786   0.47674   0.00000  Uiso   1.00
O61    O     0.12356   0.23531   0.47657   0.00000  Uiso   1.00
O62    O     0.13043   0.09229   0.02494   0.00000  Uiso   1.00
O63    O     0.22679   0.12709   0.25000   0.00000  Uiso   1.00
O64    O     0.22679   0.20625   0.25000   0.00000  Uiso   1.00
O65    O     0.10655   0.12709   0.24999   0.00000  Uiso   1.00
O66    O     0.16666   0.20626   0.18573   0.00000  Uiso   1.00
O67    O     0.16667   0.12707   0.31427   0.00000  Uiso   1.00
O68    O     0.16667   0.20626   0.31427   0.00000  Uiso   1.00
O69    O     0.16666   0.12707   0.18573   0.00000  Uiso   1.00
O70    O     0.20310   0.24085   0.02518   0.00000  Uiso   1.00
C71    C     0.42068   0.16667   0.24997   0.00000  Uiso   1.00
C72    C     0.64538   0.20925   0.25004   0.00000  Uiso   1.00
C73    C     0.64539   0.12409   0.25004   0.00000  Uiso   1.00
C74    C     0.35461   0.20925   0.24999   0.00000  Uiso   1.00
C75    C     0.51867   0.20376   0.04747   0.00000  Uiso   1.00
C76    C     0.52070   0.13059   0.45266   0.00000  Uiso   1.00
C77    C     0.47945   0.20262   0.45259   0.00000  Uiso   1.00
C78    C     0.48147   0.12941   0.04735   0.00000  Uiso   1.00
C79    C     0.51739   0.20423   0.09360   0.00000  Uiso   1.00
C80    C     0.52094   0.13143   0.40623   0.00000  Uiso   1.00
C81    C     0.47921   0.20185   0.40616   0.00000  Uiso   1.00
C82    C     0.57932   0.16667   0.25004   0.00000  Uiso   1.00
C83    C     0.48264   0.12902   0.09350   0.00000  Uiso   1.00
C84    C     0.49999   0.16664   0.11668   0.00000  Uiso   1.00
C85    C     0.50007   0.16666   0.38321   0.00000  Uiso   1.00
C86    C     0.50008   0.16657   0.02416   0.00000  Uiso   1.00
C87    C     0.50008   0.16659   0.47555   0.00000  Uiso   1.00
C88    C     0.62393   0.16667   0.25005   0.00000  Uiso   1.00
C89    C     0.37607   0.16667   0.24997   0.00000  Uiso   1.00
C90    C     0.57893   0.23208   0.02127   0.00000  Uiso   1.00
C91    C     0.53612   0.05190   0.46116   0.00000  Uiso   1.00
C92    C     0.46410   0.28130   0.46117   0.00000  Uiso   1.00
C93    C     0.49998   0.16666   0.16495   0.00000  Uiso   1.00
C94    C     0.42123   0.10094   0.02084   0.00000  Uiso   1.00
C95    C     0.50003   0.16667   0.33501   0.00000  Uiso   1.00
C96    C     0.47437   0.02481   0.22251   0.00000  Uiso   1.00
C97    C     0.52562   0.30852   0.27750   0.00000  Uiso   1.00
C98    C     0.52561   0.02482   0.27751   0.00000  Uiso   1.00
C99    C     0.47437   0.30852   0.22251   0.00000  Uiso   1.00
C100   C     0.35462   0.12409   0.24999   0.00000  Uiso   1.00
Cu101  Cu    0.50000   0.21355   0.25000   0.00000  Uiso   1.00
Cu102  Cu    0.50000   0.11978   0.25000   0.00000  Uiso   1.00
H103   H     0.45385   0.04353   0.20048   0.00000  Uiso   1.00
H104   H     0.62937   0.24254   0.25006   0.00000  Uiso   1.00
H105   H     0.62938   0.09079   0.25007   0.00000  Uiso   1.00
H106   H     0.37062   0.24254   0.24997   0.00000  Uiso   1.00
H107   H     0.58490   0.19925   0.00241   0.00000  Uiso   1.00
H108   H     0.59408   0.23051   0.05433   0.00000  Uiso   1.00
H109   H     0.59311   0.26138   0.00263   0.00000  Uiso   1.00
H110   H     0.54383   0.02692   0.48807   0.00000  Uiso   1.00
H111   H     0.55661   0.04385   0.43281   0.00000  Uiso   1.00
H112   H     0.50330   0.04582   0.45203   0.00000  Uiso   1.00
H113   H     0.45641   0.30622   0.48809   0.00000  Uiso   1.00
H114   H     0.54614   0.28981   0.29952   0.00000  Uiso   1.00
H115   H     0.44364   0.28946   0.43271   0.00000  Uiso   1.00
H116   H     0.49693   0.28735   0.45228   0.00000  Uiso   1.00
H117   H     0.41516   0.13378   0.00203   0.00000  Uiso   1.00
H118   H     0.40612   0.10237   0.05383   0.00000  Uiso   1.00
H119   H     0.40711   0.07163   0.00206   0.00000  Uiso   1.00
H120   H     0.54612   0.04353   0.29954   0.00000  Uiso   1.00
H121   H     0.45384   0.28980   0.20050   0.00000  Uiso   1.00
H122   H     0.53096   0.23345   0.11130   0.00000  Uiso   1.00
H123   H     0.53810   0.10538   0.38792   0.00000  Uiso   1.00
H124   H     0.46203   0.22792   0.38779   0.00000  Uiso   1.00
H125   H     0.46905   0.09981   0.11111   0.00000  Uiso   1.00
H126   H     0.37063   0.09080   0.24997   0.00000  Uiso   1.00
N127   N     0.50000   0.28402   0.25000   0.00000  Uiso   1.00
N128   N     0.50000   0.04931   0.25000   0.00000  Uiso   1.00
O129   O     0.43988   0.20625   0.24999   0.00000  Uiso   1.00
O130   O     0.54326   0.09786   0.47674   0.00000  Uiso   1.00
O131   O     0.45689   0.23531   0.47657   0.00000  Uiso   1.00
O132   O     0.46376   0.09229   0.02494   0.00000  Uiso   1.00
O133   O     0.56012   0.12709   0.25000   0.00000  Uiso   1.00
O134   O     0.56012   0.20625   0.25000   0.00000  Uiso   1.00
O135   O     0.43988   0.12709   0.24999   0.00000  Uiso   1.00
O136   O     0.50000   0.20626   0.18573   0.00000  Uiso   1.00
O137   O     0.50000   0.12707   0.31427   0.00000  Uiso   1.00
O138   O     0.50000   0.20626   0.31427   0.00000  Uiso   1.00
O139   O     0.50000   0.12707   0.18573   0.00000  Uiso   1.00
O140   O     0.53643   0.24085   0.02518   0.00000  Uiso   1.00
C141   C     0.75401   0.16667   0.24997   0.00000  Uiso   1.00
C142   C     0.97871   0.20925   0.25004   0.00000  Uiso   1.00
C143   C     0.97872   0.12409   0.25004   0.00000  Uiso   1.00
C144   C     0.68795   0.20925   0.24999   0.00000  Uiso   1.00
C145   C     0.85200   0.20376   0.04747   0.00000  Uiso   1.00
C146   C     0.85403   0.13059   0.45266   0.00000  Uiso   1.00
C147   C     0.81279   0.20262   0.45259   0.00000  Uiso   1.00
C148   C     0.81480   0.12941   0.04735   0.00000  Uiso   1.00
C149   C     0.85072   0.20423   0.09360   0.00000  Uiso   1.00
C150   C     0.85427   0.13143   0.40623   0.00000  Uiso   1.00
C151   C     0.81254   0.20185   0.40616   0.00000  Uiso   1.00
C152   C     0.91265   0.16667   0.25004   0.00000  Uiso   1.00
C153   C     0.81597   0.12902   0.09350   0.00000  Uiso   1.00
C154   C     0.83332   0.16664   0.11668   0.00000  Uiso   1.00
C155   C     0.83340   0.16666   0.38321   0.00000  Uiso   1.00
C156   C     0.83342   0.16657   0.02416   0.00000  Uiso   1.00
C157   C     0.83341   0.16659   0.47555   0.00000  Uiso   1.00
C158   C     0.95726   0.16667   0.25005   0.00000  Uiso   1.00
C159   C     0.70940   0.16667   0.24997   0.00000  Uiso   1.00
C160   C     0.91226   0.23208   0.02127   0.00000  Uiso   1.00
C161   C     0.86945   0.05190   0.46116   0.00000  Uiso   1.00
C162   C     0.79743   0.28130   0.46117   0.00000  Uiso   1.00
C163   C     0.83331   0.16666   0.16495   0.00000  Uiso   1.00
C164   C     0.75457   0.10094   0.02084   0.00000  Uiso   1.00
C165   C     0.83337   0.16667   0.33501   0.00000  Uiso   1.00
C166   C     0.80771   0.02481   0.22251   0.00000  Uiso   1.00
C167   C     0.85895   0.30852   0.27750   0.00000  Uiso   1.00
C168   C     0.85895   0.02482   0.27751   0.00000  Uiso   1.00
C169   C     0.80770   0.30852   0.22251   0.00000  Uiso   1.00
C170   C     0.68795   0.12409   0.24999   0.00000  Uiso   1.00
Cu171  Cu    0.83333   0.21355   0.25000   0.00000  Uiso   1.00
Cu172  Cu    0.83333   0.11978   0.25000   0.00000  Uiso   1.00
H173   H     0.78719   0.04353   0.20048   0.00000  Uiso   1.00
H174   H     0.96270   0.24254   0.25006   0.00000  Uiso   1.00
H175   H     0.96271   0.09079   0.25007   0.00000  Uiso   1.00
H176   H     0.70396   0.24254   0.24997   0.00000  Uiso   1.00
H177   H     0.91823   0.19925   0.00241   0.00000  Uiso   1.00
H178   H     0.92741   0.23051   0.05433   0.00000  Uiso   1.00
H179   H     0.92644   0.26138   0.00263   0.00000  Uiso   1.00
H180   H     0.87716   0.02692   0.48807   0.00000  Uiso   1.00
H181   H     0.88994   0.04385   0.43281   0.00000  Uiso   1.00
H182   H     0.83663   0.04582   0.45203   0.00000  Uiso   1.00
H183   H     0.78974   0.30622   0.48809   0.00000  Uiso   1.00
H184   H     0.87947   0.28981   0.29952   0.00000  Uiso   1.00
H185   H     0.77697   0.28946   0.43271   0.00000  Uiso   1.00
H186   H     0.83027   0.28735   0.45228   0.00000  Uiso   1.00
H187   H     0.74849   0.13378   0.00203   0.00000  Uiso   1.00
H188   H     0.73945   0.10237   0.05383   0.00000  Uiso   1.00
H189   H     0.74044   0.07163   0.00206   0.00000  Uiso   1.00
H190   H     0.87946   0.04353   0.29954   0.00000  Uiso   1.00
H191   H     0.78717   0.28980   0.20050   0.00000  Uiso   1.00
H192   H     0.86429   0.23345   0.11130   0.00000  Uiso   1.00
H193   H     0.87144   0.10538   0.38792   0.00000  Uiso   1.00
H194   H     0.79537   0.22792   0.38779   0.00000  Uiso   1.00
H195   H     0.80238   0.09981   0.11111   0.00000  Uiso   1.00
H196   H     0.70396   0.09080   0.24997   0.00000  Uiso   1.00
N197   N     0.83333   0.28402   0.25000   0.00000  Uiso   1.00
N198   N     0.83333   0.04931   0.25000   0.00000  Uiso   1.00
O199   O     0.77321   0.20625   0.24999   0.00000  Uiso   1.00
O200   O     0.87659   0.09786   0.47674   0.00000  Uiso   1.00
O201   O     0.79022   0.23531   0.47657   0.00000  Uiso   1.00
O202   O     0.79709   0.09229   0.02494   0.00000  Uiso   1.00
O203   O     0.89345   0.12709   0.25000   0.00000  Uiso   1.00
O204   O     0.89345   0.20625   0.25000   0.00000  Uiso   1.00
O205   O     0.77321   0.12709   0.24999   0.00000  Uiso   1.00
O206   O     0.83333   0.20626   0.18573   0.00000  Uiso   1.00
O207   O     0.83334   0.12707   0.31427   0.00000  Uiso   1.00
O208   O     0.83334   0.20626   0.31427   0.00000  Uiso   1.00
O209   O     0.83333   0.12707   0.18573   0.00000  Uiso   1.00
O210   O     0.86976   0.24085   0.02518   0.00000  Uiso   1.00
C211   C     0.08735   0.50000   0.24997   0.00000  Uiso   1.00
C212   C     0.31205   0.54258   0.25004   0.00000  Uiso   1.00
C213   C     0.31205   0.45742   0.25004   0.00000  Uiso   1.00
C214   C     0.02128   0.54258   0.24999   0.00000  Uiso   1.00
C215   C     0.18533   0.53710   0.04747   0.00000  Uiso   1.00
C216   C     0.18737   0.46393   0.45266   0.00000  Uiso   1.00
C217   C     0.14612   0.53595   0.45259   0.00000  Uiso   1.00
C218   C     0.14813   0.46274   0.04735   0.00000  Uiso   1.00
C219   C     0.18406   0.53756   0.09360   0.00000  Uiso   1.00
C220   C     0.18760   0.46477   0.40623   0.00000  Uiso   1.00
C221   C     0.14588   0.53518   0.40616   0.00000  Uiso   1.00
C222   C     0.24599   0.50000   0.25004   0.00000  Uiso   1.00
C223   C     0.14931   0.46235   0.09350   0.00000  Uiso   1.00
C224   C     0.16666   0.49998   0.11668   0.00000  Uiso   1.00
C225   C     0.16673   0.49999   0.38321   0.00000  Uiso   1.00
C226   C     0.16675   0.49991   0.02416   0.00000  Uiso   1.00
C227   C     0.16674   0.49992   0.47555   0.00000  Uiso   1.00
C228   C     0.29060   0.50000   0.25005   0.00000  Uiso   1.00
C229   C     0.04274   0.50000   0.24997   0.00000  Uiso   1.00
C230   C     0.24560   0.56541   0.02127   0.00000  Uiso   1.00
C231   C     0.20279   0.38523   0.46116   0.00000  Uiso   1.00
C232   C     0.13077   0.61464   0.46117   0.00000  Uiso   1.00
C233   C     0.16664   0.50000   0.16495   0.00000  Uiso   1.00
C234   C     0.08790   0.43427   0.02084   0.00000  Uiso   1.00
C235   C     0.16670   0.50000   0.33501   0.00000  Uiso   1.00
C236   C     0.14104   0.35815   0.22251   0.00000  Uiso   1.00
C237   C     0.19228   0.64186   0.27750   0.00000  Uiso   1.00
C238   C     0.19228   0.35815   0.27751   0.00000  Uiso   1.00
C239   C     0.14104   0.64185   0.22251   0.00000  Uiso   1.00
C240   C     0.02129   0.45742   0.24999   0.00000  Uiso   1.00
Cu241  Cu    0.16667   0.54689   0.25000   0.00000  Uiso   1.00
Cu242  Cu    0.16667   0.45311   0.25000   0.00000  Uiso   1.00
H243   H     0.12052   0.37686   0.20048   0.00000  Uiso   1.00
H244   H     0.29604   0.57587   0.25006   0.00000  Uiso   1.00
H245   H     0.29604   0.42413   0.25007   0.00000  Uiso   1.00
H246   H     0.03729   0.57587   0.24997   0.00000  Uiso   1.00
H247   H     0.25156   0.53259   0.00241   0.00000  Uiso   1.00
H248   H     0.26074   0.56385   0.05433   0.00000  Uiso   1.00
H249   H     0.25977   0.59471   0.00263   0.00000  Uiso   1.00
H250   H     0.21050   0.36025   0.48807   0.00000  Uiso   1.00
H251   H     0.22328   0.37719   0.43281   0.00000  Uiso   1.00
H252   H     0.16997   0.37915   0.45203   0.00000  Uiso   1.00
H253   H     0.12308   0.63956   0.48809   0.00000  Uiso   1.00
H254   H     0.21281   0.62314   0.29952   0.00000  Uiso   1.00
H255   H     0.11031   0.62279   0.43271   0.00000  Uiso   1.00
H256   H     0.16360   0.62069   0.45228   0.00000  Uiso   1.00
H257   H     0.08183   0.46712   0.00203   0.00000  Uiso   1.00
H258   H     0.07278   0.43570   0.05383   0.00000  Uiso   1.00
H259   H     0.07377   0.40497   0.00206   0.00000  Uiso   1.00
H260   H     0.21279   0.37687   0.29954   0.00000  Uiso   1.00
H261   H     0.12051   0.62314   0.20050   0.00000  Uiso   1.00
H262   H     0.19762   0.56679   0.11130   0.00000  Uiso   1.00
H263   H     0.20477   0.43872   0.38792   0.00000  Uiso   1.00
H264   H     0.12870   0.56126   0.38779   0.00000  Uiso   1.00
H265   H     0.13571   0.43315   0.11111   0.00000  Uiso   1.00
H266   H     0.03730   0.42413   0.24997   0.00000  Uiso   1.00
N267   N     0.16667   0.61736   0.25000   0.00000  Uiso   1.00
N268   N     0.16667   0.38264   0.25000   0.00000  Uiso   1.00
O269   O     0.10655   0.53958   0.24999   0.00000  Uiso   1.00
O270   O     0.20992   0.43120   0.47674   0.00000  Uiso   1.00
O271   O     0.12356   0.56864   0.47657   0.00000  Uiso   1.00
O272   O     0.13043   0.42562   0.02494   0.00000  Uiso   1.00
O273   O     0.22679   0.46042   0.25000   0.00000  Uiso   1.00
O274   O     0.22679   0.53958   0.25000   0.00000  Uiso   1.00
O275   O     0.10655   0.46042   0.24999   0.00000  Uiso   1.00
O276   O     0.16666   0.53959   0.18573   0.00000  Uiso   1.00
O277   O     0.16667   0.46041   0.31427   0.00000  Uiso   1.00
O278   O     0.16667   0.53959   0.31427   0.00000  Uiso   1.00
O279   O     0.16666   0.46041   0.18573   0.00000  Uiso   1.00
O280   O     0.20310   0.57419   0.02518   0.00000  Uiso   1.00
C281   C     0.42068   0.50000   0.24997   0.00000  Uiso   1.00
C282   C     0.64538   0.54258   0.25004   0.00000  Uiso   1.00
C283   C     0.64539   0.45742   0.25004   0.00000  Uiso   1.00
C284   C     0.35461   0.54258   0.24999   0.00000  Uiso   1.00
C285   C     0.51867   0.53710   0.04747   0.00000  Uiso   1.00
C286   C     0.52070   0.46393   0.45266   0.00000  Uiso   1.00
C287   C     0.47945   0.53595   0.45259   0.00000  Uiso   1.00
C288   C     0.48147   0.46274   0.04735   0.00000  Uiso   1.00
C289   C     0.51739   0.53756   0.09360   0.00000  Uiso   1.00
C290   C     0.52094   0.46477   0.40623   0.00000  Uiso   1.00
C291   C     0.47921   0.53518   0.40616   0.00000  Uiso   1.00
C292   C     0.57932   0.50000   0.25004   0.00000  Uiso   1.00
C293   C     0.48264   0.46235   0.09350   0.00000  Uiso   1.00
C294   C     0.49999   0.49998   0.11668   0.00000  Uiso   1.00
C295   C     0.50007   0.49999   0.38321   0.00000  Uiso   1.00
C296   C     0.50008   0.49991   0.02416   0.00000  Uiso   1.00
C297   C     0.50008   0.49992   0.47555   0.00000  Uiso   1.00
C298   C     0.62393   0.50000   0.25005   0.00000  Uiso   1.00
C299   C     0.37607   0.50000   0.24997   0.00000  Uiso   1.00
C300   C     0.57893   0.56541   0.02127   0.00000  Uiso   1.00
C301   C     0.53612   0.38523   0.46116   0.00000  Uiso   1.00
C302   C     0.46410   0.61464   0.46117   0.00000  Uiso   1.00
C303   C     0.49998   0.50000   0.16495   0.00000  Uiso   1.00
C304   C     0.42123   0.43427   0.02084   0.00000  Uiso   1.00
C305   C     0.50003   0.50000   0.33501   0.00000  Uiso   1.00
C306   C     0.47437   0.35815   0.22251   0.00000  Uiso   1.00
C307   C     0.52562   0.64186   0.27750   0.00000  Uiso   1.00
C308   C     0.52561   0.35815   0.27751   0.00000  Uiso   1.00
C309   C     0.47437   0.64185   0.22251   0.00000  Uiso   1.00
C310   C     0.35462   0.45742   0.24999   0.00000  Uiso   1.00
Cu311  Cu    0.50000   0.54689   0.25000   0.00000  Uiso   1.00
Cu312  Cu    0.50000   0.45311   0.25000   0.00000  Uiso   1.00
H313   H     0.45385   0.37686   0.20048   0.00000  Uiso   1.00
H314   H     0.62937   0.57587   0.25006   0.00000  Uiso   1.00
H315   H     0.62938   0.42413   0.25007   0.00000  Uiso   1.00
H316   H     0.37062   0.57587   0.24997   0.00000  Uiso   1.00
H317   H     0.58490   0.53259   0.00241   0.00000  Uiso   1.00
H318   H     0.59408   0.56385   0.05433   0.00000  Uiso   1.00
H319   H     0.59311   0.59471   0.00263   0.00000  Uiso   1.00
H320   H     0.54383   0.36025   0.48807   0.00000  Uiso   1.00
H321   H     0.55661   0.37719   0.43281   0.00000  Uiso   1.00
H322   H     0.50330   0.37915   0.45203   0.00000  Uiso   1.00
H323   H     0.45641   0.63956   0.48809   0.00000  Uiso   1.00
H324   H     0.54614   0.62314   0.29952   0.00000  Uiso   1.00
H325   H     0.44364   0.62279   0.43271   0.00000  Uiso   1.00
H326   H     0.49693   0.62069   0.45228   0.00000  Uiso   1.00
H327   H     0.41516   0.46712   0.00203   0.00000  Uiso   1.00
H328   H     0.40612   0.43570   0.05383   0.00000  Uiso   1.00
H329   H     0.40711   0.40497   0.00206   0.00000  Uiso   1.00
H330   H     0.54612   0.37687   0.29954   0.00000  Uiso   1.00
H331   H     0.45384   0.62314   0.20050   0.00000  Uiso   1.00
H332   H     0.53096   0.56679   0.11130   0.00000  Uiso   1.00
H333   H     0.53810   0.43872   0.38792   0.00000  Uiso   1.00
H334   H     0.46203   0.56126   0.38779   0.00000  Uiso   1.00
H335   H     0.46905   0.43315   0.11111   0.00000  Uiso   1.00
H336   H     0.37063   0.42413   0.24997   0.00000  Uiso   1.00
N337   N     0.50000   0.61736   0.25000   0.00000  Uiso   1.00
N338   N     0.50000   0.38264   0.25000   0.00000  Uiso   1.00
O339   O     0.43988   0.53958   0.24999   0.00000  Uiso   1.00
O340   O     0.54326   0.43120   0.47674   0.00000  Uiso   1.00
O341   O     0.45689   0.56864   0.47657   0.00000  Uiso   1.00
O342   O     0.46376   0.42562   0.02494   0.00000  Uiso   1.00
O343   O     0.56012   0.46042   0.25000   0.00000  Uiso   1.00
O344   O     0.56012   0.53958   0.25000   0.00000  Uiso   1.00
O345   O     0.43988   0.46042   0.24999   0.00000  Uiso   1.00
O346   O     0.50000   0.53959   0.18573   0.00000  Uiso   1.00
O347   O     0.50000   0.46041   0.31427   0.00000  Uiso   1.00
O348   O     0.50000   0.53959   0.31427   0.00000  Uiso   1.00
O349   O     0.50000   0.46041   0.18573   0.00000  Uiso   1.00
O350   O     0.53643   0.57419   0.02518   0.00000  Uiso   1.00
C351   C     0.75401   0.50000   0.24997   0.00000  Uiso   1.00
C352   C     0.97871   0.54258   0.25004   0.00000  Uiso   1.00
C353   C     0.97872   0.45742   0.25004   0.00000  Uiso   1.00
C354   C     0.68795   0.54258   0.24999   0.00000  Uiso   1.00
C355   C     0.85200   0.53710   0.04747   0.00000  Uiso   1.00
C356   C     0.85403   0.46393   0.45266   0.00000  Uiso   1.00
C357   C     0.81279   0.53595   0.45259   0.00000  Uiso   1.00
C358   C     0.81480   0.46274   0.04735   0.00000  Uiso   1.00
C359   C     0.85072   0.53756   0.09360   0.00000  Uiso   1.00
C360   C     0.85427   0.46477   0.40623   0.00000  Uiso   1.00
C361   C     0.81254   0.53518   0.40616   0.00000  Uiso   1.00
C362   C     0.91265   0.50000   0.25004   0.00000  Uiso   1.00
C363   C     0.81597   0.46235   0.09350   0.00000  Uiso   1.00
C364   C     0.83332   0.49998   0.11668   0.00000  Uiso   1.00
C365   C     0.83340   0.49999   0.38321   0.00000  Uiso   1.00
C366   C     0.83342   0.49991   0.02416   0.00000  Uiso   1.00
C367   C     0.83341   0.49992   0.47555   0.00000  Uiso   1.00
C368   C     0.95726   0.50000   0.25005   0.00000  Uiso   1.00
C369   C     0.70940   0.50000   0.24997   0.00000  Uiso   1.00
C370   C     0.91226   0.56541   0.02127   0.00000  Uiso   1.00
C371   C     0.86945   0.38523   0.46116   0.00000  Uiso   1.00
C372   C     0.79743   0.61464   0.46117   0.00000  Uiso   1.00
C373   C     0.83331   0.50000   0.16495   0.00000  Uiso   1.00
C374   C     0.75457   0.43427   0.02084   0.00000  Uiso   1.00
C375   C     0.83337   0.50000   0.33501   0.00000  Uiso   1.00
C376   C     0.80771   0.35815   0.22251   0.00000  Uiso   1.00
C377   C     0.85895   0.64186   0.27750   0.00000  Uiso   1.00
C378   C     0.85895   0.35815   0.27751   0.00000  Uiso   1.00
C379   C     0.80770   0.64185   0.22251   0.00000  Uiso   1.00
C380   C     0.68795   0.45742   0.24999   0.00000  Uiso   1.00
Cu381  Cu    0.83333   0.54689   0.25000   0.00000  Uiso   1.00
Cu382  Cu    0.83333   0.45311   0.25000   0.00000  Uiso   1.00
H383   H     0.78719   0.37686   0.20048   0.00000  Uiso   1.00
H384   H     0.96270   0.57587   0.25006   0.00000  Uiso   1.00
H385   H     0.96271   0.42413   0.25007   0.00000  Uiso   1.00
H386   H     0.70396   0.57587   0.24997   0.00000  Uiso   1.00
H387   H     0.91823   0.53259   0.00241   0.00000  Uiso   1.00
H388   H     0.92741   0.56385   0.05433   0.00000  Uiso   1.00
H389   H     0.92644   0.59471   0.00263   0.00000  Uiso   1.00
H390   H     0.87716   0.36025   0.48807   0.00000  Uiso   1.00
H391   H     0.88994   0.37719   0.43281   0.00000  Uiso   1.00
H392   H     0.83663   0.37915   0.45203   0.00000  Uiso   1.00
H393   H     0.78974   0.63956   0.48809   0.00000  Uiso   1.00
H394   H     0.87947   0.62314   0.29952   0.00000  Uiso   1.00
H395   H     0.77697   0.62279   0.43271   0.00000  Uiso   1.00
H396   H     0.83027   0.62069   0.45228   0.00000  Uiso   1.00
H397   H     0.74849   0.46712   0.00203   0.00000  Uiso   1.00
H398   H     0.73945   0.43570   0.05383   0.00000  Uiso   1.00
H399   H     0.74044   0.40497   0.00206   0.00000  Uiso   1.00
H400   H     0.87946   0.37687   0.29954   0.00000  Uiso   1.00
H401   H     0.78717   0.62314   0.20050   0.00000  Uiso   1.00
H402   H     0.86429   0.56679   0.11130   0.00000  Uiso   1.00
H403   H     0.87144   0.43872   0.38792   0.00000  Uiso   1.00
H404   H     0.79537   0.56126   0.38779   0.00000  Uiso   1.00
H405   H     0.80238   0.43315   0.11111   0.00000  Uiso   1.00
H406   H     0.70396   0.42413   0.24997   0.00000  Uiso   1.00
N407   N     0.83333   0.61736   0.25000   0.00000  Uiso   1.00
N408   N     0.83333   0.38264   0.25000   0.00000  Uiso   1.00
O409   O     0.77321   0.53958   0.24999   0.00000  Uiso   1.00
O410   O     0.87659   0.43120   0.47674   0.00000  Uiso   1.00
O411   O     0.79022   0.56864   0.47657   0.00000  Uiso   1.00
O412   O     0.79709   0.42562   0.02494   0.00000  Uiso   1.00
O413   O     0.89345   0.46042   0.25000   0.00000  Uiso   1.00
O414   O     0.89345   0.53958   0.25000   0.00000  Uiso   1.00
O415   O     0.77321   0.46042   0.24999   0.00000  Uiso   1.00
O416   O     0.83333   0.53959   0.18573   0.00000  Uiso   1.00
O417   O     0.83334   0.46041   0.31427   0.00000  Uiso   1.00
O418   O     0.83334   0.53959   0.31427   0.00000  Uiso   1.00
O419   O     0.83333   0.46041   0.18573   0.00000  Uiso   1.00
O420   O     0.86976   0.57419   0.02518   0.00000  Uiso   1.00
C421   C     0.08735   0.83333   0.24997   0.00000  Uiso   1.00
C422   C     0.31205   0.87591   0.25004   0.00000  Uiso   1.00
C423   C     0.31205   0.79075   0.25004   0.00000  Uiso   1.00
C424   C     0.02128   0.87591   0.24999   0.00000  Uiso   1.00
C425   C     0.18533   0.87043   0.04747   0.00000  Uiso   1.00
C426   C     0.18737   0.79726   0.45266   0.00000  Uiso   1.00
C427   C     0.14612   0.86928   0.45259   0.00000  Uiso   1.00
C428   C     0.14813   0.79608   0.04735   0.00000  Uiso   1.00
C429   C     0.18406   0.87090   0.09360   0.00000  Uiso   1.00
C430   C     0.18760   0.79810   0.40623   0.00000  Uiso   1.00
C431   C     0.14588   0.86852   0.40616   0.00000  Uiso   1.00
C432   C     0.24599   0.83333   0.25004   0.00000  Uiso   1.00
C433   C     0.14931   0.79568   0.09350   0.00000  Uiso   1.00
C434   C     0.16666   0.83331   0.11668   0.00000  Uiso   1.00
C435   C     0.16673   0.83332   0.38321   0.00000  Uiso   1.00
C436   C     0.16675   0.83324   0.02416   0.00000  Uiso   1.00
C437   C     0.16674   0.83326   0.47555   0.00000  Uiso   1.00
C438   C     0.29060   0.83333   0.25005   0.00000  Uiso   1.00
C439   C     0.04274   0.83333   0.24997   0.00000  Uiso   1.00
C440   C     0.24560   0.89874   0.02127   0.00000  Uiso   1.00
C441   C     0.20279   0.71857   0.46116   0.00000  Uiso   1.00
C442   C     0.13077   0.94797   0.46117   0.00000  Uiso   1.00
C443   C     0.16664   0.83333   0.16495   0.00000  Uiso   1.00
C444   C     0.08790   0.76760   0.02084   0.00000  Uiso   1.00
C445   C     0.16670   0.83333   0.33501   0.00000  Uiso   1.00
C446   C     0.14104   0.69148   0.22251   0.00000  Uiso   1.00
C447   C     0.19228   0.97519   0.27750   0.00000  Uiso   1.00
C448   C     0.19228   0.69148   0.27751   0.00000  Uiso   1.00
C449   C     0.14104   0.97519   0.22251   0.00000  Uiso   1.00
C450   C     0.02129   0.79075   0.24999   0.00000  Uiso   1.00
Cu451  Cu    0.16667   0.88022   0.25000   0.00000  Uiso   1.00
Cu452  Cu    0.16667   0.78645   0.25000   0.00000  Uiso   1.00
H453   H     0.12052   0.71020   0.20048   0.00000  Uiso   1.00
H454   H     0.29604   0.90920   0.25006   0.00000  Uiso   1.00
H455   H     0.29604   0.75746   0.25007   0.00000  Uiso   1.00
H456   H     0.03729   0.90921   0.24997   0.00000  Uiso   1.00
H457   H     0.25156   0.86592   0.00241   0.00000  Uiso   1.00
H458   H     0.26074   0.89718   0.05433   0.00000  Uiso   1.00
H459   H     0.25977   0.92804   0.00263   0.00000  Uiso   1.00
H460   H     0.21050   0.69358   0.48807   0.00000  Uiso   1.00
H461   H     0.22328   0.71052   0.43281   0.00000  Uiso   1.00
H462   H     0.16997   0.71249   0.45203   0.00000  Uiso   1.00
H463   H     0.12308   0.97289   0.48809   0.00000  Uiso   1.00
H464   H     0.21281   0.95648   0.29952   0.00000  Uiso   1.00
H465   H     0.11031   0.95613   0.43271   0.00000  Uiso   1.00
H466   H     0.16360   0.95402   0.45228   0.00000  Uiso   1.00
H467   H     0.08183   0.80045   0.00203   0.00000  Uiso   1.00
H468   H     0.07278   0.76903   0.05383   0.00000  Uiso   1.00
H469   H     0.07377   0.73830   0.00206   0.00000  Uiso   1.00
H470   H     0.21279   0.71020   0.29954   0.00000  Uiso   1.00
H471   H     0.12051   0.95647   0.20050   0.00000  Uiso   1.00
H472   H     0.19762   0.90012   0.11130   0.00000  Uiso   1.00
H473   H     0.20477   0.77205   0.38792   0.00000  Uiso   1.00
H474   H     0.12870   0.89459   0.38779   0.00000  Uiso   1.00
H475   H     0.13571   0.76648   0.11111   0.00000  Uiso   1.00
H476   H     0.03730   0.75746   0.24997   0.00000  Uiso   1.00
N477   N     0.16667   0.95069   0.25000   0.00000  Uiso   1.00
N478   N     0.16667   0.71598   0.25000   0.00000  Uiso   1.00
O479   O     0.10655   0.87291   0.24999   0.00000  Uiso   1.00
O480   O     0.20992   0.76453   0.47674   0.00000  Uiso   1.00
O481   O     0.12356   0.90198   0.47657   0.00000  Uiso   1.00
O482   O     0.13043   0.75896   0.02494   0.00000  Uiso   1.00
O483   O     0.22679   0.79375   0.25000   0.00000  Uiso   1.00
O484   O     0.22679   0.87291   0.25000   0.00000  Uiso   1.00
O485   O     0.10655   0.79375   0.24999   0.00000  Uiso   1.00
O486   O     0.16666   0.87293   0.18573   0.00000  Uiso   1.00
O487   O     0.16667   0.79374   0.31427   0.00000  Uiso   1.00
O488   O     0.16667   0.87293   0.31427   0.00000  Uiso   1.00
O489   O     0.16666   0.79374   0.18573   0.00000  Uiso   1.00
O490   O     0.20310   0.90752   0.02518   0.00000  Uiso   1.00
C491   C     0.42068   0.83333   0.24997   0.00000  Uiso   1.00
C492   C     0.64538   0.87591   0.25004   0.00000  Uiso   1.00
C493   C     0.64539   0.79075   0.25004   0.00000  Uiso   1.00
C494   C     0.35461   0.87591   0.24999   0.00000  Uiso   1.00
C495   C     0.51867   0.87043   0.04747   0.00000  Uiso   1.00
C496   C     0.52070   0.79726   0.45266   0.00000  Uiso   1.00
C497   C     0.47945   0.86928   0.45259   0.00000  Uiso   1.00
C498   C     0.48147   0.79608   0.04735   0.00000  Uiso   1.00
C499   C     0.51739   0.87090   0.09360   0.00000  Uiso   1.00
C500   C     0.52094   0.79810   0.40623   0.00000  Uiso   1.00
C501   C     0.47921   0.86852   0.40616   0.00000  Uiso   1.00
C502   C     0.57932   0.83333   0.25004   0.00000  Uiso   1.00
C503   C     0.48264   0.79568   0.09350   0.00000  Uiso   1.00
C504   C     0.49999   0.83331   0.11668   0.00000  Uiso   1.00
C505   C     0.50007   0.83332   0.38321   0.00000  Uiso   1.00
C506   C     0.50008   0.83324   0.02416   0.00000  Uiso   1.00
C507   C     0.50008   0.83326   0.47555   0.00000  Uiso   1.00
C508   C     0.62393   0.83333   0.25005   0.00000  Uiso   1.00
C509   C     0.37607   0.83333   0.24997   0.00000  Uiso   1.00
C510   C     0.57893   0.89874   0.02127   0.00000  Uiso   1.00
C511   C     0.53612   0.71857   0.46116   0.00000  Uiso   1.00
C512   C     0.46410   0.94797   0.46117   0.00000  Uiso   1.00
C513   C     0.49998   0.83333   0.16495   0.00000  Uiso   1.00
C514   C     0.42123   0.76760   0.02084   0.00000  Uiso   1.00
C515   C     0.50003   0.83333   0.33501   0.00000  Uiso   1.00
C516   C     0.47437   0.69148   0.22251   0.00000  Uiso   1.00
C517   C     0.52562   0.97519   0.27750   0.00000  Uiso   1.00
C518   C     0.52561   0.69148   0.27751   0.00000  Uiso   1.00
C519   C     0.47437   0.97519   0.22251   0.00000  Uiso   1.00
C520   C     0.35462   0.79075   0.24999   0.00000  Uiso   1.00
Cu521  Cu    0.50000   0.88022   0.25000   0.00000  Uiso   1.00
Cu522  Cu    0.50000   0.78645   0.25000   0.00000  Uiso   1.00
H523   H     0.45385   0.71020   0.20048   0.00000  Uiso   1.00
H524   H     0.62937   0.90920   0.25006   0.00000  Uiso   1.00
H525   H     0.62938   0.75746   0.25007   0.00000  Uiso   1.00
H526   H     0.37062   0.90921   0.24997   0.00000  Uiso   1.00
H527   H     0.58490   0.86592   0.00241   0.00000  Uiso   1.00
H528   H     0.59408   0.89718   0.05433   0.00000  Uiso   1.00
H529   H     0.59311   0.92804   0.00263   0.00000  Uiso   1.00
H530   H     0.54383   0.69358   0.48807   0.00000  Uiso   1.00
H531   H     0.55661   0.71052   0.43281   0.00000  Uiso   1.00
H532   H     0.50330   0.71249   0.45203   0.00000  Uiso   1.00
H533   H     0.45641   0.97289   0.48809   0.00000  Uiso   1.00
H534   H     0.54614   0.95648   0.29952   0.00000  Uiso   1.00
H535   H     0.44364   0.95613   0.43271   0.00000  Uiso   1.00
H536   H     0.49693   0.95402   0.45228   0.00000  Uiso   1.00
H537   H     0.41516   0.80045   0.00203   0.00000  Uiso   1.00
H538   H     0.40612   0.76903   0.05383   0.00000  Uiso   1.00
H539   H     0.40711   0.73830   0.00206   0.00000  Uiso   1.00
H540   H     0.54612   0.71020   0.29954   0.00000  Uiso   1.00
H541   H     0.45384   0.95647   0.20050   0.00000  Uiso   1.00
H542   H     0.53096   0.90012   0.11130   0.00000  Uiso   1.00
H543   H     0.53810   0.77205   0.38792   0.00000  Uiso   1.00
H544   H     0.46203   0.89459   0.38779   0.00000  Uiso   1.00
H545   H     0.46905   0.76648   0.11111   0.00000  Uiso   1.00
H546   H     0.37063   0.75746   0.24997   0.00000  Uiso   1.00
N547   N     0.50000   0.95069   0.25000   0.00000  Uiso   1.00
N548   N     0.50000   0.71598   0.25000   0.00000  Uiso   1.00
O549   O     0.43988   0.87291   0.24999   0.00000  Uiso   1.00
O550   O     0.54326   0.76453   0.47674   0.00000  Uiso   1.00
O551   O     0.45689   0.90198   0.47657   0.00000  Uiso   1.00
O552   O     0.46376   0.75896   0.02494   0.00000  Uiso   1.00
O553   O     0.56012   0.79375   0.25000   0.00000  Uiso   1.00
O554   O     0.56012   0.87291   0.25000   0.00000  Uiso   1.00
O555   O     0.43988   0.79375   0.24999   0.00000  Uiso   1.00
O556   O     0.50000   0.87293   0.18573   0.00000  Uiso   1.00
O557   O     0.50000   0.79374   0.31427   0.00000  Uiso   1.00
O558   O     0.50000   0.87293   0.31427   0.00000  Uiso   1.00
O559   O     0.50000   0.79374   0.18573   0.00000  Uiso   1.00
O560   O     0.53643   0.90752   0.02518   0.00000  Uiso   1.00
C561   C     0.75401   0.83333   0.24997   0.00000  Uiso   1.00
C562   C     0.97871   0.87591   0.25004   0.00000  Uiso   1.00
C563   C     0.97872   0.79075   0.25004   0.00000  Uiso   1.00
C564   C     0.68795   0.87591   0.24999   0.00000  Uiso   1.00
C565   C     0.85200   0.87043   0.04747   0.00000  Uiso   1.00
C566   C     0.85403   0.79726   0.45266   0.00000  Uiso   1.00
C567   C     0.81279   0.86928   0.45259   0.00000  Uiso   1.00
C568   C     0.81480   0.79608   0.04735   0.00000  Uiso   1.00
C569   C     0.85072   0.87090   0.09360   0.00000  Uiso   1.00
C570   C     0.85427   0.79810   0.40623   0.00000  Uiso   1.00
C571   C     0.81254   0.86852   0.40616   0.00000  Uiso   1.00
C572   C     0.91265   0.83333   0.25004   0.00000  Uiso   1.00
C573   C     0.81597   0.79568   0.09350   0.00000  Uiso   1.00
C574   C     0.83332   0.83331   0.11668   0.00000  Uiso   1.00
C575   C     0.83340   0.83332   0.38321   0.00000  Uiso   1.00
C576   C     0.83342   0.83324   0.02416   0.00000  Uiso   1.00
C577   C     0.83341   0.83326   0.47555   0.00000  Uiso   1.00
C578   C     0.95726   0.83333   0.25005   0.00000  Uiso   1.00
C579   C     0.70940   0.83333   0.24997   0.00000  Uiso   1.00
C580   C     0.91226   0.89874   0.02127   0.00000  Uiso   1.00
C581   C     0.86945   0.71857   0.46116   0.00000  Uiso   1.00
C582   C     0.79743   0.94797   0.46117   0.00000  Uiso   1.00
C583   C     0.83331   0.83333   0.16495   0.00000  Uiso   1.00
C584   C     0.75457   0.76760   0.02084   0.00000  Uiso   1.00
C585   C     0.83337   0.83333   0.33501   0.00000  Uiso   1.00
C586   C     0.80771   0.69148   0.22251   0.00000  Uiso   1.00
C587   C     0.85895   0.97519   0.27750   0.00000  Uiso   1.00
C588   C     0.85895   0.69148   0.27751   0.00000  Uiso   1.00
C589   C     0.80770   0.97519   0.22251   0.00000  Uiso   1.00
C590   C     0.68795   0.79075   0.24999   0.00000  Uiso   1.00
Cu591  Cu    0.83333   0.88022   0.25000   0.00000  Uiso   1.00
Cu592  Cu    0.83333   0.78645   0.25000   0.00000  Uiso   1.00
H593   H     0.78719   0.71020   0.20048   0.00000  Uiso   1.00
H594   H     0.96270   0.90920   0.25006   0.00000  Uiso   1.00
H595   H     0.96271   0.75746   0.25007   0.00000  Uiso   1.00
H596   H     0.70396   0.90921   0.24997   0.00000  Uiso   1.00
H597   H     0.91823   0.86592   0.00241   0.00000  Uiso   1.00
H598   H     0.92741   0.89718   0.05433   0.00000  Uiso   1.00
H599   H     0.92644   0.92804   0.00263   0.00000  Uiso   1.00
H600   H     0.87716   0.69358   0.48807   0.00000  Uiso   1.00
H601   H     0.88994   0.71052   0.43281   0.00000  Uiso   1.00
H602   H     0.83663   0.71249   0.45203   0.00000  Uiso   1.00
H603   H     0.78974   0.97289   0.48809   0.00000  Uiso   1.00
H604   H     0.87947   0.95648   0.29952   0.00000  Uiso   1.00
H605   H     0.77697   0.95613   0.43271   0.00000  Uiso   1.00
H606   H     0.83027   0.95402   0.45228   0.00000  Uiso   1.00
H607   H     0.74849   0.80045   0.00203   0.00000  Uiso   1.00
H608   H     0.73945   0.76903   0.05383   0.00000  Uiso   1.00
H609   H     0.74044   0.73830   0.00206   0.00000  Uiso   1.00
H610   H     0.87946   0.71020   0.29954   0.00000  Uiso   1.00
H611   H     0.78717   0.95647   0.20050   0.00000  Uiso   1.00
H612   H     0.86429   0.90012   0.11130   0.00000  Uiso   1.00
H613   H     0.87144   0.77205   0.38792   0.00000  Uiso   1.00
H614   H     0.79537   0.89459   0.38779   0.00000  Uiso   1.00
H615   H     0.80238   0.76648   0.11111   0.00000  Uiso   1.00
H616   H     0.70396   0.75746   0.24997   0.00000  Uiso   1.00
N617   N     0.83333   0.95069   0.25000   0.00000  Uiso   1.00
N618   N     0.83333   0.71598   0.25000   0.00000  Uiso   1.00
O619   O     0.77321   0.87291   0.24999   0.00000  Uiso   1.00
O620   O     0.87659   0.76453   0.47674   0.00000  Uiso   1.00
O621   O     0.79022   0.90198   0.47657   0.00000  Uiso   1.00
O622   O     0.79709   0.75896   0.02494   0.00000  Uiso   1.00
O623   O     0.89345   0.79375   0.25000   0.00000  Uiso   1.00
O624   O     0.89345   0.87291   0.25000   0.00000  Uiso   1.00
O625   O     0.77321   0.79375   0.24999   0.00000  Uiso   1.00
O626   O     0.83333   0.87293   0.18573   0.00000  Uiso   1.00
O627   O     0.83334   0.79374   0.31427   0.00000  Uiso   1.00
O628   O     0.83334   0.87293   0.31427   0.00000  Uiso   1.00
O629   O     0.83333   0.79374   0.18573   0.00000  Uiso   1.00
O630   O     0.86976   0.90752   0.02518   0.00000  Uiso   1.00
C631   C     0.08735   0.16667   0.74997   0.00000  Uiso   1.00
C632   C     0.31205   0.20925   0.75004   0.00000  Uiso   1.00
C633   C     0.31205   0.12409   0.75004   0.00000  Uiso   1.00
C634   C     0.02128   0.20925   0.74999   0.00000  Uiso   1.00
C635   C     0.18533   0.20376   0.54747   0.00000  Uiso   1.00
C636   C     0.18737   0.13059   0.95266   0.00000  Uiso   1.00
C637   C     0.14612   0.20262   0.95259   0.00000  Uiso   1.00
C638   C     0.14813   0.12941   0.54735   0.00000  Uiso   1.00
C639   C     0.18406   0.20423   0.59360   0.00000  Uiso   1.00
C640   C     0.18760   0.13143   0.90623   0.00000  Uiso   1.00
C641   C     0.14588   0.20185   0.90616   0.00000  Uiso   1.00
C642   C     0.24599   0.16667   0.75004   0.00000  Uiso   1.00
C643   C     0.14931   0.12902   0.59350   0.00000  Uiso   1.00
C644   C     0.16666   0.16664   0.61668   0.00000  Uiso   1.00
C645   C     0.16673   0.16666   0.88321   0.00000  Uiso   1.00
C646   C     0.16675   0.16657   0.52416   0.00000  Uiso   1.00
C647   C     0.16674   0.16659   0.97555   0.00000  Uiso   1.00
C648   C     0.29060   0.16667   0.75005   0.00000  Uiso   1.00
C649   C     0.04274   0.16667   0.74997   0.00000  Uiso   1.00
C650   C     0.24560   0.23208   0.52127   0.00000  Uiso   1.00
C651   C     0.20279   0.05190   0.96116   0.00000  Uiso   1.00
C652   C     0.13077   0.28130   0.96117   0.00000  Uiso   1.00
C653   C     0.16664   0.16666   0.66495   0.00000  Uiso   1.00
C654   C     0.08790   0.10094   0.52084   0.00000  Uiso   1.00
C655   C     0.16670   0.16667   0.83501   0.00000  Uiso   1.00
C656   C     0.14104   0.02481   0.72251   0.00000  Uiso   1.00
C657   C     0.19228   0.30852   0.77750   0.00000  Uiso   1.00
C658   C     0.19228   0.02482   0.77751   0.00000  Uiso   1.00
C659   C     0.14104   0.30852   0.72251   0.00000  Uiso   1.00
C660   C     0.02129   0.12409   0.74999   0.00000  Uiso   1.00
Cu661  Cu    0.16667   0.21355   0.75000   0.00000  Uiso   1.00
Cu662  Cu    0.16667   0.11978   0.75000   0.00000  Uiso   1.00
H663   H     0.12052   0.04353   0.70048   0.00000  Uiso   1.00
H664   H     0.29604   0.24254   0.75006   0.00000  Uiso   1.00
H665   H     0.29604   0.09079   0.75007   0.00000  Uiso   1.00
H666   H     0.03729   0.24254   0.74997   0.00000  Uiso   1.00
H667   H     0.25156   0.19925   0.50241   0.00000  Uiso   1.00
H668   H     0.26074   0.23051   0.55433   0.00000  Uiso   1.00
H669   H     0.25977   0.26138   0.50263   0.00000  Uiso   1.00
H670   H     0.21050   0.02692   0.98807   0.00000  Uiso   1.00
H671   H     0.22328   0.04385   0.93281   0.00000  Uiso   1.00
H672   H     0.16997   0.04582   0.95203   0.00000  Uiso   1.00
H673   H     0.12308   0.30622   0.98809   0.00000  Uiso   1.00
H674   H     0.21281   0.28981   0.79952   0.00000  Uiso   1.00
H675   H     0.11031   0.28946   0.93271   0.00000  Uiso   1.00
H676   H     0.16360   0.28735   0.95228   0.00000  Uiso   1.00
H677   H     0.08183   0.13378   0.50203   0.00000  Uiso   1.00
H678   H     0.07278   0.10237   0.55383   0.00000  Uiso   1.00
H679   H     0.07377   0.07163   0.50206   0.00000  Uiso   1.00
H680   H     0.21279   0.04353   0.79954   0.00000  Uiso   1.00
H681   H     0.12051   0.28980   0.70050   0.00000  Uiso   1.00
H682   H     0.19762   0.23345   0.61130   0.00000  Uiso   1.00
H683   H     0.20477   0.10538   0.88792   0.00000  Uiso   1.00
H684   H     0.12870   0.22792   0.88779   0.00000  Uiso   1.00
H685   H     0.13571   0.09981   0.61111   0.00000  Uiso   1.00
H686   H     0.03730   0.09080   0.74997   0.00000  Uiso   1.00
N687   N     0.16667   0.28402   0.75000   0.00000  Uiso   1.00
N688   N     0.16667   0.04931   0.75000   0.00000  Uiso   1.00
O689   O     0.10655   0.20625   0.74999   0.00000  Uiso   1.00
O690   O     0.20992   0.09786   0.97674   0.00000  Uiso   1.00
O691   O     0.12356   0.23531   0.97657   0.00000  Uiso   1.00
O692   O     0.13043   0.09229   0.52494   0.00000  Uiso   1.00
O693   O     0.22679   0.12709   0.75000   0.00000  Uiso   1.00
O694   O     0.22679   0.20625   0.75000   0.00000  Uiso   1.00
O695   O     0.10655   0.12709   0.74999   0.00000  Uiso   1.00
O696   O     0.16666   0.20626   0.68573   0.00000  Uiso   1.00
O697   O     0.16667   0.12707   0.81427   0.00000  Uiso   1.00
O698   O     0.16667   0.20626   0.81427   0.00000  Uiso   1.00
O699   O     0.16666   0.12707   0.68573   0.00000  Uiso   1.00
O700   O     0.20310   0.24085   0.52518   0.00000  Uiso   1.00
C701   C     0.42068   0.16667   0.74997   0.00000  Uiso   1.00
C702   C     0.64538   0.20925   0.75004   0.00000  Uiso   1.00
C703   C     0.64539   0.12409   0.75004   0.00000  Uiso   1.00
C704   C     0.35461   0.20925   0.74999   0.00000  Uiso   1.00
C705   C     0.51867   0.20376   0.54747   0.00000  Uiso   1.00
C706   C     0.52070   0.13059   0.95266   0.00000  Uiso   1.00
C707   C     0.47945   0.20262   0.95259   0.00000  Uiso   1.00
C708   C     0.48147   0.12941   0.54735   0.00000  Uiso   1.00
C709   C     0.51739   0.20423   0.59360   0.00000  Uiso   1.00
C710   C     0.52094   0.13143   0.90623   0.00000  Uiso   1.00
C711   C     0.47921   0.20185   0.90616   0.00000  Uiso   1.00
C712   C     0.57932   0.16667   0.75004   0.00000  Uiso   1.00
C713   C     0.48264   0.12902   0.59350   0.00000  Uiso   1.00
C714   C     0.49999   0.16664   0.61668   0.00000  Uiso   1.00
C715   C     0.50007   0.16666   0.88321   0.00000  Uiso   1.00
C716   C     0.50008   0.16657   0.52416   0.00000  Uiso   1.00
C717   C     0.50008   0.16659   0.97555   0.00000  Uiso   1.00
C718   C     0.62393   0.16667   0.75005   0.00000  Uiso   1.00
C719   C     0.37607   0.16667   0.74997   0.00000  Uiso   1.00
C720   C     0.57893   0.23208   0.52127   0.00000  Uiso   1.00
C721   C     0.53612   0.05190   0.96116   0.00000  Uiso   1.00
C722   C     0.46410   0.28130   0.96117   0.00000  Uiso   1.00
C723   C     0.49998   0.16666   0.66495   0.00000  Uiso   1.00
C724   C     0.42123   0.10094   0.52084   0.00000  Uiso   1.00
C725   C     0.50003   0.16667   0.83501   0.00000  Uiso   1.00
C726   C     0.47437   0.02481   0.72251   0.00000  Uiso   1.00
C727   C     0.52562   0.30852   0.77750   0.00000  Uiso   1.00
C728   C     0.52561   0.02482   0.77751   0.00000  Uiso   1.00
C729   C     0.47437   0.30852   0.72251   0.00000  Uiso   1.00
C730   C     0.35462   0.12409   0.74999   0.00000  Uiso   1.00
Cu731  Cu    0.50000   0.21355   0.75000   0.00000  Uiso   1.00
Cu732  Cu    0.50000   0.11978   0.75000   0.00000  Uiso   1.00
H733   H     0.45385   0.04353   0.70048   0.00000  Uiso   1.00
H734   H     0.62937   0.24254   0.75006   0.00000  Uiso   1.00
H735   H     0.62938   0.09079   0.75007   0.00000  Uiso   1.00
H736   H     0.37062   0.24254   0.74997   0.00000  Uiso   1.00
H737   H     0.58490   0.19925   0.50241   0.00000  Uiso   1.00
H738   H     0.59408   0.23051   0.55433   0.00000  Uiso   1.00
H739   H     0.59311   0.26138   0.50263   0.00000  Uiso   1.00
H740   H     0.54383   0.02692   0.98807   0.00000  Uiso   1.00
H741   H     0.55661   0.04385   0.93281   0.00000  Uiso   1.00
H742   H     0.50330   0.04582   0.95203   0.00000  Uiso   1.00
H743   H     0.45641   0.30622   0.98809   0.00000  Uiso   1.00
H744   H     0.54614   0.28981   0.79952   0.00000  Uiso   1.00
H745   H     0.44364   0.28946   0.93271   0.00000  Uiso   1.00
H746   H     0.49693   0.28735   0.95228   0.00000  Uiso   1.00
H747   H     0.41516   0.13378   0.50203   0.00000  Uiso   1.00
H748   H     0.40612   0.10237   0.55383   0.00000  Uiso   1.00
H749   H     0.40711   0.07163   0.50206   0.00000  Uiso   1.00
H750   H     0.54612   0.04353   0.79954   0.00000  Uiso   1.00
H751   H     0.45384   0.28980   0.70050   0.00000  Uiso   1.00
H752   H     0.53096   0.23345   0.61130   0.00000  Uiso   1.00
H753   H     0.53810   0.10538   0.88792   0.00000  Uiso   1.00
H754   H     0.46203   0.22792   0.88779   0.00000  Uiso   1.00
H755   H     0.46905   0.09981   0.61111   0.00000  Uiso   1.00
H756   H     0.37063   0.09080   0.74997   0.00000  Uiso   1.00
N757   N     0.50000   0.28402   0.75000   0.00000  Uiso   1.00
N758   N     0.50000   0.04931   0.75000   0.00000  Uiso   1.00
O759   O     0.43988   0.20625   0.74999   0.00000  Uiso   1.00
O760   O     0.54326   0.09786   0.97674   0.00000  Uiso   1.00
O761   O     0.45689   0.23531   0.97657   0.00000  Uiso   1.00
O762   O     0.46376   0.09229   0.52494   0.00000  Uiso   1.00
O763   O     0.56012   0.12709   0.75000   0.00000  Uiso   1.00
O764   O     0.56012   0.20625   0.75000   0.00000  Uiso   1.00
O765   O     0.43988   0.12709   0.74999   0.00000  Uiso   1.00
O766   O     0.50000   0.20626   0.68573   0.00000  Uiso   1.00
O767   O     0.50000   0.12707   0.81427   0.00000  Uiso   1.00
O768   O     0.50000   0.20626   0.81427   0.00000  Uiso   1.00
O769   O     0.50000   0.12707   0.68573   0.00000  Uiso   1.00
O770   O     0.53643   0.24085   0.52518   0.00000  Uiso   1.00
C771   C     0.75401   0.16667   0.74997   0.00000  Uiso   1.00
C772   C     0.97871   0.20925   0.75004   0.00000  Uiso   1.00
C773   C     0.97872   0.12409   0.75004   0.00000  Uiso   1.00
C774   C     0.68795   0.20925   0.74999   0.00000  Uiso   1.00
C775   C     0.85200   0.20376   0.54747   0.00000  Uiso   1.00
C776   C     0.85403   0.13059   0.95266   0.00000  Uiso   1.00
C777   C     0.81279   0.20262   0.95259   0.00000  Uiso   1.00
C778   C     0.81480   0.12941   0.54735   0.00000  Uiso   1.00
C779   C     0.85072   0.20423   0.59360   0.00000  Uiso   1.00
C780   C     0.85427   0.13143   0.90623   0.00000  Uiso   1.00
C781   C     0.81254   0.20185   0.90616   0.00000  Uiso   1.00
C782   C     0.91265   0.16667   0.75004   0.00000  Uiso   1.00
C783   C     0.81597   0.12902   0.59350   0.00000  Uiso   1.00
C784   C     0.83332   0.16664   0.61668   0.00000  Uiso   1.00
C785   C     0.83340   0.16666   0.88321   0.00000  Uiso   1.00
C786   C     0.83342   0.16657   0.52416   0.00000  Uiso   1.00
C787   C     0.83341   0.16659   0.97555   0.00000  Uiso   1.00
C788   C     0.95726   0.16667   0.75005   0.00000  Uiso   1.00
C789   C     0.70940   0.16667   0.74997   0.00000  Uiso   1.00
C790   C     0.91226   0.23208   0.52127   0.00000  Uiso   1.00
C791   C     0.86945   0.05190   0.96116   0.00000  Uiso   1.00
C792   C     0.79743   0.28130   0.96117   0.00000  Uiso   1.00
C793   C     0.83331   0.16666   0.66495   0.00000  Uiso   1.00
C794   C     0.75457   0.10094   0.52084   0.00000  Uiso   1.00
C795   C     0.83337   0.16667   0.83501   0.00000  Uiso   1.00
C796   C     0.80771   0.02481   0.72251   0.00000  Uiso   1.00
C797   C     0.85895   0.30852   0.77750   0.00000  Uiso   1.00
C798   C     0.85895   0.02482   0.77751   0.00000  Uiso   1.00
C799   C     0.80770   0.30852   0.72251   0.00000  Uiso   1.00
C800   C     0.68795   0.12409   0.74999   0.00000  Uiso   1.00
Cu801  Cu    0.83333   0.21355   0.75000   0.00000  Uiso   1.00
Cu802  Cu    0.83333   0.11978   0.75000   0.00000  Uiso   1.00
H803   H     0.78719   0.04353   0.70048   0.00000  Uiso   1.00
H804   H     0.96270   0.24254   0.75006   0.00000  Uiso   1.00
H805   H     0.96271   0.09079   0.75007   0.00000  Uiso   1.00
H806   H     0.70396   0.24254   0.74997   0.00000  Uiso   1.00
H807   H     0.91823   0.19925   0.50241   0.00000  Uiso   1.00
H808   H     0.92741   0.23051   0.55433   0.00000  Uiso   1.00
H809   H     0.92644   0.26138   0.50263   0.00000  Uiso   1.00
H810   H     0.87716   0.02692   0.98807   0.00000  Uiso   1.00
H811   H     0.88994   0.04385   0.93281   0.00000  Uiso   1.00
H812   H     0.83663   0.04582   0.95203   0.00000  Uiso   1.00
H813   H     0.78974   0.30622   0.98809   0.00000  Uiso   1.00
H814   H     0.87947   0.28981   0.79952   0.00000  Uiso   1.00
H815   H     0.77697   0.28946   0.93271   0.00000  Uiso   1.00
H816   H     0.83027   0.28735   0.95228   0.00000  Uiso   1.00
H817   H     0.74849   0.13378   0.50203   0.00000  Uiso   1.00
H818   H     0.73945   0.10237   0.55383   0.00000  Uiso   1.00
H819   H     0.74044   0.07163   0.50206   0.00000  Uiso   1.00
H820   H     0.87946   0.04353   0.79954   0.00000  Uiso   1.00
H821   H     0.78717   0.28980   0.70050   0.00000  Uiso   1.00
H822   H     0.86429   0.23345   0.61130   0.00000  Uiso   1.00
H823   H     0.87144   0.10538   0.88792   0.00000  Uiso   1.00
H824   H     0.79537   0.22792   0.88779   0.00000  Uiso   1.00
H825   H     0.80238   0.09981   0.61111   0.00000  Uiso   1.00
H826   H     0.70396   0.09080   0.74997   0.00000  Uiso   1.00
N827   N     0.83333   0.28402   0.75000   0.00000  Uiso   1.00
N828   N     0.83333   0.04931   0.75000   0.00000  Uiso   1.00
O829   O     0.77321   0.20625   0.74999   0.00000  Uiso   1.00
O830   O     0.87659   0.09786   0.97674   0.00000  Uiso   1.00
O831   O     0.79022   0.23531   0.97657   0.00000  Uiso   1.00
O832   O     0.79709   0.09229   0.52494   0.00000  Uiso   1.00
O833   O     0.89345   0.12709   0.75000   0.00000  Uiso   1.00
O834   O     0.89345   0.20625   0.75000   0.00000  Uiso   1.00
O835   O     0.77321   0.12709   0.74999   0.00000  Uiso   1.00
O836   O     0.83333   0.20626   0.68573   0.00000  Uiso   1.00
O837   O     0.83334   0.12707   0.81427   0.00000  Uiso   1.00
O838   O     0.83334   0.20626   0.81427   0.00000  Uiso   1.00
O839   O     0.83333   0.12707   0.68573   0.00000  Uiso   1.00
O840   O     0.86976   0.24085   0.52518   0.00000  Uiso   1.00
C841   C     0.08735   0.50000   0.74997   0.00000  Uiso   1.00
C842   C     0.31205   0.54258   0.75004   0.00000  Uiso   1.00
C843   C     0.31205   0.45742   0.75004   0.00000  Uiso   1.00
C844   C     0.02128   0.54258   0.74999   0.00000  Uiso   1.00
C845   C     0.18533   0.53710   0.54747   0.00000  Uiso   1.00
C846   C     0.18737   0.46393   0.95266   0.00000  Uiso   1.00
C847   C     0.14612   0.53595   0.95259   0.00000  Uiso   1.00
C848   C     0.14813   0.46274   0.54735   0.00000  Uiso   1.00
C849   C     0.18406   0.53756   0.59360   0.00000  Uiso   1.00
C850   C     0.18760   0.46477   0.90623   0.00000  Uiso   1.00
C851   C     0.14588   0.53518   0.90616   0.00000  Uiso   1.00
C852   C     0.24599   0.50000   0.75004   0.00000  Uiso   1.00
C853   C     0.14931   0.46235   0.59350   0.00000  Uiso   1.00
C854   C     0.16666   0.49998   0.61668   0.00000  Uiso   1.00
C855   C     0.16673   0.49999   0.88321   0.00000  Uiso   1.00
C856   C     0.16675   0.49991   0.52416   0.00000  Uiso   1.00
C857   C     0.16674   0.49992   0.97555   0.00000  Uiso   1.00
C858   C     0.29060   0.50000   0.75005   0.00000  Uiso   1.00
C859   C     0.04274   0.50000   0.74997   0.00000  Uiso   1.00
C860   C     0.24560   0.56541   0.52127   0.00000  Uiso   1.00
C861   C     0.20279   0.38523   0.96116   0.00000  Uiso   1.00
C862   C     0.13077   0.61464   0.96117   0.00000  Uiso   1.00
C863   C     0.16664   0.50000   0.66495   0.00000  Uiso   1.00
C864   C     0.08790   0.43427   0.52084   0.00000  Uiso   1.00
C865   C     0.16670   0.50000   0.83501   0.00000  Uiso   1.00
C866   C     0.14104   0.35815   0.72251   0.00000  Uiso   1.00
C867   C     0.19228   0.64186   0.77750   0.00000  Uiso   1.00
C868   C     0.19228   0.35815   0.77751   0.00000  Uiso   1.00
C869   C     0.14104   0.64185   0.72251   0.00000  Uiso   1.00
C870   C     0.02129   0.45742   0.74999   0.00000  Uiso   1.00
Cu871  Cu    0.16667   0.54689   0.75000   0.00000  Uiso   1.00
Cu872  Cu    0.16667   0.45311   0.75000   0.00000  Uiso   1.00
H873   H     0.12052   0.37686   0.70048   0.00000  Uiso   1.00
H874   H     0.29604   0.57587   0.75006   0.00000  Uiso   1.00
H875   H     0.29604   0.42413   0.75007   0.00000  Uiso   1.00
H876   H     0.03729   0.57587   0.74997   0.00000  Uiso   1.00
H877   H     0.25156   0.53259   0.50241   0.00000  Uiso   1.00
H878   H     0.26074   0.56385   0.55433   0.00000  Uiso   1.00
H879   H     0.25977   0.59471   0.50263   0.00000  Uiso   1.00
H880   H     0.21050   0.36025   0.98807   0.00000  Uiso   1.00
H881   H     0.22328   0.37719   0.93281   0.00000  Uiso   1.00
H882   H     0.16997   0.37915   0.95203   0.00000  Uiso   1.00
H883   H     0.12308   0.63956   0.98809   0.00000  Uiso   1.00
H884   H     0.21281   0.62314   0.79952   0.00000  Uiso   1.00
H885   H     0.11031   0.62279   0.93271   0.00000  Uiso   1.00
H886   H     0.16360   0.62069   0.95228   0.00000  Uiso   1.00
H887   H     0.08183   0.46712   0.50203   0.00000  Uiso   1.00
H888   H     0.07278   0.43570   0.55383   0.00000  Uiso   1.00
H889   H     0.07377   0.40497   0.50206   0.00000  Uiso   1.00
H890   H     0.21279   0.37687   0.79954   0.00000  Uiso   1.00
H891   H     0.12051   0.62314   0.70050   0.00000  Uiso   1.00
H892   H     0.19762   0.56679   0.61130   0.00000  Uiso   1.00
H893   H     0.20477   0.43872   0.88792   0.00000  Uiso   1.00
H894   H     0.12870   0.56126   0.88779   0.00000  Uiso   1.00
H895   H     0.13571   0.43315   0.61111   0.00000  Uiso   1.00
H896   H     0.03730   0.42413   0.74997   0.00000  Uiso   1.00
N897   N     0.16667   0.61736   0.75000   0.00000  Uiso   1.00
N898   N     0.16667   0.38264   0.75000   0.00000  Uiso   1.00
O899   O     0.10655   0.53958   0.74999   0.00000  Uiso   1.00
O900   O     0.20992   0.43120   0.97674   0.00000  Uiso   1.00
O901   O     0.12356   0.56864   0.97657   0.00000  Uiso   1.00
O902   O     0.13043   0.42562   0.52494   0.00000  Uiso   1.00
O903   O     0.22679   0.46042   0.75000   0.00000  Uiso   1.00
O904   O     0.22679   0.53958   0.75000   0.00000  Uiso   1.00
O905   O     0.10655   0.46042   0.74999   0.00000  Uiso   1.00
O906   O     0.16666   0.53959   0.68573   0.00000  Uiso   1.00
O907   O     0.16667   0.46041   0.81427   0.00000  Uiso   1.00
O908   O     0.16667   0.53959   0.81427   0.00000  Uiso   1.00
O909   O     0.16666   0.46041   0.68573   0.00000  Uiso   1.00
O910   O     0.20310   0.57419   0.52518   0.00000  Uiso   1.00
C911   C     0.42068   0.50000   0.74997   0.00000  Uiso   1.00
C912   C     0.64538   0.54258   0.75004   0.00000  Uiso   1.00
C913   C     0.64539   0.45742   0.75004   0.00000  Uiso   1.00
C914   C     0.35461   0.54258   0.74999   0.00000  Uiso   1.00
C915   C     0.51867   0.53710   0.54747   0.00000  Uiso   1.00
C916   C     0.52070   0.46393   0.95266   0.00000  Uiso   1.00
C917   C     0.47945   0.53595   0.95259   0.00000  Uiso   1.00
C918   C     0.48147   0.46274   0.54735   0.00000  Uiso   1.00
C919   C     0.51739   0.53756   0.59360   0.00000  Uiso   1.00
C920   C     0.52094   0.46477   0.90623   0.00000  Uiso   1.00
C921   C     0.47921   0.53518   0.90616   0.00000  Uiso   1.00
C922   C     0.57932   0.50000   0.75004   0.00000  Uiso   1.00
C923   C     0.48264   0.46235   0.59350   0.00000  Uiso   1.00
C924   C     0.49999   0.49998   0.61668   0.00000  Uiso   1.00
C925   C     0.50007   0.49999   0.88321   0.00000  Uiso   1.00
C926   C     0.50008   0.49991   0.52416   0.00000  Uiso   1.00
C927   C     0.50008   0.49992   0.97555   0.00000  Uiso   1.00
C928   C     0.62393   0.50000   0.75005   0.00000  Uiso   1.00
C929   C     0.37607   0.50000   0.74997   0.00000  Uiso   1.00
C930   C     0.57893   0.56541   0.52127   0.00000  Uiso   1.00
C931   C     0.53612   0.38523   0.96116   0.00000  Uiso   1.00
C932   C     0.46410   0.61464   0.96117   0.00000  Uiso   1.00
C933   C     0.49998   0.50000   0.66495   0.00000  Uiso   1.00
C934   C     0.42123   0.43427   0.52084   0.00000  Uiso   1.00
C935   C     0.50003   0.50000   0.83501   0.00000  Uiso   1.00
C936   C     0.47437   0.35815   0.72251   0.00000  Uiso   1.00
C937   C     0.52562   0.64186   0.77750   0.00000  Uiso   1.00
C938   C     0.52561   0.35815   0.77751   0.00000  Uiso   1.00
C939   C     0.47437   0.64185   0.72251   0.00000  Uiso   1.00
C940   C     0.35462   0.45742   0.74999   0.00000  Uiso   1.00
Cu941  Cu    0.50000   0.54689   0.75000   0.00000  Uiso   1.00
Cu942  Cu    0.50000   0.45311   0.75000   0.00000  Uiso   1.00
H943   H     0.45385   0.37686   0.70048   0.00000  Uiso   1.00
H944   H     0.62937   0.57587   0.75006   0.00000  Uiso   1.00
H945   H     0.62938   0.42413   0.75007   0.00000  Uiso   1.00
H946   H     0.37062   0.57587   0.74997   0.00000  Uiso   1.00
H947   H     0.58490   0.53259   0.50241   0.00000  Uiso   1.00
H948   H     0.59408   0.56385   0.55433   0.00000  Uiso   1.00
H949   H     0.59311   0.59471   0.50263   0.00000  Uiso   1.00
H950   H     0.54383   0.36025   0.98807   0.00000  Uiso   1.00
H951   H     0.55661   0.37719   0.93281   0.00000  Uiso   1.00
H952   H     0.50330   0.37915   0.95203   0.00000  Uiso   1.00
H953   H     0.45641   0.63956   0.98809   0.00000  Uiso   1.00
H954   H     0.54614   0.62314   0.79952   0.00000  Uiso   1.00
H955   H     0.44364   0.62279   0.93271   0.00000  Uiso   1.00
H956   H     0.49693   0.62069   0.95228   0.00000  Uiso   1.00
H957   H     0.41516   0.46712   0.50203   0.00000  Uiso   1.00
H958   H     0.40612   0.43570   0.55383   0.00000  Uiso   1.00
H959   H     0.40711   0.40497   0.50206   0.00000  Uiso   1.00
H960   H     0.54612   0.37687   0.79954   0.00000  Uiso   1.00
H961   H     0.45384   0.62314   0.70050   0.00000  Uiso   1.00
H962   H     0.53096   0.56679   0.61130   0.00000  Uiso   1.00
H963   H     0.53810   0.43872   0.88792   0.00000  Uiso   1.00
H964   H     0.46203   0.56126   0.88779   0.00000  Uiso   1.00
H965   H     0.46905   0.43315   0.61111   0.00000  Uiso   1.00
H966   H     0.37063   0.42413   0.74997   0.00000  Uiso   1.00
N967   N     0.50000   0.61736   0.75000   0.00000  Uiso   1.00
N968   N     0.50000   0.38264   0.75000   0.00000  Uiso   1.00
O969   O     0.43988   0.53958   0.74999   0.00000  Uiso   1.00
O970   O     0.54326   0.43120   0.97674   0.00000  Uiso   1.00
O971   O     0.45689   0.56864   0.97657   0.00000  Uiso   1.00
O972   O     0.46376   0.42562   0.52494   0.00000  Uiso   1.00
O973   O     0.56012   0.46042   0.75000   0.00000  Uiso   1.00
O974   O     0.56012   0.53958   0.75000   0.00000  Uiso   1.00
O975   O     0.43988   0.46042   0.74999   0.00000  Uiso   1.00
O976   O     0.50000   0.53959   0.68573   0.00000  Uiso   1.00
O977   O     0.50000   0.46041   0.81427   0.00000  Uiso   1.00
O978   O     0.50000   0.53959   0.81427   0.00000  Uiso   1.00
O979   O     0.50000   0.46041   0.68573   0.00000  Uiso   1.00
O980   O     0.53643   0.57419   0.52518   0.00000  Uiso   1.00
C981   C     0.75401   0.50000   0.74997   0.00000  Uiso   1.00
C982   C     0.97871   0.54258   0.75004   0.00000  Uiso   1.00
C983   C     0.97872   0.45742   0.75004   0.00000  Uiso   1.00
C984   C     0.68795   0.54258   0.74999   0.00000  Uiso   1.00
C985   C     0.85200   0.53710   0.54747   0.00000  Uiso   1.00
C986   C     0.85403   0.46393   0.95266   0.00000  Uiso   1.00
C987   C     0.81279   0.53595   0.95259   0.00000  Uiso   1.00
C988   C     0.81480   0.46274   0.54735   0.00000  Uiso   1.00
C989   C     0.85072   0.53756   0.59360   0.00000  Uiso   1.00
C990   C     0.85427   0.46477   0.90623   0.00000  Uiso   1.00
C991   C     0.81254   0.53518   0.90616   0.00000  Uiso   1.00
C992   C     0.91265   0.50000   0.75004   0.00000  Uiso   1.00
C993   C     0.81597   0.46235   0.59350   0.00000  Uiso   1.00
C994   C     0.83332   0.49998   0.61668   0.00000  Uiso   1.00
C995   C     0.83340   0.49999   0.88321   0.00000  Uiso   1.00
C996   C     0.83342   0.49991   0.52416   0.00000  Uiso   1.00
C997   C     0.83341   0.49992   0.97555   0.00000  Uiso   1.00
C998   C     0.95726   0.50000   0.75005   0.00000  Uiso   1.00
C999   C     0.70940   0.50000   0.74997   0.00000  Uiso   1.00
C1000  C     0.91226   0.56541   0.52127   0.00000  Uiso   1.00
C1001  C     0.86945   0.38523   0.96116   0.00000  Uiso   1.00
C1002  C     0.79743   0.61464   0.96117   0.00000  Uiso   1.00
C1003  C     0.83331   0.50000   0.66495   0.00000  Uiso   1.00
C1004  C     0.75457   0.43427   0.52084   0.00000  Uiso   1.00
C1005  C     0.83337   0.50000   0.83501   0.00000  Uiso   1.00
C1006  C     0.80771   0.35815   0.72251   0.00000  Uiso   1.00
C1007  C     0.85895   0.64186   0.77750   0.00000  Uiso   1.00
C1008  C     0.85895   0.35815   0.77751   0.00000  Uiso   1.00
C1009  C     0.80770   0.64185   0.72251   0.00000  Uiso   1.00
C1010  C     0.68795   0.45742   0.74999   0.00000  Uiso   1.00
Cu1011 Cu    0.83333   0.54689   0.75000   0.00000  Uiso   1.00
Cu1012 Cu    0.83333   0.45311   0.75000   0.00000  Uiso   1.00
H1013  H     0.78719   0.37686   0.70048   0.00000  Uiso   1.00
H1014  H     0.96270   0.57587   0.75006   0.00000  Uiso   1.00
H1015  H     0.96271   0.42413   0.75007   0.00000  Uiso   1.00
H1016  H     0.70396   0.57587   0.74997   0.00000  Uiso   1.00
H1017  H     0.91823   0.53259   0.50241   0.00000  Uiso   1.00
H1018  H     0.92741   0.56385   0.55433   0.00000  Uiso   1.00
H1019  H     0.92644   0.59471   0.50263   0.00000  Uiso   1.00
H1020  H     0.87716   0.36025   0.98807   0.00000  Uiso   1.00
H1021  H     0.88994   0.37719   0.93281   0.00000  Uiso   1.00
H1022  H     0.83663   0.37915   0.95203   0.00000  Uiso   1.00
H1023  H     0.78974   0.63956   0.98809   0.00000  Uiso   1.00
H1024  H     0.87947   0.62314   0.79952   0.00000  Uiso   1.00
H1025  H     0.77697   0.62279   0.93271   0.00000  Uiso   1.00
H1026  H     0.83027   0.62069   0.95228   0.00000  Uiso   1.00
H1027  H     0.74849   0.46712   0.50203   0.00000  Uiso   1.00
H1028  H     0.73945   0.43570   0.55383   0.00000  Uiso   1.00
H1029  H     0.74044   0.40497   0.50206   0.00000  Uiso   1.00
H1030  H     0.87946   0.37687   0.79954   0.00000  Uiso   1.00
H1031  H     0.78717   0.62314   0.70050   0.00000  Uiso   1.00
H1032  H     0.86429   0.56679   0.61130   0.00000  Uiso   1.00
H1033  H     0.87144   0.43872   0.88792   0.00000  Uiso   1.00
H1034  H     0.79537   0.56126   0.88779   0.00000  Uiso   1.00
H1035  H     0.80238   0.43315   0.61111   0.00000  Uiso   1.00
H1036  H     0.70396   0.42413   0.74997   0.00000  Uiso   1.00
N1037  N     0.83333   0.61736   0.75000   0.00000  Uiso   1.00
N1038  N     0.83333   0.38264   0.75000   0.00000  Uiso   1.00
O1039  O     0.77321   0.53958   0.74999   0.00000  Uiso   1.00
O1040  O     0.87659   0.43120   0.97674   0.00000  Uiso   1.00
O1041  O     0.79022   0.56864   0.97657   0.00000  Uiso   1.00
O1042  O     0.79709   0.42562   0.52494   0.00000  Uiso   1.00
O1043  O     0.89345   0.46042   0.75000   0.00000  Uiso   1.00
O1044  O     0.89345   0.53958   0.75000   0.00000  Uiso   1.00
O1045  O     0.77321   0.46042   0.74999   0.00000  Uiso   1.00
O1046  O     0.83333   0.53959   0.68573   0.00000  Uiso   1.00
O1047  O     0.83334   0.46041   0.81427   0.00000  Uiso   1.00
O1048  O     0.83334   0.53959   0.81427   0.00000  Uiso   1.00
O1049  O     0.83333   0.46041   0.68573   0.00000  Uiso   1.00
O1050  O     0.86976   0.57419   0.52518   0.00000  Uiso   1.00
C1051  C     0.08735   0.83333   0.74997   0.00000  Uiso   1.00
C1052  C     0.31205   0.87591   0.75004   0.00000  Uiso   1.00
C1053  C     0.31205   0.79075   0.75004   0.00000  Uiso   1.00
C1054  C     0.02128   0.87591   0.74999   0.00000  Uiso   1.00
C1055  C     0.18533   0.87043   0.54747   0.00000  Uiso   1.00
C1056  C     0.18737   0.79726   0.95266   0.00000  Uiso   1.00
C1057  C     0.14612   0.86928   0.95259   0.00000  Uiso   1.00
C1058  C     0.14813   0.79608   0.54735   0.00000  Uiso   1.00
C1059  C     0.18406   0.87090   0.59360   0.00000  Uiso   1.00
C1060  C     0.18760   0.79810   0.90623   0.00000  Uiso   1.00
C1061  C     0.14588   0.86852   0.90616   0.00000  Uiso   1.00
C1062  C     0.24599   0.83333   0.75004   0.00000  Uiso   1.00
C1063  C     0.14931   0.79568   0.59350   0.00000  Uiso   1.00
C1064  C     0.16666   0.83331   0.61668   0.00000  Uiso   1.00
C1065  C     0.16673   0.83332   0.88321   0.00000  Uiso   1.00
C1066  C     0.16675   0.83324   0.52416   0.00000  Uiso   1.00
C1067  C     0.16674   0.83326   0.97555   0.00000  Uiso   1.00
C1068  C     0.29060   0.83333   0.75005   0.00000  Uiso   1.00
C1069  C     0.04274   0.83333   0.74997   0.00000  Uiso   1.00
C1070  C     0.24560   0.89874   0.52127   0.00000  Uiso   1.00
C1071  C     0.20279   0.71857   0.96116   0.00000  Uiso   1.00
C1072  C     0.13077   0.94797   0.96117   0.00000  Uiso   1.00
C1073  C     0.16664   0.83333   0.66495   0.00000  Uiso   1.00
C1074  C     0.08790   0.76760   0.52084   0.00000  Uiso   1.00
C1075  C     0.16670   0.83333   0.83501   0.00000  Uiso   1.00
C1076  C     0.14104   0.69148   0.72251   0.00000  Uiso   1.00
C1077  C     0.19228   0.97519   0.77750   0.00000  Uiso   1.00
C1078  C     0.19228   0.69148   0.77751   0.00000  Uiso   1.00
C1079  C     0.14104   0.97519   0.72251   0.00000  Uiso   1.00
C1080  C     0.02129   0.79075   0.74999   0.00000  Uiso   1.00
Cu1081 Cu    0.16667   0.88022   0.75000   0.00000  Uiso   1.00
Cu1082 Cu    0.16667   0.78645   0.75000   0.00000  Uiso   1.00
H1083  H     0.12052   0.71020   0.70048   0.00000  Uiso   1.00
H1084  H     0.29604   0.90920   0.75006   0.00000  Uiso   1.00
H1085  H     0.29604   0.75746   0.75007   0.00000  Uiso   1.00
H1086  H     0.03729   0.90921   0.74997   0.00000  Uiso   1.00
H1087  H     0.25156   0.86592   0.50241   0.00000  Uiso   1.00
H1088  H     0.26074   0.89718   0.55433   0.00000  Uiso   1.00
H1089  H     0.25977   0.92804   0.50263   0.00000  Uiso   1.00
H1090  H     0.21050   0.69358   0.98807   0.00000  Uiso   1.00
H1091  H     0.22328   0.71052   0.93281   0.00000  Uiso   1.00
H1092  H     0.16997   0.71249   0.95203   0.00000  Uiso   1.00
H1093  H     0.12308   0.97289   0.98809   0.00000  Uiso   1.00
H1094  H     0.21281   0.95648   0.79952   0.00000  Uiso   1.00
H1095  H     0.11031   0.95613   0.93271   0.00000  Uiso   1.00
H1096  H     0.16360   0.95402   0.95228   0.00000  Uiso   1.00
H1097  H     0.08183   0.80045   0.50203   0.00000  Uiso   1.00
H1098  H     0.07278   0.76903   0.55383   0.00000  Uiso   1.00
H1099  H     0.07377   0.73830   0.50206   0.00000  Uiso   1.00
H1100  H     0.21279   0.71020   0.79954   0.00000  Uiso   1.00
H1101  H     0.12051   0.95647   0.70050   0.00000  Uiso   1.00
H1102  H     0.19762   0.90012   0.61130   0.00000  Uiso   1.00
H1103  H     0.20477   0.77205   0.88792   0.00000  Uiso   1.00
H1104  H     0.12870   0.89459   0.88779   0.00000  Uiso   1.00
H1105  H     0.13571   0.76648   0.61111   0.00000  Uiso   1.00
H1106  H     0.03730   0.75746   0.74997   0.00000  Uiso   1.00
N1107  N     0.16667   0.95069   0.75000   0.00000  Uiso   1.00
N1108  N     0.16667   0.71598   0.75000   0.00000  Uiso   1.00
O1109  O     0.10655   0.87291   0.74999   0.00000  Uiso   1.00
O1110  O     0.20992   0.76453   0.97674   0.00000  Uiso   1.00
O1111  O     0.12356   0.90198   0.97657   0.00000  Uiso   1.00
O1112  O     0.13043   0.75896   0.52494   0.00000  Uiso   1.00
O1113  O     0.22679   0.79375   0.75000   0.00000  Uiso   1.00
O1114  O     0.22679   0.87291   0.75000   0.00000  Uiso   1.00
O1115  O     0.10655   0.79375   0.74999   0.00000  Uiso   1.00
O1116  O     0.16666   0.87293   0.68573   0.00000  Uiso   1.00
O1117  O     0.16667   0.79374   0.81427   0.00000  Uiso   1.00
O1118  O     0.16667   0.87293   0.81427   0.00000  Uiso   1.00
O1119  O     0.16666   0.79374   0.68573   0.00000  Uiso   1.00
O1120  O     0.20310   0.90752   0.52518   0.00000  Uiso   1.00
C1121  C     0.42068   0.83333   0.74997   0.00000  Uiso   1.00
C1122  C     0.64538   0.87591   0.75004   0.00000  Uiso   1.00
C1123  C     0.64539   0.79075   0.75004   0.00000  Uiso   1.00
C1124  C     0.35461   0.87591   0.74999   0.00000  Uiso   1.00
C1125  C     0.51867   0.87043   0.54747   0.00000  Uiso   1.00
C1126  C     0.52070   0.79726   0.95266   0.00000  Uiso   1.00
C1127  C     0.47945   0.86928   0.95259   0.00000  Uiso   1.00
C1128  C     0.48147   0.79608   0.54735   0.00000  Uiso   1.00
C1129  C     0.51739   0.87090   0.59360   0.00000  Uiso   1.00
C1130  C     0.52094   0.79810   0.90623   0.00000  Uiso   1.00
C1131  C     0.47921   0.86852   0.90616   0.00000  Uiso   1.00
C1132  C     0.57932   0.83333   0.75004   0.00000  Uiso   1.00
C1133  C     0.48264   0.79568   0.59350   0.00000  Uiso   1.00
C1134  C     0.49999   0.83331   0.61668   0.00000  Uiso   1.00
C1135  C     0.50007   0.83332   0.88321   0.00000  Uiso   1.00
C1136  C     0.50008   0.83324   0.52416   0.00000  Uiso   1.00
C1137  C     0.50008   0.83326   0.97555   0.00000  Uiso   1.00
C1138  C     0.62393   0.83333   0.75005   0.00000  Uiso   1.00
C1139  C     0.37607   0.83333   0.74997   0.00000  Uiso   1.00
C1140  C     0.57893   0.89874   0.52127   0.00000  Uiso   1.00
C1141  C     0.53612   0.71857   0.96116   0.00000  Uiso   1.00
C1142  C     0.46410   0.94797   0.96117   0.00000  Uiso   1.00
C1143  C     0.49998   0.83333   0.66495   0.00000  Uiso   1.00
C1144  C     0.42123   0.76760   0.52084   0.00000  Uiso   1.00
C1145  C     0.50003   0.83333   0.83501   0.00000  Uiso   1.00
C1146  C     0.47437   0.69148   0.72251   0.00000  Uiso   1.00
C1147  C     0.52562   0.97519   0.77750   0.00000  Uiso   1.00
C1148  C     0.52561   0.69148   0.77751   0.00000  Uiso   1.00
C1149  C     0.47437   0.97519   0.72251   0.00000  Uiso   1.00
C1150  C     0.35462   0.79075   0.74999   0.00000  Uiso   1.00
Cu1151 Cu    0.50000   0.88022   0.75000   0.00000  Uiso   1.00
Cu1152 Cu    0.50000   0.78645   0.75000   0.00000  Uiso   1.00
H1153  H     0.45385   0.71020   0.70048   0.00000  Uiso   1.00
H1154  H     0.62937   0.90920   0.75006   0.00000  Uiso   1.00
H1155  H     0.62938   0.75746   0.75007   0.00000  Uiso   1.00
H1156  H     0.37062   0.90921   0.74997   0.00000  Uiso   1.00
H1157  H     0.58490   0.86592   0.50241   0.00000  Uiso   1.00
H1158  H     0.59408   0.89718   0.55433   0.00000  Uiso   1.00
H1159  H     0.59311   0.92804   0.50263   0.00000  Uiso   1.00
H1160  H     0.54383   0.69358   0.98807   0.00000  Uiso   1.00
H1161  H     0.55661   0.71052   0.93281   0.00000  Uiso   1.00
H1162  H     0.50330   0.71249   0.95203   0.00000  Uiso   1.00
H1163  H     0.45641   0.97289   0.98809   0.00000  Uiso   1.00
H1164  H     0.54614   0.95648   0.79952   0.00000  Uiso   1.00
H1165  H     0.44364   0.95613   0.93271   0.00000  Uiso   1.00
H1166  H     0.49693   0.95402   0.95228   0.00000  Uiso   1.00
H1167  H     0.41516   0.80045   0.50203   0.00000  Uiso   1.00
H1168  H     0.40612   0.76903   0.55383   0.00000  Uiso   1.00
H1169  H     0.40711   0.73830   0.50206   0.00000  Uiso   1.00
H1170  H     0.54612   0.71020   0.79954   0.00000  Uiso   1.00
H1171  H     0.45384   0.95647   0.70050   0.00000  Uiso   1.00
H1172  H     0.53096   0.90012   0.61130   0.00000  Uiso   1.00
H1173  H     0.53810   0.77205   0.88792   0.00000  Uiso   1.00
H1174  H     0.46203   0.89459   0.88779   0.00000  Uiso   1.00
H1175  H     0.46905   0.76648   0.61111   0.00000  Uiso   1.00
H1176  H     0.37063   0.75746   0.74997   0.00000  Uiso   1.00
N1177  N     0.50000   0.95069   0.75000   0.00000  Uiso   1.00
N1178  N     0.50000   0.71598   0.75000   0.00000  Uiso   1.00
O1179  O     0.43988   0.87291   0.74999   0.00000  Uiso   1.00
O1180  O     0.54326   0.76453   0.97674   0.00000  Uiso   1.00
O1181  O     0.45689   0.90198   0.97657   0.00000  Uiso   1.00
O1182  O     0.46376   0.75896   0.52494   0.00000  Uiso   1.00
O1183  O     0.56012   0.79375   0.75000   0.00000  Uiso   1.00
O1184  O     0.56012   0.87291   0.75000   0.00000  Uiso   1.00
O1185  O     0.43988   0.79375   0.74999   0.00000  Uiso   1.00
O1186  O     0.50000   0.87293   0.68573   0.00000  Uiso   1.00
O1187  O     0.50000   0.79374   0.81427   0.00000  Uiso   1.00
O1188  O     0.50000   0.87293   0.81427   0.00000  Uiso   1.00
O1189  O     0.50000   0.79374   0.68573   0.00000  Uiso   1.00
O1190  O     0.53643   0.90752   0.52518   0.00000  Uiso   1.00
C1191  C     0.75401   0.83333   0.74997   0.00000  Uiso   1.00
C1192  C     0.97871   0.87591   0.75004   0.00000  Uiso   1.00
C1193  C     0.97872   0.79075   0.75004   0.00000  Uiso   1.00
C1194  C     0.68795   0.87591   0.74999   0.00000  Uiso   1.00
C1195  C     0.85200   0.87043   0.54747   0.00000  Uiso   1.00
C1196  C     0.85403   0.79726   0.95266   0.00000  Uiso   1.00
C1197  C     0.81279   0.86928   0.95259   0.00000  Uiso   1.00
C1198  C     0.81480   0.79608   0.54735   0.00000  Uiso   1.00
C1199  C     0.85072   0.87090   0.59360   0.00000  Uiso   1.00
C1200  C     0.85427   0.79810   0.90623   0.00000  Uiso   1.00
C1201  C     0.81254   0.86852   0.90616   0.00000  Uiso   1.00
C1202  C     0.91265   0.83333   0.75004   0.00000  Uiso   1.00
C1203  C     0.81597   0.79568   0.59350   0.00000  Uiso   1.00
C1204  C     0.83332   0.83331   0.61668   0.00000  Uiso   1.00
C1205  C     0.83340   0.83332   0.88321   0.00000  Uiso   1.00
C1206  C     0.83342   0.83324   0.52416   0.00000  Uiso   1.00
C1207  C     0.83341   0.83326   0.97555   0.00000  Uiso   1.00
C1208  C     0.95726   0.83333   0.75005   0.00000  Uiso   1.00
C1209  C     0.70940   0.83333   0.74997   0.00000  Uiso   1.00
C1210  C     0.91226   0.89874   0.52127   0.00000  Uiso   1.00
C1211  C     0.86945   0.71857   0.96116   0.00000  Uiso   1.00
C1212  C     0.79743   0.94797   0.96117   0.00000  Uiso   1.00
C1213  C     0.83331   0.83333   0.66495   0.00000  Uiso   1.00
C1214  C     0.75457   0.76760   0.52084   0.00000  Uiso   1.00
C1215  C     0.83337   0.83333   0.83501   0.00000  Uiso   1.00
C1216  C     0.80771   0.69148   0.72251   0.00000  Uiso   1.00
C1217  C     0.85895   0.97519   0.77750   0.00000  Uiso   1.00
C1218  C     0.85895   0.69148   0.77751   0.00000  Uiso   1.00
C1219  C     0.80770   0.97519   0.72251   0.00000  Uiso   1.00
C1220  C     0.68795   0.79075   0.74999   0.00000  Uiso   1.00
Cu1221 Cu    0.83333   0.88022   0.75000   0.00000  Uiso   1.00
Cu1222 Cu    0.83333   0.78645   0.75000   0.00000  Uiso   1.00
H1223  H     0.78719   0.71020   0.70048   0.00000  Uiso   1.00
H1224  H     0.96270   0.90920   0.75006   0.00000  Uiso   1.00
H1225  H     0.96271   0.75746   0.75007   0.00000  Uiso   1.00
H1226  H     0.70396   0.90921   0.74997   0.00000  Uiso   1.00
H1227  H     0.91823   0.86592   0.50241   0.00000  Uiso   1.00
H1228  H     0.92741   0.89718   0.55433   0.00000  Uiso   1.00
H1229  H     0.92644   0.92804   0.50263   0.00000  Uiso   1.00
H1230  H     0.87716   0.69358   0.98807   0.00000  Uiso   1.00
H1231  H     0.88994   0.71052   0.93281   0.00000  Uiso   1.00
H1232  H     0.83663   0.71249   0.95203   0.00000  Uiso   1.00
H1233  H     0.78974   0.97289   0.98809   0.00000  Uiso   1.00
H1234  H     0.87947   0.95648   0.79952   0.00000  Uiso   1.00
H1235  H     0.77697   0.95613   0.93271   0.00000  Uiso   1.00
H1236  H     0.83027   0.95402   0.95228   0.00000  Uiso   1.00
H1237  H     0.74849   0.80045   0.50203   0.00000  Uiso   1.00
H1238  H     0.73945   0.76903   0.55383   0.00000  Uiso   1.00
H1239  H     0.74044   0.73830   0.50206   0.00000  Uiso   1.00
H1240  H     0.87946   0.71020   0.79954   0.00000  Uiso   1.00
H1241  H     0.78717   0.95647   0.70050   0.00000  Uiso   1.00
H1242  H     0.86429   0.90012   0.61130   0.00000  Uiso   1.00
H1243  H     0.87144   0.77205   0.88792   0.00000  Uiso   1.00
H1244  H     0.79537   0.89459   0.88779   0.00000  Uiso   1.00
H1245  H     0.80238   0.76648   0.61111   0.00000  Uiso   1.00
H1246  H     0.70396   0.75746   0.74997   0.00000  Uiso   1.00
N1247  N     0.83333   0.95069   0.75000   0.00000  Uiso   1.00
N1248  N     0.83333   0.71598   0.75000   0.00000  Uiso   1.00
O1249  O     0.77321   0.87291   0.74999   0.00000  Uiso   1.00
O1250  O     0.87659   0.76453   0.97674   0.00000  Uiso   1.00
O1251  O     0.79022   0.90198   0.97657   0.00000  Uiso   1.00
O1252  O     0.79709   0.75896   0.52494   0.00000  Uiso   1.00
O1253  O     0.89345   0.79375   0.75000   0.00000  Uiso   1.00
O1254  O     0.89345   0.87291   0.75000   0.00000  Uiso   1.00
O1255  O     0.77321   0.79375   0.74999   0.00000  Uiso   1.00
O1256  O     0.83333   0.87293   0.68573   0.00000  Uiso   1.00
O1257  O     0.83334   0.79374   0.81427   0.00000  Uiso   1.00
O1258  O     0.83334   0.87293   0.81427   0.00000  Uiso   1.00
O1259  O     0.83333   0.79374   0.68573   0.00000  Uiso   1.00
O1260  O     0.86976   0.90752   0.52518   0.00000  Uiso   1.00
loop_
_geom_bond_atom_site_label_1
_geom_bond_atom_site_label_2
_geom_bond_distance
_geom_bond_site_symmetry_2
_ccdc_geom_bond_type
C1     O65     1.290   .     A
C1     O59     1.291   .     A
C1     C19     1.450   .     S
C2     C18     1.401   .     A
C2     H34     1.083   .     S
C2     C74     1.383   .     S
C3     H35     1.083   .     S
C3     C18     1.401   .     A
C3     C100    1.383   .     S
C4     H36     1.083   .     S
C4     C19     1.401   .     A
C4     C142    1.383   1_455 S
C5     C9      1.395   .     A
C5     O70     1.382   .     S
C5     C16     1.409   .     A
C6     C10     1.403   .     A
C6     C17     1.409   .     A
C6     O60     1.391   .     S
C7     C11     1.403   .     A
C7     O61     1.391   .     S
C7     C17     1.409   .     A
C8     C13     1.395   .     A
C8     C16     1.409   .     A
C8     O62     1.382   .     S
C9     C14     1.400   .     A
C9     H52     1.084   .     S
C10    C15     1.397   .     A
C10    H53     1.082   .     S
C11    C15     1.397   .     A
C11    H54     1.082   .     S
C12    O64     1.291   .     A
C12    C18     1.450   .     S
C12    O63     1.291   .     A
C13    C14     1.400   .     A
C13    H55     1.084   .     S
C14    C23     1.458   .     S
C15    C25     1.456   .     S
C16    C647    1.469   1_554 S
C17    C646    1.469   .     S
C19    C30     1.401   .     A
C20    H38     1.113   .     S
C20    H37     1.114   .     S
C20    O70     1.409   .     S
C20    H39     1.109   .     S
C21    O60     1.413   .     S
C21    H41     1.110   .     S
C21    H42     1.115   .     S
C21    H40     1.109   .     S
C22    H43     1.109   .     S
C22    O61     1.413   .     S
C22    H46     1.115   .     S
C22    H45     1.110   .     S
C23    O69     1.293   .     A
C23    O66     1.293   .     A
C24    H47     1.114   .     S
C24    H48     1.113   .     S
C24    H49     1.109   .     S
C24    O62     1.409   .     S
C25    O67     1.292   .     A
C25    O68     1.292   .     A
C26    H33     1.082   .     S
C26    N58     1.367   .     A
C26    C449    1.416   1_545 S
C27    H44     1.082   .     S
C27    N57     1.367   .     A
C27    C238    1.416   .     S
C28    N58     1.367   .     A
C28    H50     1.082   .     S
C28    C447    1.416   1_545 S
C29    N57     1.367   .     A
C29    H51     1.082   .     S
C29    C236    1.416   .     S
C30    H56     1.083   .     S
C30    C143    1.383   1_455 S
Cu31   N57     2.011   .     S
Cu31   O66     1.953   .     S
Cu31   O68     1.953   .     S
Cu31   O59     1.965   .     S
Cu31   O64     1.965   .     S
Cu31   Cu32    2.676   .     S
Cu32   N58     2.011   .     S
Cu32   O67     1.953   .     S
Cu32   O69     1.953   .     S
Cu32   O63     1.965   .     S
Cu32   O65     1.965   .     S
C71    O135    1.290   .     A
C71    O129    1.291   .     A
C71    C89     1.450   .     S
C72    C88     1.401   .     A
C72    H104    1.083   .     S
C72    C144    1.383   .     S
C73    H105    1.083   .     S
C73    C88     1.401   .     A
C73    C170    1.383   .     S
C74    H106    1.083   .     S
C74    C89     1.401   .     A
C75    C79     1.395   .     A
C75    O140    1.382   .     S
C75    C86     1.409   .     A
C76    C80     1.403   .     A
C76    C87     1.409   .     A
C76    O130    1.391   .     S
C77    C81     1.403   .     A
C77    O131    1.391   .     S
C77    C87     1.409   .     A
C78    C83     1.395   .     A
C78    C86     1.409   .     A
C78    O132    1.382   .     S
C79    C84     1.400   .     A
C79    H122    1.084   .     S
C80    C85     1.397   .     A
C80    H123    1.082   .     S
C81    C85     1.397   .     A
C81    H124    1.082   .     S
C82    O134    1.291   .     A
C82    C88     1.450   .     S
C82    O133    1.291   .     A
C83    C84     1.400   .     A
C83    H125    1.084   .     S
C84    C93     1.458   .     S
C85    C95     1.456   .     S
C86    C717    1.469   1_554 S
C87    C716    1.469   .     S
C89    C100    1.401   .     A
C90    H108    1.113   .     S
C90    H107    1.114   .     S
C90    O140    1.409   .     S
C90    H109    1.109   .     S
C91    O130    1.413   .     S
C91    H111    1.110   .     S
C91    H112    1.115   .     S
C91    H110    1.109   .     S
C92    H113    1.109   .     S
C92    O131    1.413   .     S
C92    H116    1.115   .     S
C92    H115    1.110   .     S
C93    O139    1.293   .     A
C93    O136    1.293   .     A
C94    H117    1.114   .     S
C94    H118    1.113   .     S
C94    H119    1.109   .     S
C94    O132    1.409   .     S
C95    O137    1.292   .     A
C95    O138    1.292   .     A
C96    H103    1.082   .     S
C96    N128    1.367   .     A
C96    C519    1.416   1_545 S
C97    H114    1.082   .     S
C97    N127    1.367   .     A
C97    C308    1.416   .     S
C98    N128    1.367   .     A
C98    H120    1.082   .     S
C98    C517    1.416   1_545 S
C99    N127    1.367   .     A
C99    H121    1.082   .     S
C99    C306    1.416   .     S
C100   H126    1.083   .     S
Cu101  N127    2.011   .     S
Cu101  O136    1.953   .     S
Cu101  O138    1.953   .     S
Cu101  O129    1.965   .     S
Cu101  O134    1.965   .     S
Cu101  Cu102   2.676   .     S
Cu102  N128    2.011   .     S
Cu102  O137    1.953   .     S
Cu102  O139    1.953   .     S
Cu102  O133    1.965   .     S
Cu102  O135    1.965   .     S
C141   O205    1.290   .     A
C141   O199    1.291   .     A
C141   C159    1.450   .     S
C142   C158    1.401   .     A
C142   H174    1.083   .     S
C142   C4      1.383   1_655 S
C143   H175    1.083   .     S
C143   C158    1.401   .     A
C143   C30     1.383   1_655 S
C144   H176    1.083   .     S
C144   C159    1.401   .     A
C145   C149    1.395   .     A
C145   O210    1.382   .     S
C145   C156    1.409   .     A
C146   C150    1.403   .     A
C146   C157    1.409   .     A
C146   O200    1.391   .     S
C147   C151    1.403   .     A
C147   O201    1.391   .     S
C147   C157    1.409   .     A
C148   C153    1.395   .     A
C148   C156    1.409   .     A
C148   O202    1.382   .     S
C149   C154    1.400   .     A
C149   H192    1.084   .     S
C150   C155    1.397   .     A
C150   H193    1.082   .     S
C151   C155    1.397   .     A
C151   H194    1.082   .     S
C152   O204    1.291   .     A
C152   C158    1.450   .     S
C152   O203    1.291   .     A
C153   C154    1.400   .     A
C153   H195    1.084   .     S
C154   C163    1.458   .     S
C155   C165    1.456   .     S
C156   C787    1.469   1_554 S
C157   C786    1.469   .     S
C159   C170    1.401   .     A
C160   H178    1.113   .     S
C160   H177    1.114   .     S
C160   O210    1.409   .     S
C160   H179    1.109   .     S
C161   O200    1.413   .     S
C161   H181    1.110   .     S
C161   H182    1.115   .     S
C161   H180    1.109   .     S
C162   H183    1.109   .     S
C162   O201    1.413   .     S
C162   H186    1.115   .     S
C162   H185    1.110   .     S
C163   O209    1.293   .     A
C163   O206    1.293   .     A
C164   H187    1.114   .     S
C164   H188    1.113   .     S
C164   H189    1.109   .     S
C164   O202    1.409   .     S
C165   O207    1.292   .     A
C165   O208    1.292   .     A
C166   H173    1.082   .     S
C166   N198    1.367   .     A
C166   C589    1.416   1_545 S
C167   H184    1.082   .     S
C167   N197    1.367   .     A
C167   C378    1.416   .     S
C168   N198    1.367   .     A
C168   H190    1.082   .     S
C168   C587    1.416   1_545 S
C169   N197    1.367   .     A
C169   H191    1.082   .     S
C169   C376    1.416   .     S
C170   H196    1.083   .     S
Cu171  N197    2.011   .     S
Cu171  O206    1.953   .     S
Cu171  O208    1.953   .     S
Cu171  O199    1.965   .     S
Cu171  O204    1.965   .     S
Cu171  Cu172   2.676   .     S
Cu172  N198    2.011   .     S
Cu172  O207    1.953   .     S
Cu172  O209    1.953   .     S
Cu172  O203    1.965   .     S
Cu172  O205    1.965   .     S
C211   O275    1.290   .     A
C211   O269    1.291   .     A
C211   C229    1.450   .     S
C212   C228    1.401   .     A
C212   H244    1.083   .     S
C212   C284    1.383   .     S
C213   H245    1.083   .     S
C213   C228    1.401   .     A
C213   C310    1.383   .     S
C214   H246    1.083   .     S
C214   C229    1.401   .     A
C214   C352    1.383   1_455 S
C215   C219    1.395   .     A
C215   O280    1.382   .     S
C215   C226    1.409   .     A
C216   C220    1.403   .     A
C216   C227    1.409   .     A
C216   O270    1.391   .     S
C217   C221    1.403   .     A
C217   O271    1.391   .     S
C217   C227    1.409   .     A
C218   C223    1.395   .     A
C218   C226    1.409   .     A
C218   O272    1.382   .     S
C219   C224    1.400   .     A
C219   H262    1.084   .     S
C220   C225    1.397   .     A
C220   H263    1.082   .     S
C221   C225    1.397   .     A
C221   H264    1.082   .     S
C222   O274    1.291   .     A
C222   C228    1.450   .     S
C222   O273    1.291   .     A
C223   C224    1.400   .     A
C223   H265    1.084   .     S
C224   C233    1.458   .     S
C225   C235    1.456   .     S
C226   C857    1.469   1_554 S
C227   C856    1.469   .     S
C229   C240    1.401   .     A
C230   H248    1.113   .     S
C230   H247    1.114   .     S
C230   O280    1.409   .     S
C230   H249    1.109   .     S
C231   O270    1.413   .     S
C231   H251    1.110   .     S
C231   H252    1.115   .     S
C231   H250    1.109   .     S
C232   H253    1.109   .     S
C232   O271    1.413   .     S
C232   H256    1.115   .     S
C232   H255    1.110   .     S
C233   O279    1.293   .     A
C233   O276    1.293   .     A
C234   H257    1.114   .     S
C234   H258    1.113   .     S
C234   H259    1.109   .     S
C234   O272    1.409   .     S
C235   O277    1.292   .     A
C235   O278    1.292   .     A
C236   H243    1.082   .     S
C236   N268    1.367   .     A
C237   H254    1.082   .     S
C237   N267    1.367   .     A
C237   C448    1.416   .     S
C238   N268    1.367   .     A
C238   H260    1.082   .     S
C239   N267    1.367   .     A
C239   H261    1.082   .     S
C239   C446    1.416   .     S
C240   H266    1.083   .     S
C240   C353    1.383   1_455 S
Cu241  N267    2.011   .     S
Cu241  O276    1.953   .     S
Cu241  O278    1.953   .     S
Cu241  O269    1.965   .     S
Cu241  O274    1.965   .     S
Cu241  Cu242   2.676   .     S
Cu242  N268    2.011   .     S
Cu242  O277    1.953   .     S
Cu242  O279    1.953   .     S
Cu242  O273    1.965   .     S
Cu242  O275    1.965   .     S
C281   O345    1.290   .     A
C281   O339    1.291   .     A
C281   C299    1.450   .     S
C282   C298    1.401   .     A
C282   H314    1.083   .     S
C282   C354    1.383   .     S
C283   H315    1.083   .     S
C283   C298    1.401   .     A
C283   C380    1.383   .     S
C284   H316    1.083   .     S
C284   C299    1.401   .     A
C285   C289    1.395   .     A
C285   O350    1.382   .     S
C285   C296    1.409   .     A
C286   C290    1.403   .     A
C286   C297    1.409   .     A
C286   O340    1.391   .     S
C287   C291    1.403   .     A
C287   O341    1.391   .     S
C287   C297    1.409   .     A
C288   C293    1.395   .     A
C288   C296    1.409   .     A
C288   O342    1.382   .     S
C289   C294    1.400   .     A
C289   H332    1.084   .     S
C290   C295    1.397   .     A
C290   H333    1.082   .     S
C291   C295    1.397   .     A
C291   H334    1.082   .     S
C292   O344    1.291   .     A
C292   C298    1.450   .     S
C292   O343    1.291   .     A
C293   C294    1.400   .     A
C293   H335    1.084   .     S
C294   C303    1.458   .     S
C295   C305    1.456   .     S
C296   C927    1.469   1_554 S
C297   C926    1.469   .     S
C299   C310    1.401   .     A
C300   H318    1.113   .     S
C300   H317    1.114   .     S
C300   O350    1.409   .     S
C300   H319    1.109   .     S
C301   O340    1.413   .     S
C301   H321    1.110   .     S
C301   H322    1.115   .     S
C301   H320    1.109   .     S
C302   H323    1.109   .     S
C302   O341    1.413   .     S
C302   H326    1.115   .     S
C302   H325    1.110   .     S
C303   O349    1.293   .     A
C303   O346    1.293   .     A
C304   H327    1.114   .     S
C304   H328    1.113   .     S
C304   H329    1.109   .     S
C304   O342    1.409   .     S
C305   O347    1.292   .     A
C305   O348    1.292   .     A
C306   H313    1.082   .     S
C306   N338    1.367   .     A
C307   H324    1.082   .     S
C307   N337    1.367   .     A
C307   C518    1.416   .     S
C308   N338    1.367   .     A
C308   H330    1.082   .     S
C309   N337    1.367   .     A
C309   H331    1.082   .     S
C309   C516    1.416   .     S
C310   H336    1.083   .     S
Cu311  N337    2.011   .     S
Cu311  O346    1.953   .     S
Cu311  O348    1.953   .     S
Cu311  O339    1.965   .     S
Cu311  O344    1.965   .     S
Cu311  Cu312   2.676   .     S
Cu312  N338    2.011   .     S
Cu312  O347    1.953   .     S
Cu312  O349    1.953   .     S
Cu312  O343    1.965   .     S
Cu312  O345    1.965   .     S
C351   O415    1.290   .     A
C351   O409    1.291   .     A
C351   C369    1.450   .     S
C352   C368    1.401   .     A
C352   H384    1.083   .     S
C352   C214    1.383   1_655 S
C353   H385    1.083   .     S
C353   C368    1.401   .     A
C353   C240    1.383   1_655 S
C354   H386    1.083   .     S
C354   C369    1.401   .     A
C355   C359    1.395   .     A
C355   O420    1.382   .     S
C355   C366    1.409   .     A
C356   C360    1.403   .     A
C356   C367    1.409   .     A
C356   O410    1.391   .     S
C357   C361    1.403   .     A
C357   O411    1.391   .     S
C357   C367    1.409   .     A
C358   C363    1.395   .     A
C358   C366    1.409   .     A
C358   O412    1.382   .     S
C359   C364    1.400   .     A
C359   H402    1.084   .     S
C360   C365    1.397   .     A
C360   H403    1.082   .     S
C361   C365    1.397   .     A
C361   H404    1.082   .     S
C362   O414    1.291   .     A
C362   C368    1.450   .     S
C362   O413    1.291   .     A
C363   C364    1.400   .     A
C363   H405    1.084   .     S
C364   C373    1.458   .     S
C365   C375    1.456   .     S
C366   C997    1.469   1_554 S
C367   C996    1.469   .     S
C369   C380    1.401   .     A
C370   H388    1.113   .     S
C370   H387    1.114   .     S
C370   O420    1.409   .     S
C370   H389    1.109   .     S
C371   O410    1.413   .     S
C371   H391    1.110   .     S
C371   H392    1.115   .     S
C371   H390    1.109   .     S
C372   H393    1.109   .     S
C372   O411    1.413   .     S
C372   H396    1.115   .     S
C372   H395    1.110   .     S
C373   O419    1.293   .     A
C373   O416    1.293   .     A
C374   H397    1.114   .     S
C374   H398    1.113   .     S
C374   H399    1.109   .     S
C374   O412    1.409   .     S
C375   O417    1.292   .     A
C375   O418    1.292   .     A
C376   H383    1.082   .     S
C376   N408    1.367   .     A
C377   H394    1.082   .     S
C377   N407    1.367   .     A
C377   C588    1.416   .     S
C378   N408    1.367   .     A
C378   H400    1.082   .     S
C379   N407    1.367   .     A
C379   H401    1.082   .     S
C379   C586    1.416   .     S
C380   H406    1.083   .     S
Cu381  N407    2.011   .     S
Cu381  O416    1.953   .     S
Cu381  O418    1.953   .     S
Cu381  O409    1.965   .     S
Cu381  O414    1.965   .     S
Cu381  Cu382   2.676   .     S
Cu382  N408    2.011   .     S
Cu382  O417    1.953   .     S
Cu382  O419    1.953   .     S
Cu382  O413    1.965   .     S
Cu382  O415    1.965   .     S
C421   O485    1.290   .     A
C421   O479    1.291   .     A
C421   C439    1.450   .     S
C422   C438    1.401   .     A
C422   H454    1.083   .     S
C422   C494    1.383   .     S
C423   H455    1.083   .     S
C423   C438    1.401   .     A
C423   C520    1.383   .     S
C424   H456    1.083   .     S
C424   C439    1.401   .     A
C424   C562    1.383   1_455 S
C425   C429    1.395   .     A
C425   O490    1.382   .     S
C425   C436    1.409   .     A
C426   C430    1.403   .     A
C426   C437    1.409   .     A
C426   O480    1.391   .     S
C427   C431    1.403   .     A
C427   O481    1.391   .     S
C427   C437    1.409   .     A
C428   C433    1.395   .     A
C428   C436    1.409   .     A
C428   O482    1.382   .     S
C429   C434    1.400   .     A
C429   H472    1.084   .     S
C430   C435    1.397   .     A
C430   H473    1.082   .     S
C431   C435    1.397   .     A
C431   H474    1.082   .     S
C432   O484    1.291   .     A
C432   C438    1.450   .     S
C432   O483    1.291   .     A
C433   C434    1.400   .     A
C433   H475    1.084   .     S
C434   C443    1.458   .     S
C435   C445    1.456   .     S
C436   C1067   1.469   1_554 S
C437   C1066   1.469   .     S
C439   C450    1.401   .     A
C440   H458    1.113   .     S
C440   H457    1.114   .     S
C440   O490    1.409   .     S
C440   H459    1.109   .     S
C441   O480    1.413   .     S
C441   H461    1.110   .     S
C441   H462    1.115   .     S
C441   H460    1.109   .     S
C442   H463    1.109   .     S
C442   O481    1.413   .     S
C442   H466    1.115   .     S
C442   H465    1.110   .     S
C443   O489    1.293   .     A
C443   O486    1.293   .     A
C444   H467    1.114   .     S
C444   H468    1.113   .     S
C444   H469    1.109   .     S
C444   O482    1.409   .     S
C445   O487    1.292   .     A
C445   O488    1.292   .     A
C446   H453    1.082   .     S
C446   N478    1.367   .     A
C447   H464    1.082   .     S
C447   N477    1.367   .     A
C447   C28     1.416   1_565 S
C448   N478    1.367   .     A
C448   H470    1.082   .     S
C449   N477    1.367   .     A
C449   H471    1.082   .     S
C449   C26     1.416   1_565 S
C450   H476    1.083   .     S
C450   C563    1.383   1_455 S
Cu451  N477    2.011   .     S
Cu451  O486    1.953   .     S
Cu451  O488    1.953   .     S
Cu451  O479    1.965   .     S
Cu451  O484    1.965   .     S
Cu451  Cu452   2.676   .     S
Cu452  N478    2.011   .     S
Cu452  O487    1.953   .     S
Cu452  O489    1.953   .     S
Cu452  O483    1.965   .     S
Cu452  O485    1.965   .     S
C491   O555    1.290   .     A
C491   O549    1.291   .     A
C491   C509    1.450   .     S
C492   C508    1.401   .     A
C492   H524    1.083   .     S
C492   C564    1.383   .     S
C493   H525    1.083   .     S
C493   C508    1.401   .     A
C493   C590    1.383   .     S
C494   H526    1.083   .     S
C494   C509    1.401   .     A
C495   C499    1.395   .     A
C495   O560    1.382   .     S
C495   C506    1.409   .     A
C496   C500    1.403   .     A
C496   C507    1.409   .     A
C496   O550    1.391   .     S
C497   C501    1.403   .     A
C497   O551    1.391   .     S
C497   C507    1.409   .     A
C498   C503    1.395   .     A
C498   C506    1.409   .     A
C498   O552    1.382   .     S
C499   C504    1.400   .     A
C499   H542    1.084   .     S
C500   C505    1.397   .     A
C500   H543    1.082   .     S
C501   C505    1.397   .     A
C501   H544    1.082   .     S
C502   O554    1.291   .     A
C502   C508    1.450   .     S
C502   O553    1.291   .     A
C503   C504    1.400   .     A
C503   H545    1.084   .     S
C504   C513    1.458   .     S
C505   C515    1.456   .     S
C506   C1137   1.469   1_554 S
C507   C1136   1.469   .     S
C509   C520    1.401   .     A
C510   H528    1.113   .     S
C510   H527    1.114   .     S
C510   O560    1.409   .     S
C510   H529    1.109   .     S
C511   O550    1.413   .     S
C511   H531    1.110   .     S
C511   H532    1.115   .     S
C511   H530    1.109   .     S
C512   H533    1.109   .     S
C512   O551    1.413   .     S
C512   H536    1.115   .     S
C512   H535    1.110   .     S
C513   O559    1.293   .     A
C513   O556    1.293   .     A
C514   H537    1.114   .     S
C514   H538    1.113   .     S
C514   H539    1.109   .     S
C514   O552    1.409   .     S
C515   O557    1.292   .     A
C515   O558    1.292   .     A
C516   H523    1.082   .     S
C516   N548    1.367   .     A
C517   H534    1.082   .     S
C517   N547    1.367   .     A
C517   C98     1.416   1_565 S
C518   N548    1.367   .     A
C518   H540    1.082   .     S
C519   N547    1.367   .     A
C519   H541    1.082   .     S
C519   C96     1.416   1_565 S
C520   H546    1.083   .     S
Cu521  N547    2.011   .     S
Cu521  O556    1.953   .     S
Cu521  O558    1.953   .     S
Cu521  O549    1.965   .     S
Cu521  O554    1.965   .     S
Cu521  Cu522   2.676   .     S
Cu522  N548    2.011   .     S
Cu522  O557    1.953   .     S
Cu522  O559    1.953   .     S
Cu522  O553    1.965   .     S
Cu522  O555    1.965   .     S
C561   O625    1.290   .     A
C561   O619    1.291   .     A
C561   C579    1.450   .     S
C562   C578    1.401   .     A
C562   H594    1.083   .     S
C562   C424    1.383   1_655 S
C563   H595    1.083   .     S
C563   C578    1.401   .     A
C563   C450    1.383   1_655 S
C564   H596    1.083   .     S
C564   C579    1.401   .     A
C565   C569    1.395   .     A
C565   O630    1.382   .     S
C565   C576    1.409   .     A
C566   C570    1.403   .     A
C566   C577    1.409   .     A
C566   O620    1.391   .     S
C567   C571    1.403   .     A
C567   O621    1.391   .     S
C567   C577    1.409   .     A
C568   C573    1.395   .     A
C568   C576    1.409   .     A
C568   O622    1.382   .     S
C569   C574    1.400   .     A
C569   H612    1.084   .     S
C570   C575    1.397   .     A
C570   H613    1.082   .     S
C571   C575    1.397   .     A
C571   H614    1.082   .     S
C572   O624    1.291   .     A
C572   C578    1.450   .     S
C572   O623    1.291   .     A
C573   C574    1.400   .     A
C573   H615    1.084   .     S
C574   C583    1.458   .     S
C575   C585    1.456   .     S
C576   C1207   1.469   1_554 S
C577   C1206   1.469   .     S
C579   C590    1.401   .     A
C580   H598    1.113   .     S
C580   H597    1.114   .     S
C580   O630    1.409   .     S
C580   H599    1.109   .     S
C581   O620    1.413   .     S
C581   H601    1.110   .     S
C581   H602    1.115   .     S
C581   H600    1.109   .     S
C582   H603    1.109   .     S
C582   O621    1.413   .     S
C582   H606    1.115   .     S
C582   H605    1.110   .     S
C583   O629    1.293   .     A
C583   O626    1.293   .     A
C584   H607    1.114   .     S
C584   H608    1.113   .     S
C584   H609    1.109   .     S
C584   O622    1.409   .     S
C585   O627    1.292   .     A
C585   O628    1.292   .     A
C586   H593    1.082   .     S
C586   N618    1.367   .     A
C587   H604    1.082   .     S
C587   N617    1.367   .     A
C587   C168    1.416   1_565 S
C588   N618    1.367   .     A
C588   H610    1.082   .     S
C589   N617    1.367   .     A
C589   H611    1.082   .     S
C589   C166    1.416   1_565 S
C590   H616    1.083   .     S
Cu591  N617    2.011   .     S
Cu591  O626    1.953   .     S
Cu591  O628    1.953   .     S
Cu591  O619    1.965   .     S
Cu591  O624    1.965   .     S
Cu591  Cu592   2.676   .     S
Cu592  N618    2.011   .     S
Cu592  O627    1.953   .     S
Cu592  O629    1.953   .     S
Cu592  O623    1.965   .     S
Cu592  O625    1.965   .     S
C631   O695    1.290   .     A
C631   O689    1.291   .     A
C631   C649    1.450   .     S
C632   C648    1.401   .     A
C632   H664    1.083   .     S
C632   C704    1.383   .     S
C633   H665    1.083   .     S
C633   C648    1.401   .     A
C633   C730    1.383   .     S
C634   H666    1.083   .     S
C634   C649    1.401   .     A
C634   C772    1.383   1_455 S
C635   C639    1.395   .     A
C635   O700    1.382   .     S
C635   C646    1.409   .     A
C636   C640    1.403   .     A
C636   C647    1.409   .     A
C636   O690    1.391   .     S
C637   C641    1.403   .     A
C637   O691    1.391   .     S
C637   C647    1.409   .     A
C638   C643    1.395   .     A
C638   C646    1.409   .     A
C638   O692    1.382   .     S
C639   C644    1.400   .     A
C639   H682    1.084   .     S
C640   C645    1.397   .     A
C640   H683    1.082   .     S
C641   C645    1.397   .     A
C641   H684    1.082   .     S
C642   O694    1.291   .     A
C642   C648    1.450   .     S
C642   O693    1.291   .     A
C643   C644    1.400   .     A
C643   H685    1.084   .     S
C644   C653    1.458   .     S
C645   C655    1.456   .     S
C647   C16     1.469   1_556 S
C649   C660    1.401   .     A
C650   H668    1.113   .     S
C650   H667    1.114   .     S
C650   O700    1.409   .     S
C650   H669    1.109   .     S
C651   O690    1.413   .     S
C651   H671    1.110   .     S
C651   H672    1.115   .     S
C651   H670    1.109   .     S
C652   H673    1.109   .     S
C652   O691    1.413   .     S
C652   H676    1.115   .     S
C652   H675    1.110   .     S
C653   O699    1.293   .     A
C653   O696    1.293   .     A
C654   H677    1.114   .     S
C654   H678    1.113   .     S
C654   H679    1.109   .     S
C654   O692    1.409   .     S
C655   O697    1.292   .     A
C655   O698    1.292   .     A
C656   H663    1.082   .     S
C656   N688    1.367   .     A
C656   C1079   1.416   1_545 S
C657   H674    1.082   .     S
C657   N687    1.367   .     A
C657   C868    1.416   .     S
C658   N688    1.367   .     A
C658   H680    1.082   .     S
C658   C1077   1.416   1_545 S
C659   N687    1.367   .     A
C659   H681    1.082   .     S
C659   C866    1.416   .     S
C660   H686    1.083   .     S
C660   C773    1.383   1_455 S
Cu661  N687    2.011   .     S
Cu661  O696    1.953   .     S
Cu661  O698    1.953   .     S
Cu661  O689    1.965   .     S
Cu661  O694    1.965   .     S
Cu661  Cu662   2.676   .     S
Cu662  N688    2.011   .     S
Cu662  O697    1.953   .     S
Cu662  O699    1.953   .     S
Cu662  O693    1.965   .     S
Cu662  O695    1.965   .     S
C701   O765    1.290   .     A
C701   O759    1.291   .     A
C701   C719    1.450   .     S
C702   C718    1.401   .     A
C702   H734    1.083   .     S
C702   C774    1.383   .     S
C703   H735    1.083   .     S
C703   C718    1.401   .     A
C703   C800    1.383   .     S
C704   H736    1.083   .     S
C704   C719    1.401   .     A
C705   C709    1.395   .     A
C705   O770    1.382   .     S
C705   C716    1.409   .     A
C706   C710    1.403   .     A
C706   C717    1.409   .     A
C706   O760    1.391   .     S
C707   C711    1.403   .     A
C707   O761    1.391   .     S
C707   C717    1.409   .     A
C708   C713    1.395   .     A
C708   C716    1.409   .     A
C708   O762    1.382   .     S
C709   C714    1.400   .     A
C709   H752    1.084   .     S
C710   C715    1.397   .     A
C710   H753    1.082   .     S
C711   C715    1.397   .     A
C711   H754    1.082   .     S
C712   O764    1.291   .     A
C712   C718    1.450   .     S
C712   O763    1.291   .     A
C713   C714    1.400   .     A
C713   H755    1.084   .     S
C714   C723    1.458   .     S
C715   C725    1.456   .     S
C717   C86     1.469   1_556 S
C719   C730    1.401   .     A
C720   H738    1.113   .     S
C720   H737    1.114   .     S
C720   O770    1.409   .     S
C720   H739    1.109   .     S
C721   O760    1.413   .     S
C721   H741    1.110   .     S
C721   H742    1.115   .     S
C721   H740    1.109   .     S
C722   H743    1.109   .     S
C722   O761    1.413   .     S
C722   H746    1.115   .     S
C722   H745    1.110   .     S
C723   O769    1.293   .     A
C723   O766    1.293   .     A
C724   H747    1.114   .     S
C724   H748    1.113   .     S
C724   H749    1.109   .     S
C724   O762    1.409   .     S
C725   O767    1.292   .     A
C725   O768    1.292   .     A
C726   H733    1.082   .     S
C726   N758    1.367   .     A
C726   C1149   1.416   1_545 S
C727   H744    1.082   .     S
C727   N757    1.367   .     A
C727   C938    1.416   .     S
C728   N758    1.367   .     A
C728   H750    1.082   .     S
C728   C1147   1.416   1_545 S
C729   N757    1.367   .     A
C729   H751    1.082   .     S
C729   C936    1.416   .     S
C730   H756    1.083   .     S
Cu731  N757    2.011   .     S
Cu731  O766    1.953   .     S
Cu731  O768    1.953   .     S
Cu731  O759    1.965   .     S
Cu731  O764    1.965   .     S
Cu731  Cu732   2.676   .     S
Cu732  N758    2.011   .     S
Cu732  O767    1.953   .     S
Cu732  O769    1.953   .     S
Cu732  O763    1.965   .     S
Cu732  O765    1.965   .     S
C771   O835    1.290   .     A
C771   O829    1.291   .     A
C771   C789    1.450   .     S
C772   C788    1.401   .     A
C772   H804    1.083   .     S
C772   C634    1.383   1_655 S
C773   H805    1.083   .     S
C773   C788    1.401   .     A
C773   C660    1.383   1_655 S
C774   H806    1.083   .     S
C774   C789    1.401   .     A
C775   C779    1.395   .     A
C775   O840    1.382   .     S
C775   C786    1.409   .     A
C776   C780    1.403   .     A
C776   C787    1.409   .     A
C776   O830    1.391   .     S
C777   C781    1.403   .     A
C777   O831    1.391   .     S
C777   C787    1.409   .     A
C778   C783    1.395   .     A
C778   C786    1.409   .     A
C778   O832    1.382   .     S
C779   C784    1.400   .     A
C779   H822    1.084   .     S
C780   C785    1.397   .     A
C780   H823    1.082   .     S
C781   C785    1.397   .     A
C781   H824    1.082   .     S
C782   O834    1.291   .     A
C782   C788    1.450   .     S
C782   O833    1.291   .     A
C783   C784    1.400   .     A
C783   H825    1.084   .     S
C784   C793    1.458   .     S
C785   C795    1.456   .     S
C787   C156    1.469   1_556 S
C789   C800    1.401   .     A
C790   H808    1.113   .     S
C790   H807    1.114   .     S
C790   O840    1.409   .     S
C790   H809    1.109   .     S
C791   O830    1.413   .     S
C791   H811    1.110   .     S
C791   H812    1.115   .     S
C791   H810    1.109   .     S
C792   H813    1.109   .     S
C792   O831    1.413   .     S
C792   H816    1.115   .     S
C792   H815    1.110   .     S
C793   O839    1.293   .     A
C793   O836    1.293   .     A
C794   H817    1.114   .     S
C794   H818    1.113   .     S
C794   H819    1.109   .     S
C794   O832    1.409   .     S
C795   O837    1.292   .     A
C795   O838    1.292   .     A
C796   H803    1.082   .     S
C796   N828    1.367   .     A
C796   C1219   1.416   1_545 S
C797   H814    1.082   .     S
C797   N827    1.367   .     A
C797   C1008   1.416   .     S
C798   N828    1.367   .     A
C798   H820    1.082   .     S
C798   C1217   1.416   1_545 S
C799   N827    1.367   .     A
C799   H821    1.082   .     S
C799   C1006   1.416   .     S
C800   H826    1.083   .     S
Cu801  N827    2.011   .     S
Cu801  O836    1.953   .     S
Cu801  O838    1.953   .     S
Cu801  O829    1.965   .     S
Cu801  O834    1.965   .     S
Cu801  Cu802   2.676   .     S
Cu802  N828    2.011   .     S
Cu802  O837    1.953   .     S
Cu802  O839    1.953   .     S
Cu802  O833    1.965   .     S
Cu802  O835    1.965   .     S
C841   O905    1.290   .     A
C841   O899    1.291   .     A
C841   C859    1.450   .     S
C842   C858    1.401   .     A
C842   H874    1.083   .     S
C842   C914    1.383   .     S
C843   H875    1.083   .     S
C843   C858    1.401   .     A
C843   C940    1.383   .     S
C844   H876    1.083   .     S
C844   C859    1.401   .     A
C844   C982    1.383   1_455 S
C845   C849    1.395   .     A
C845   O910    1.382   .     S
C845   C856    1.409   .     A
C846   C850    1.403   .     A
C846   C857    1.409   .     A
C846   O900    1.391   .     S
C847   C851    1.403   .     A
C847   O901    1.391   .     S
C847   C857    1.409   .     A
C848   C853    1.395   .     A
C848   C856    1.409   .     A
C848   O902    1.382   .     S
C849   C854    1.400   .     A
C849   H892    1.084   .     S
C850   C855    1.397   .     A
C850   H893    1.082   .     S
C851   C855    1.397   .     A
C851   H894    1.082   .     S
C852   O904    1.291   .     A
C852   C858    1.450   .     S
C852   O903    1.291   .     A
C853   C854    1.400   .     A
C853   H895    1.084   .     S
C854   C863    1.458   .     S
C855   C865    1.456   .     S
C857   C226    1.469   1_556 S
C859   C870    1.401   .     A
C860   H878    1.113   .     S
C860   H877    1.114   .     S
C860   O910    1.409   .     S
C860   H879    1.109   .     S
C861   O900    1.413   .     S
C861   H881    1.110   .     S
C861   H882    1.115   .     S
C861   H880    1.109   .     S
C862   H883    1.109   .     S
C862   O901    1.413   .     S
C862   H886    1.115   .     S
C862   H885    1.110   .     S
C863   O909    1.293   .     A
C863   O906    1.293   .     A
C864   H887    1.114   .     S
C864   H888    1.113   .     S
C864   H889    1.109   .     S
C864   O902    1.409   .     S
C865   O907    1.292   .     A
C865   O908    1.292   .     A
C866   H873    1.082   .     S
C866   N898    1.367   .     A
C867   H884    1.082   .     S
C867   N897    1.367   .     A
C867   C1078   1.416   .     S
C868   N898    1.367   .     A
C868   H890    1.082   .     S
C869   N897    1.367   .     A
C869   H891    1.082   .     S
C869   C1076   1.416   .     S
C870   H896    1.083   .     S
C870   C983    1.383   1_455 S
Cu871  N897    2.011   .     S
Cu871  O906    1.953   .     S
Cu871  O908    1.953   .     S
Cu871  O899    1.965   .     S
Cu871  O904    1.965   .     S
Cu871  Cu872   2.676   .     S
Cu872  N898    2.011   .     S
Cu872  O907    1.953   .     S
Cu872  O909    1.953   .     S
Cu872  O903    1.965   .     S
Cu872  O905    1.965   .     S
C911   O975    1.290   .     A
C911   O969    1.291   .     A
C911   C929    1.450   .     S
C912   C928    1.401   .     A
C912   H944    1.083   .     S
C912   C984    1.383   .     S
C913   H945    1.083   .     S
C913   C928    1.401   .     A
C913   C1010   1.383   .     S
C914   H946    1.083   .     S
C914   C929    1.401   .     A
C915   C919    1.395   .     A
C915   O980    1.382   .     S
C915   C926    1.409   .     A
C916   C920    1.403   .     A
C916   C927    1.409   .     A
C916   O970    1.391   .     S
C917   C921    1.403   .     A
C917   O971    1.391   .     S
C917   C927    1.409   .     A
C918   C923    1.395   .     A
C918   C926    1.409   .     A
C918   O972    1.382   .     S
C919   C924    1.400   .     A
C919   H962    1.084   .     S
C920   C925    1.397   .     A
C920   H963    1.082   .     S
C921   C925    1.397   .     A
C921   H964    1.082   .     S
C922   O974    1.291   .     A
C922   C928    1.450   .     S
C922   O973    1.291   .     A
C923   C924    1.400   .     A
C923   H965    1.084   .     S
C924   C933    1.458   .     S
C925   C935    1.456   .     S
C927   C296    1.469   1_556 S
C929   C940    1.401   .     A
C930   H948    1.113   .     S
C930   H947    1.114   .     S
C930   O980    1.409   .     S
C930   H949    1.109   .     S
C931   O970    1.413   .     S
C931   H951    1.110   .     S
C931   H952    1.115   .     S
C931   H950    1.109   .     S
C932   H953    1.109   .     S
C932   O971    1.413   .     S
C932   H956    1.115   .     S
C932   H955    1.110   .     S
C933   O979    1.293   .     A
C933   O976    1.293   .     A
C934   H957    1.114   .     S
C934   H958    1.113   .     S
C934   H959    1.109   .     S
C934   O972    1.409   .     S
C935   O977    1.292   .     A
C935   O978    1.292   .     A
C936   H943    1.082   .     S
C936   N968    1.367   .     A
C937   H954    1.082   .     S
C937   N967    1.367   .     A
C937   C1148   1.416   .     S
C938   N968    1.367   .     A
C938   H960    1.082   .     S
C939   N967    1.367   .     A
C939   H961    1.082   .     S
C939   C1146   1.416   .     S
C940   H966    1.083   .     S
Cu941  N967    2.011   .     S
Cu941  O976    1.953   .     S
Cu941  O978    1.953   .     S
Cu941  O969    1.965   .     S
Cu941  O974    1.965   .     S
Cu941  Cu942   2.676   .     S
Cu942  N968    2.011   .     S
Cu942  O977    1.953   .     S
Cu942  O979    1.953   .     S
Cu942  O973    1.965   .     S
Cu942  O975    1.965   .     S
C981   O1045   1.290   .     A
C981   O1039   1.291   .     A
C981   C999    1.450   .     S
C982   C998    1.401   .     A
C982   H1014   1.083   .     S
C982   C844    1.383   1_655 S
C983   H1015   1.083   .     S
C983   C998    1.401   .     A
C983   C870    1.383   1_655 S
C984   H1016   1.083   .     S
C984   C999    1.401   .     A
C985   C989    1.395   .     A
C985   O1050   1.382   .     S
C985   C996    1.409   .     A
C986   C990    1.403   .     A
C986   C997    1.409   .     A
C986   O1040   1.391   .     S
C987   C991    1.403   .     A
C987   O1041   1.391   .     S
C987   C997    1.409   .     A
C988   C993    1.395   .     A
C988   C996    1.409   .     A
C988   O1042   1.382   .     S
C989   C994    1.400   .     A
C989   H1032   1.084   .     S
C990   C995    1.397   .     A
C990   H1033   1.082   .     S
C991   C995    1.397   .     A
C991   H1034   1.082   .     S
C992   O1044   1.291   .     A
C992   C998    1.450   .     S
C992   O1043   1.291   .     A
C993   C994    1.400   .     A
C993   H1035   1.084   .     S
C994   C1003   1.458   .     S
C995   C1005   1.456   .     S
C997   C366    1.469   1_556 S
C999   C1010   1.401   .     A
C1000  H1018   1.113   .     S
C1000  H1017   1.114   .     S
C1000  O1050   1.409   .     S
C1000  H1019   1.109   .     S
C1001  O1040   1.413   .     S
C1001  H1021   1.110   .     S
C1001  H1022   1.115   .     S
C1001  H1020   1.109   .     S
C1002  H1023   1.109   .     S
C1002  O1041   1.413   .     S
C1002  H1026   1.115   .     S
C1002  H1025   1.110   .     S
C1003  O1049   1.293   .     A
C1003  O1046   1.293   .     A
C1004  H1027   1.114   .     S
C1004  H1028   1.113   .     S
C1004  H1029   1.109   .     S
C1004  O1042   1.409   .     S
C1005  O1047   1.292   .     A
C1005  O1048   1.292   .     A
C1006  H1013   1.082   .     S
C1006  N1038   1.367   .     A
C1007  H1024   1.082   .     S
C1007  N1037   1.367   .     A
C1007  C1218   1.416   .     S
C1008  N1038   1.367   .     A
C1008  H1030   1.082   .     S
C1009  N1037   1.367   .     A
C1009  H1031   1.082   .     S
C1009  C1216   1.416   .     S
C1010  H1036   1.083   .     S
Cu1011 N1037   2.011   .     S
Cu1011 O1046   1.953   .     S
Cu1011 O1048   1.953   .     S
Cu1011 O1039   1.965   .     S
Cu1011 O1044   1.965   .     S
Cu1011 Cu1012  2.676   .     S
Cu1012 N1038   2.011   .     S
Cu1012 O1047   1.953   .     S
Cu1012 O1049   1.953   .     S
Cu1012 O1043   1.965   .     S
Cu1012 O1045   1.965   .     S
C1051  O1115   1.290   .     A
C1051  O1109   1.291   .     A
C1051  C1069   1.450   .     S
C1052  C1068   1.401   .     A
C1052  H1084   1.083   .     S
C1052  C1124   1.383   .     S
C1053  H1085   1.083   .     S
C1053  C1068   1.401   .     A
C1053  C1150   1.383   .     S
C1054  H1086   1.083   .     S
C1054  C1069   1.401   .     A
C1054  C1192   1.383   1_455 S
C1055  C1059   1.395   .     A
C1055  O1120   1.382   .     S
C1055  C1066   1.409   .     A
C1056  C1060   1.403   .     A
C1056  C1067   1.409   .     A
C1056  O1110   1.391   .     S
C1057  C1061   1.403   .     A
C1057  O1111   1.391   .     S
C1057  C1067   1.409   .     A
C1058  C1063   1.395   .     A
C1058  C1066   1.409   .     A
C1058  O1112   1.382   .     S
C1059  C1064   1.400   .     A
C1059  H1102   1.084   .     S
C1060  C1065   1.397   .     A
C1060  H1103   1.082   .     S
C1061  C1065   1.397   .     A
C1061  H1104   1.082   .     S
C1062  O1114   1.291   .     A
C1062  C1068   1.450   .     S
C1062  O1113   1.291   .     A
C1063  C1064   1.400   .     A
C1063  H1105   1.084   .     S
C1064  C1073   1.458   .     S
C1065  C1075   1.456   .     S
C1067  C436    1.469   1_556 S
C1069  C1080   1.401   .     A
C1070  H1088   1.113   .     S
C1070  H1087   1.114   .     S
C1070  O1120   1.409   .     S
C1070  H1089   1.109   .     S
C1071  O1110   1.413   .     S
C1071  H1091   1.110   .     S
C1071  H1092   1.115   .     S
C1071  H1090   1.109   .     S
C1072  H1093   1.109   .     S
C1072  O1111   1.413   .     S
C1072  H1096   1.115   .     S
C1072  H1095   1.110   .     S
C1073  O1119   1.293   .     A
C1073  O1116   1.293   .     A
C1074  H1097   1.114   .     S
C1074  H1098   1.113   .     S
C1074  H1099   1.109   .     S
C1074  O1112   1.409   .     S
C1075  O1117   1.292   .     A
C1075  O1118   1.292   .     A
C1076  H1083   1.082   .     S
C1076  N1108   1.367   .     A
C1077  H1094   1.082   .     S
C1077  N1107   1.367   .     A
C1077  C658    1.416   1_565 S
C1078  N1108   1.367   .     A
C1078  H1100   1.082   .     S
C1079  N1107   1.367   .     A
C1079  H1101   1.082   .     S
C1079  C656    1.416   1_565 S
C1080  H1106   1.083   .     S
C1080  C1193   1.383   1_455 S
Cu1081 N1107   2.011   .     S
Cu1081 O1116   1.953   .     S
Cu1081 O1118   1.953   .     S
Cu1081 O1109   1.965   .     S
Cu1081 O1114   1.965   .     S
Cu1081 Cu1082  2.676   .     S
Cu1082 N1108   2.011   .     S
Cu1082 O1117   1.953   .     S
Cu1082 O1119   1.953   .     S
Cu1082 O1113   1.965   .     S
Cu1082 O1115   1.965   .     S
C1121  O1185   1.290   .     A
C1121  O1179   1.291   .     A
C1121  C1139   1.450   .     S
C1122  C1138   1.401   .     A
C1122  H1154   1.083   .     S
C1122  C1194   1.383   .     S
C1123  H1155   1.083   .     S
C1123  C1138   1.401   .     A
C1123  C1220   1.383   .     S
C1124  H1156   1.083   .     S
C1124  C1139   1.401   .     A
C1125  C1129   1.395   .     A
C1125  O1190   1.382   .     S
C1125  C1136   1.409   .     A
C1126  C1130   1.403   .     A
C1126  C1137   1.409   .     A
C1126  O1180   1.391   .     S
C1127  C1131   1.403   .     A
C1127  O1181   1.391   .     S
C1127  C1137   1.409   .     A
C1128  C1133   1.395   .     A
C1128  C1136   1.409   .     A
C1128  O1182   1.382   .     S
C1129  C1134   1.400   .     A
C1129  H1172   1.084   .     S
C1130  C1135   1.397   .     A
C1130  H1173   1.082   .     S
C1131  C1135   1.397   .     A
C1131  H1174   1.082   .     S
C1132  O1184   1.291   .     A
C1132  C1138   1.450   .     S
C1132  O1183   1.291   .     A
C1133  C1134   1.400   .     A
C1133  H1175   1.084   .     S
C1134  C1143   1.458   .     S
C1135  C1145   1.456   .     S
C1137  C506    1.469   1_556 S
C1139  C1150   1.401   .     A
C1140  H1158   1.113   .     S
C1140  H1157   1.114   .     S
C1140  O1190   1.409   .     S
C1140  H1159   1.109   .     S
C1141  O1180   1.413   .     S
C1141  H1161   1.110   .     S
C1141  H1162   1.115   .     S
C1141  H1160   1.109   .     S
C1142  H1163   1.109   .     S
C1142  O1181   1.413   .     S
C1142  H1166   1.115   .     S
C1142  H1165   1.110   .     S
C1143  O1189   1.293   .     A
C1143  O1186   1.293   .     A
C1144  H1167   1.114   .     S
C1144  H1168   1.113   .     S
C1144  H1169   1.109   .     S
C1144  O1182   1.409   .     S
C1145  O1187   1.292   .     A
C1145  O1188   1.292   .     A
C1146  H1153   1.082   .     S
C1146  N1178   1.367   .     A
C1147  H1164   1.082   .     S
C1147  N1177   1.367   .     A
C1147  C728    1.416   1_565 S
C1148  N1178   1.367   .     A
C1148  H1170   1.082   .     S
C1149  N1177   1.367   .     A
C1149  H1171   1.082   .     S
C1149  C726    1.416   1_565 S
C1150  H1176   1.083   .     S
Cu1151 N1177   2.011   .     S
Cu1151 O1186   1.953   .     S
Cu1151 O1188   1.953   .     S
Cu1151 O1179   1.965   .     S
Cu1151 O1184   1.965   .     S
Cu1151 Cu1152  2.676   .     S
Cu1152 N1178   2.011   .     S
Cu1152 O1187   1.953   .     S
Cu1152 O1189   1.953   .     S
Cu1152 O1183   1.965   .     S
Cu1152 O1185   1.965   .     S
C1191  O1255   1.290   .     A
C1191  O1249   1.291   .     A
C1191  C1209   1.450   .     S
C1192  C1208   1.401   .     A
C1192  H1224   1.083   .     S
C1192  C1054   1.383   1_655 S
C1193  H1225   1.083   .     S
C1193  C1208   1.401   .     A
C1193  C1080   1.383   1_655 S
C1194  H1226   1.083   .     S
C1194  C1209   1.401   .     A
C1195  C1199   1.395   .     A
C1195  O1260   1.382   .     S
C1195  C1206   1.409   .     A
C1196  C1200   1.403   .     A
C1196  C1207   1.409   .     A
C1196  O1250   1.391   .     S
C1197  C1201   1.403   .     A
C1197  O1251   1.391   .     S
C1197  C1207   1.409   .     A
C1198  C1203   1.395   .     A
C1198  C1206   1.409   .     A
C1198  O1252   1.382   .     S
C1199  C1204   1.400   .     A
C1199  H1242   1.084   .     S
C1200  C1205   1.397   .     A
C1200  H1243   1.082   .     S
C1201  C1205   1.397   .     A
C1201  H1244   1.082   .     S
C1202  O1254   1.291   .     A
C1202  C1208   1.450   .     S
C1202  O1253   1.291   .     A
C1203  C1204   1.400   .     A
C1203  H1245   1.084   .     S
C1204  C1213   1.458   .     S
C1205  C1215   1.456   .     S
C1207  C576    1.469   1_556 S
C1209  C1220   1.401   .     A
C1210  H1228   1.113   .     S
C1210  H1227   1.114   .     S
C1210  O1260   1.409   .     S
C1210  H1229   1.109   .     S
C1211  O1250   1.413   .     S
C1211  H1231   1.110   .     S
C1211  H1232   1.115   .     S
C1211  H1230   1.109   .     S
C1212  H1233   1.109   .     S
C1212  O1251   1.413   .     S
C1212  H1236   1.115   .     S
C1212  H1235   1.110   .     S
C1213  O1259   1.293   .     A
C1213  O1256   1.293   .     A
C1214  H1237   1.114   .     S
C1214  H1238   1.113   .     S
C1214  H1239   1.109   .     S
C1214  O1252   1.409   .     S
C1215  O1257   1.292   .     A
C1215  O1258   1.292   .     A
C1216  H1223   1.082   .     S
C1216  N1248   1.367   .     A
C1217  H1234   1.082   .     S
C1217  N1247   1.367   .     A
C1217  C798    1.416   1_565 S
C1218  N1248   1.367   .     A
C1218  H1240   1.082   .     S
C1219  N1247   1.367   .     A
C1219  H1241   1.082   .     S
C1219  C796    1.416   1_565 S
C1220  H1246   1.083   .     S
Cu1221 N1247   2.011   .     S
Cu1221 O1256   1.953   .     S
Cu1221 O1258   1.953   .     S
Cu1221 O1249   1.965   .     S
Cu1221 O1254   1.965   .     S
Cu1221 Cu1222  2.676   .     S
Cu1222 N1248   2.011   .     S
Cu1222 O1257   1.953   .     S
Cu1222 O1259   1.953   .     S
Cu1222 O1253   1.965   .     S
Cu1222 O1255   1.965   .     S
