data_str_m2_o1_o1_pcu_sym.15
_audit_creation_date              2020-01-03
_audit_creation_method            'Materials Studio'
_symmetry_space_group_name_H-M    'P1'
_symmetry_Int_Tables_number       1
_symmetry_cell_setting            triclinic
loop_
_symmetry_equiv_pos_as_xyz
  x,y,z
_cell_length_a                    32.2342
_cell_length_b                    29.3700
_cell_length_c                    28.7608
_cell_angle_alpha                 89.9997
_cell_angle_beta                  90.0000
_cell_angle_gamma                 90.0000
loop_
_atom_site_label
_atom_site_type_symbol
_atom_site_fract_x
_atom_site_fract_y
_atom_site_fract_z
_atom_site_U_iso_or_equiv
_atom_site_adp_type
_atom_site_occupancy
O1     O     0.04508   0.20491   0.20625   0.00000  Uiso   1.00
O2     O     0.45491   0.29509   0.12709   0.00000  Uiso   1.00
O3     O     0.45491   0.29509   0.20625   0.00000  Uiso   1.00
O4     O     0.04508   0.20491   0.12709   0.00000  Uiso   1.00
O5     O     0.45491   0.20491   0.12709   0.00000  Uiso   1.00
O6     O     0.04508   0.29509   0.20625   0.00000  Uiso   1.00
O7     O     0.04508   0.29509   0.12709   0.00000  Uiso   1.00
O8     O     0.45491   0.20491   0.20625   0.00000  Uiso   1.00
O9     O     0.29508   0.45491   0.20625   0.00000  Uiso   1.00
O10    O     0.20491   0.04509   0.12709   0.00000  Uiso   1.00
O11    O     0.20491   0.04509   0.20625   0.00000  Uiso   1.00
O12    O     0.29508   0.45491   0.12709   0.00000  Uiso   1.00
O13    O     0.20491   0.45491   0.12709   0.00000  Uiso   1.00
O14    O     0.29508   0.04509   0.20625   0.00000  Uiso   1.00
O15    O     0.29508   0.04509   0.12709   0.00000  Uiso   1.00
O16    O     0.20491   0.45491   0.20625   0.00000  Uiso   1.00
C17    C     0.06139   0.19293   0.16691   0.00000  Uiso   1.00
C18    C     0.43861   0.30706   0.16691   0.00000  Uiso   1.00
C19    C     0.43861   0.19293   0.16642   0.00000  Uiso   1.00
C20    C     0.06139   0.30706   0.16642   0.00000  Uiso   1.00
C21    C     0.31139   0.44293   0.16642   0.00000  Uiso   1.00
C22    C     0.18861   0.05707   0.16642   0.00000  Uiso   1.00
C23    C     0.18861   0.44293   0.16691   0.00000  Uiso   1.00
C24    C     0.31139   0.05707   0.16691   0.00000  Uiso   1.00
N25    N     0.00000   0.25000   0.28402   0.00000  Uiso   1.00
N26    N     0.00000   0.25000   0.04931   0.00000  Uiso   1.00
N27    N     0.25000   0.00000   0.28402   0.00000  Uiso   1.00
N28    N     0.25000   0.00000   0.04931   0.00000  Uiso   1.00
Cu29   Cu    0.00000   0.25000   0.21355   0.00000  Uiso   1.00
Cu30   Cu   -0.00000   0.25000   0.11978   0.00000  Uiso   1.00
Cu31   Cu    0.25000   0.00000   0.21355   0.00000  Uiso   1.00
Cu32   Cu    0.25000   0.00000   0.11978   0.00000  Uiso   1.00
C33    C     0.00291   0.21000   0.02444   0.00000  Uiso   1.00
C34    C     0.00291   0.29000   0.30889   0.00000  Uiso   1.00
C35    C     0.49709   0.29000   0.02444   0.00000  Uiso   1.00
C36    C     0.49709   0.21000   0.30889   0.00000  Uiso   1.00
C37    C     0.24709   0.46000   0.02444   0.00000  Uiso   1.00
C38    C     0.24709   0.04000   0.30889   0.00000  Uiso   1.00
C39    C     0.25291   0.04000   0.02444   0.00000  Uiso   1.00
C40    C     0.25291   0.46000   0.30889   0.00000  Uiso   1.00
C41    C     0.39161   0.13897   0.12393   0.00000  Uiso   1.00
C42    C     0.11663   0.35042   0.20749   0.00000  Uiso   1.00
C43    C     0.10839   0.36103   0.12393   0.00000  Uiso   1.00
C44    C     0.38337   0.14958   0.20750   0.00000  Uiso   1.00
C45    C     0.10839   0.13897   0.20941   0.00000  Uiso   1.00
C46    C     0.38337   0.35042   0.12584   0.00000  Uiso   1.00
C47    C     0.39161   0.36103   0.20941   0.00000  Uiso   1.00
C48    C     0.11663   0.14958   0.12584   0.00000  Uiso   1.00
C49    C     0.13337   0.39958   0.12584   0.00000  Uiso   1.00
C50    C     0.35839   0.11103   0.20941   0.00000  Uiso   1.00
C51    C     0.36663   0.10042   0.12584   0.00000  Uiso   1.00
C52    C     0.14161   0.38897   0.20941   0.00000  Uiso   1.00
C53    C     0.36663   0.39958   0.20750   0.00000  Uiso   1.00
C54    C     0.14161   0.11103   0.12393   0.00000  Uiso   1.00
C55    C     0.13337   0.10042   0.20749   0.00000  Uiso   1.00
C56    C     0.35839   0.38897   0.12393   0.00000  Uiso   1.00
C57    C     0.09684   0.33860   0.16559   0.00000  Uiso   1.00
C58    C     0.40317   0.16140   0.16559   0.00000  Uiso   1.00
C59    C     0.40316   0.33860   0.16775   0.00000  Uiso   1.00
C60    C     0.09683   0.16140   0.16775   0.00000  Uiso   1.00
C61    C     0.34683   0.08860   0.16775   0.00000  Uiso   1.00
C62    C     0.15317   0.41139   0.16775   0.00000  Uiso   1.00
C63    C     0.15316   0.08860   0.16559   0.00000  Uiso   1.00
C64    C     0.34683   0.41139   0.16559   0.00000  Uiso   1.00
N65    N     0.01558   0.16791   0.04584   0.00000  Uiso   1.00
O66    O     0.04370   0.14321   0.02541   0.00000  Uiso   1.00
O67    O     0.49347   0.14886   0.07806   0.00000  Uiso   1.00
N68    N     0.01558   0.33209   0.28749   0.00000  Uiso   1.00
O69    O     0.04371   0.35678   0.30792   0.00000  Uiso   1.00
O70    O     0.49346   0.35114   0.25528   0.00000  Uiso   1.00
N71    N     0.48442   0.33209   0.04584   0.00000  Uiso   1.00
O72    O     0.45630   0.35678   0.02541   0.00000  Uiso   1.00
O73    O     0.00653   0.35114   0.07806   0.00000  Uiso   1.00
N74    N     0.48442   0.16791   0.28750   0.00000  Uiso   1.00
O75    O     0.45630   0.14321   0.30792   0.00000  Uiso   1.00
O76    O     0.00653   0.14886   0.25527   0.00000  Uiso   1.00
N77    N     0.23442   0.41791   0.04584   0.00000  Uiso   1.00
O78    O     0.25653   0.39886   0.07806   0.00000  Uiso   1.00
O79    O     0.20630   0.39321   0.02541   0.00000  Uiso   1.00
N80    N     0.23442   0.08209   0.28750   0.00000  Uiso   1.00
O81    O     0.25653   0.10114   0.25527   0.00000  Uiso   1.00
O82    O     0.20630   0.10679   0.30792   0.00000  Uiso   1.00
N83    N     0.26558   0.08209   0.04584   0.00000  Uiso   1.00
O84    O     0.24347   0.10114   0.07806   0.00000  Uiso   1.00
O85    O     0.29370   0.10679   0.02541   0.00000  Uiso   1.00
N86    N     0.26558   0.41791   0.28750   0.00000  Uiso   1.00
O87    O     0.24347   0.39887   0.25527   0.00000  Uiso   1.00
O88    O     0.29370   0.39321   0.30793   0.00000  Uiso   1.00
Cl89   Cl    0.40240   0.16117   0.06790   0.00000  Uiso   1.00
Cl90   Cl    0.11595   0.31385   0.25660   0.00000  Uiso   1.00
Cl91   Cl    0.09760   0.33883   0.06790   0.00000  Uiso   1.00
Cl92   Cl    0.38405   0.18615   0.25661   0.00000  Uiso   1.00
Cl93   Cl    0.09760   0.16117   0.26543   0.00000  Uiso   1.00
Cl94   Cl    0.38405   0.31385   0.07673   0.00000  Uiso   1.00
Cl95   Cl    0.40239   0.33882   0.26543   0.00000  Uiso   1.00
Cl96   Cl    0.11595   0.18615   0.07673   0.00000  Uiso   1.00
Cl97   Cl    0.13405   0.43615   0.07673   0.00000  Uiso   1.00
Cl98   Cl    0.34760   0.08883   0.26543   0.00000  Uiso   1.00
Cl99   Cl    0.36595   0.06385   0.07673   0.00000  Uiso   1.00
Cl100  Cl    0.15240   0.41117   0.26543   0.00000  Uiso   1.00
Cl101  Cl    0.36595   0.43614   0.25661   0.00000  Uiso   1.00
Cl102  Cl    0.15240   0.08883   0.06790   0.00000  Uiso   1.00
Cl103  Cl    0.13405   0.06385   0.25660   0.00000  Uiso   1.00
Cl104  Cl    0.34760   0.41117   0.06790   0.00000  Uiso   1.00
O105   O     0.54508   0.20491   0.20625   0.00000  Uiso   1.00
O106   O     0.95491   0.29509   0.12709   0.00000  Uiso   1.00
O107   O     0.95491   0.29509   0.20625   0.00000  Uiso   1.00
O108   O     0.54508   0.20491   0.12709   0.00000  Uiso   1.00
O109   O     0.95491   0.20491   0.12709   0.00000  Uiso   1.00
O110   O     0.54508   0.29509   0.20625   0.00000  Uiso   1.00
O111   O     0.54508   0.29509   0.12709   0.00000  Uiso   1.00
O112   O     0.95491   0.20491   0.20625   0.00000  Uiso   1.00
O113   O     0.79508   0.45491   0.20625   0.00000  Uiso   1.00
O114   O     0.70491   0.04509   0.12709   0.00000  Uiso   1.00
O115   O     0.70491   0.04509   0.20625   0.00000  Uiso   1.00
O116   O     0.79508   0.45491   0.12709   0.00000  Uiso   1.00
O117   O     0.70491   0.45491   0.12709   0.00000  Uiso   1.00
O118   O     0.79508   0.04509   0.20625   0.00000  Uiso   1.00
O119   O     0.79508   0.04509   0.12709   0.00000  Uiso   1.00
O120   O     0.70491   0.45491   0.20625   0.00000  Uiso   1.00
C121   C     0.56139   0.19293   0.16691   0.00000  Uiso   1.00
C122   C     0.93861   0.30706   0.16691   0.00000  Uiso   1.00
C123   C     0.93861   0.19293   0.16642   0.00000  Uiso   1.00
C124   C     0.56139   0.30706   0.16642   0.00000  Uiso   1.00
C125   C     0.81139   0.44293   0.16642   0.00000  Uiso   1.00
C126   C     0.68861   0.05707   0.16642   0.00000  Uiso   1.00
C127   C     0.68861   0.44293   0.16691   0.00000  Uiso   1.00
C128   C     0.81139   0.05707   0.16691   0.00000  Uiso   1.00
N129   N     0.50000   0.25000   0.28402   0.00000  Uiso   1.00
N130   N     0.50000   0.25000   0.04931   0.00000  Uiso   1.00
N131   N     0.75000   0.00000   0.28402   0.00000  Uiso   1.00
N132   N     0.75000   0.00000   0.04931   0.00000  Uiso   1.00
Cu133  Cu    0.50000   0.25000   0.21355   0.00000  Uiso   1.00
Cu134  Cu    0.50000   0.25000   0.11978   0.00000  Uiso   1.00
Cu135  Cu    0.75000   0.00000   0.21355   0.00000  Uiso   1.00
Cu136  Cu    0.75000   0.00000   0.11978   0.00000  Uiso   1.00
C137   C     0.50291   0.21000   0.02444   0.00000  Uiso   1.00
C138   C     0.50291   0.29000   0.30889   0.00000  Uiso   1.00
C139   C     0.99709   0.29000   0.02444   0.00000  Uiso   1.00
C140   C     0.99709   0.21000   0.30889   0.00000  Uiso   1.00
C141   C     0.74709   0.46000   0.02444   0.00000  Uiso   1.00
C142   C     0.74709   0.04000   0.30889   0.00000  Uiso   1.00
C143   C     0.75291   0.04000   0.02444   0.00000  Uiso   1.00
C144   C     0.75291   0.46000   0.30889   0.00000  Uiso   1.00
C145   C     0.89161   0.13897   0.12393   0.00000  Uiso   1.00
C146   C     0.61663   0.35042   0.20749   0.00000  Uiso   1.00
C147   C     0.60839   0.36103   0.12393   0.00000  Uiso   1.00
C148   C     0.88337   0.14958   0.20750   0.00000  Uiso   1.00
C149   C     0.60839   0.13897   0.20941   0.00000  Uiso   1.00
C150   C     0.88337   0.35042   0.12584   0.00000  Uiso   1.00
C151   C     0.89161   0.36103   0.20941   0.00000  Uiso   1.00
C152   C     0.61663   0.14958   0.12584   0.00000  Uiso   1.00
C153   C     0.63337   0.39958   0.12584   0.00000  Uiso   1.00
C154   C     0.85839   0.11103   0.20941   0.00000  Uiso   1.00
C155   C     0.86663   0.10042   0.12584   0.00000  Uiso   1.00
C156   C     0.64161   0.38897   0.20941   0.00000  Uiso   1.00
C157   C     0.86663   0.39958   0.20750   0.00000  Uiso   1.00
C158   C     0.64161   0.11103   0.12393   0.00000  Uiso   1.00
C159   C     0.63337   0.10042   0.20749   0.00000  Uiso   1.00
C160   C     0.85839   0.38897   0.12393   0.00000  Uiso   1.00
C161   C     0.59684   0.33860   0.16559   0.00000  Uiso   1.00
C162   C     0.90317   0.16140   0.16559   0.00000  Uiso   1.00
C163   C     0.90316   0.33860   0.16775   0.00000  Uiso   1.00
C164   C     0.59683   0.16140   0.16775   0.00000  Uiso   1.00
C165   C     0.84683   0.08860   0.16775   0.00000  Uiso   1.00
C166   C     0.65317   0.41139   0.16775   0.00000  Uiso   1.00
C167   C     0.65316   0.08860   0.16559   0.00000  Uiso   1.00
C168   C     0.84683   0.41139   0.16559   0.00000  Uiso   1.00
N169   N     0.51558   0.16791   0.04584   0.00000  Uiso   1.00
O170   O     0.54370   0.14321   0.02541   0.00000  Uiso   1.00
O171   O     0.99347   0.14886   0.07806   0.00000  Uiso   1.00
N172   N     0.51558   0.33209   0.28749   0.00000  Uiso   1.00
O173   O     0.54371   0.35678   0.30792   0.00000  Uiso   1.00
O174   O     0.99346   0.35114   0.25528   0.00000  Uiso   1.00
N175   N     0.98442   0.33209   0.04584   0.00000  Uiso   1.00
O176   O     0.95630   0.35678   0.02541   0.00000  Uiso   1.00
O177   O     0.50653   0.35114   0.07806   0.00000  Uiso   1.00
N178   N     0.98442   0.16791   0.28750   0.00000  Uiso   1.00
O179   O     0.95630   0.14321   0.30792   0.00000  Uiso   1.00
O180   O     0.50653   0.14886   0.25527   0.00000  Uiso   1.00
N181   N     0.73442   0.41791   0.04584   0.00000  Uiso   1.00
O182   O     0.75653   0.39886   0.07806   0.00000  Uiso   1.00
O183   O     0.70630   0.39321   0.02541   0.00000  Uiso   1.00
N184   N     0.73442   0.08209   0.28750   0.00000  Uiso   1.00
O185   O     0.75653   0.10114   0.25527   0.00000  Uiso   1.00
O186   O     0.70630   0.10679   0.30792   0.00000  Uiso   1.00
N187   N     0.76558   0.08209   0.04584   0.00000  Uiso   1.00
O188   O     0.74347   0.10114   0.07806   0.00000  Uiso   1.00
O189   O     0.79370   0.10679   0.02541   0.00000  Uiso   1.00
N190   N     0.76558   0.41791   0.28750   0.00000  Uiso   1.00
O191   O     0.74347   0.39887   0.25527   0.00000  Uiso   1.00
O192   O     0.79370   0.39321   0.30793   0.00000  Uiso   1.00
Cl193  Cl    0.90240   0.16117   0.06790   0.00000  Uiso   1.00
Cl194  Cl    0.61595   0.31385   0.25660   0.00000  Uiso   1.00
Cl195  Cl    0.59760   0.33883   0.06790   0.00000  Uiso   1.00
Cl196  Cl    0.88405   0.18615   0.25661   0.00000  Uiso   1.00
Cl197  Cl    0.59760   0.16117   0.26543   0.00000  Uiso   1.00
Cl198  Cl    0.88405   0.31385   0.07673   0.00000  Uiso   1.00
Cl199  Cl    0.90239   0.33882   0.26543   0.00000  Uiso   1.00
Cl200  Cl    0.61595   0.18615   0.07673   0.00000  Uiso   1.00
Cl201  Cl    0.63405   0.43615   0.07673   0.00000  Uiso   1.00
Cl202  Cl    0.84760   0.08883   0.26543   0.00000  Uiso   1.00
Cl203  Cl    0.86595   0.06385   0.07673   0.00000  Uiso   1.00
Cl204  Cl    0.65240   0.41117   0.26543   0.00000  Uiso   1.00
Cl205  Cl    0.86595   0.43614   0.25661   0.00000  Uiso   1.00
Cl206  Cl    0.65240   0.08883   0.06790   0.00000  Uiso   1.00
Cl207  Cl    0.63405   0.06385   0.25660   0.00000  Uiso   1.00
Cl208  Cl    0.84760   0.41117   0.06790   0.00000  Uiso   1.00
O209   O     0.04508   0.70491   0.20625   0.00000  Uiso   1.00
O210   O     0.45491   0.79509   0.12709   0.00000  Uiso   1.00
O211   O     0.45491   0.79509   0.20625   0.00000  Uiso   1.00
O212   O     0.04508   0.70491   0.12709   0.00000  Uiso   1.00
O213   O     0.45491   0.70491   0.12709   0.00000  Uiso   1.00
O214   O     0.04508   0.79509   0.20625   0.00000  Uiso   1.00
O215   O     0.04508   0.79509   0.12709   0.00000  Uiso   1.00
O216   O     0.45491   0.70491   0.20625   0.00000  Uiso   1.00
O217   O     0.29508   0.95491   0.20625   0.00000  Uiso   1.00
O218   O     0.20491   0.54509   0.12709   0.00000  Uiso   1.00
O219   O     0.20491   0.54509   0.20625   0.00000  Uiso   1.00
O220   O     0.29508   0.95491   0.12709   0.00000  Uiso   1.00
O221   O     0.20491   0.95491   0.12709   0.00000  Uiso   1.00
O222   O     0.29508   0.54509   0.20625   0.00000  Uiso   1.00
O223   O     0.29508   0.54509   0.12709   0.00000  Uiso   1.00
O224   O     0.20491   0.95491   0.20625   0.00000  Uiso   1.00
C225   C     0.06139   0.69293   0.16691   0.00000  Uiso   1.00
C226   C     0.43861   0.80706   0.16691   0.00000  Uiso   1.00
C227   C     0.43861   0.69293   0.16642   0.00000  Uiso   1.00
C228   C     0.06139   0.80706   0.16642   0.00000  Uiso   1.00
C229   C     0.31139   0.94293   0.16642   0.00000  Uiso   1.00
C230   C     0.18861   0.55707   0.16642   0.00000  Uiso   1.00
C231   C     0.18861   0.94293   0.16691   0.00000  Uiso   1.00
C232   C     0.31139   0.55707   0.16691   0.00000  Uiso   1.00
N233   N     0.00000   0.75000   0.28402   0.00000  Uiso   1.00
N234   N     0.00000   0.75000   0.04931   0.00000  Uiso   1.00
N235   N     0.25000   0.50000   0.28402   0.00000  Uiso   1.00
N236   N     0.25000   0.50000   0.04931   0.00000  Uiso   1.00
Cu237  Cu    0.00000   0.75000   0.21355   0.00000  Uiso   1.00
Cu238  Cu   -0.00000   0.75000   0.11978   0.00000  Uiso   1.00
Cu239  Cu    0.25000   0.50000   0.21355   0.00000  Uiso   1.00
Cu240  Cu    0.25000   0.50000   0.11978   0.00000  Uiso   1.00
C241   C     0.00291   0.71000   0.02444   0.00000  Uiso   1.00
C242   C     0.00291   0.79000   0.30889   0.00000  Uiso   1.00
C243   C     0.49709   0.79000   0.02444   0.00000  Uiso   1.00
C244   C     0.49709   0.71000   0.30889   0.00000  Uiso   1.00
C245   C     0.24709   0.96000   0.02444   0.00000  Uiso   1.00
C246   C     0.24709   0.54000   0.30889   0.00000  Uiso   1.00
C247   C     0.25291   0.54000   0.02444   0.00000  Uiso   1.00
C248   C     0.25291   0.96000   0.30889   0.00000  Uiso   1.00
C249   C     0.39161   0.63897   0.12393   0.00000  Uiso   1.00
C250   C     0.11663   0.85042   0.20749   0.00000  Uiso   1.00
C251   C     0.10839   0.86103   0.12393   0.00000  Uiso   1.00
C252   C     0.38337   0.64958   0.20750   0.00000  Uiso   1.00
C253   C     0.10839   0.63897   0.20941   0.00000  Uiso   1.00
C254   C     0.38337   0.85042   0.12584   0.00000  Uiso   1.00
C255   C     0.39161   0.86103   0.20941   0.00000  Uiso   1.00
C256   C     0.11663   0.64958   0.12584   0.00000  Uiso   1.00
C257   C     0.13337   0.89958   0.12584   0.00000  Uiso   1.00
C258   C     0.35839   0.61103   0.20941   0.00000  Uiso   1.00
C259   C     0.36663   0.60042   0.12584   0.00000  Uiso   1.00
C260   C     0.14161   0.88897   0.20941   0.00000  Uiso   1.00
C261   C     0.36663   0.89958   0.20750   0.00000  Uiso   1.00
C262   C     0.14161   0.61103   0.12393   0.00000  Uiso   1.00
C263   C     0.13337   0.60042   0.20749   0.00000  Uiso   1.00
C264   C     0.35839   0.88897   0.12393   0.00000  Uiso   1.00
C265   C     0.09684   0.83860   0.16559   0.00000  Uiso   1.00
C266   C     0.40317   0.66140   0.16559   0.00000  Uiso   1.00
C267   C     0.40316   0.83860   0.16775   0.00000  Uiso   1.00
C268   C     0.09683   0.66140   0.16775   0.00000  Uiso   1.00
C269   C     0.34683   0.58860   0.16775   0.00000  Uiso   1.00
C270   C     0.15317   0.91139   0.16775   0.00000  Uiso   1.00
C271   C     0.15316   0.58860   0.16559   0.00000  Uiso   1.00
C272   C     0.34683   0.91139   0.16559   0.00000  Uiso   1.00
N273   N     0.01558   0.66791   0.04584   0.00000  Uiso   1.00
O274   O     0.04370   0.64321   0.02541   0.00000  Uiso   1.00
O275   O     0.49347   0.64886   0.07806   0.00000  Uiso   1.00
N276   N     0.01558   0.83209   0.28749   0.00000  Uiso   1.00
O277   O     0.04371   0.85678   0.30792   0.00000  Uiso   1.00
O278   O     0.49346   0.85114   0.25528   0.00000  Uiso   1.00
N279   N     0.48442   0.83209   0.04584   0.00000  Uiso   1.00
O280   O     0.45630   0.85678   0.02541   0.00000  Uiso   1.00
O281   O     0.00653   0.85114   0.07806   0.00000  Uiso   1.00
N282   N     0.48442   0.66791   0.28750   0.00000  Uiso   1.00
O283   O     0.45630   0.64321   0.30792   0.00000  Uiso   1.00
O284   O     0.00653   0.64886   0.25527   0.00000  Uiso   1.00
N285   N     0.23442   0.91791   0.04584   0.00000  Uiso   1.00
O286   O     0.25653   0.89886   0.07806   0.00000  Uiso   1.00
O287   O     0.20630   0.89321   0.02541   0.00000  Uiso   1.00
N288   N     0.23442   0.58209   0.28750   0.00000  Uiso   1.00
O289   O     0.25653   0.60114   0.25527   0.00000  Uiso   1.00
O290   O     0.20630   0.60679   0.30792   0.00000  Uiso   1.00
N291   N     0.26558   0.58209   0.04584   0.00000  Uiso   1.00
O292   O     0.24347   0.60114   0.07806   0.00000  Uiso   1.00
O293   O     0.29370   0.60679   0.02541   0.00000  Uiso   1.00
N294   N     0.26558   0.91791   0.28750   0.00000  Uiso   1.00
O295   O     0.24347   0.89887   0.25527   0.00000  Uiso   1.00
O296   O     0.29370   0.89321   0.30793   0.00000  Uiso   1.00
Cl297  Cl    0.40240   0.66117   0.06790   0.00000  Uiso   1.00
Cl298  Cl    0.11595   0.81385   0.25660   0.00000  Uiso   1.00
Cl299  Cl    0.09760   0.83883   0.06790   0.00000  Uiso   1.00
Cl300  Cl    0.38405   0.68615   0.25661   0.00000  Uiso   1.00
Cl301  Cl    0.09760   0.66117   0.26543   0.00000  Uiso   1.00
Cl302  Cl    0.38405   0.81385   0.07673   0.00000  Uiso   1.00
Cl303  Cl    0.40239   0.83882   0.26543   0.00000  Uiso   1.00
Cl304  Cl    0.11595   0.68615   0.07673   0.00000  Uiso   1.00
Cl305  Cl    0.13405   0.93615   0.07673   0.00000  Uiso   1.00
Cl306  Cl    0.34760   0.58883   0.26543   0.00000  Uiso   1.00
Cl307  Cl    0.36595   0.56385   0.07673   0.00000  Uiso   1.00
Cl308  Cl    0.15240   0.91117   0.26543   0.00000  Uiso   1.00
Cl309  Cl    0.36595   0.93614   0.25661   0.00000  Uiso   1.00
Cl310  Cl    0.15240   0.58883   0.06790   0.00000  Uiso   1.00
Cl311  Cl    0.13405   0.56385   0.25660   0.00000  Uiso   1.00
Cl312  Cl    0.34760   0.91117   0.06790   0.00000  Uiso   1.00
O313   O     0.54508   0.70491   0.20625   0.00000  Uiso   1.00
O314   O     0.95491   0.79509   0.12709   0.00000  Uiso   1.00
O315   O     0.95491   0.79509   0.20625   0.00000  Uiso   1.00
O316   O     0.54508   0.70491   0.12709   0.00000  Uiso   1.00
O317   O     0.95491   0.70491   0.12709   0.00000  Uiso   1.00
O318   O     0.54508   0.79509   0.20625   0.00000  Uiso   1.00
O319   O     0.54508   0.79509   0.12709   0.00000  Uiso   1.00
O320   O     0.95491   0.70491   0.20625   0.00000  Uiso   1.00
O321   O     0.79508   0.95491   0.20625   0.00000  Uiso   1.00
O322   O     0.70491   0.54509   0.12709   0.00000  Uiso   1.00
O323   O     0.70491   0.54509   0.20625   0.00000  Uiso   1.00
O324   O     0.79508   0.95491   0.12709   0.00000  Uiso   1.00
O325   O     0.70491   0.95491   0.12709   0.00000  Uiso   1.00
O326   O     0.79508   0.54509   0.20625   0.00000  Uiso   1.00
O327   O     0.79508   0.54509   0.12709   0.00000  Uiso   1.00
O328   O     0.70491   0.95491   0.20625   0.00000  Uiso   1.00
C329   C     0.56139   0.69293   0.16691   0.00000  Uiso   1.00
C330   C     0.93861   0.80706   0.16691   0.00000  Uiso   1.00
C331   C     0.93861   0.69293   0.16642   0.00000  Uiso   1.00
C332   C     0.56139   0.80706   0.16642   0.00000  Uiso   1.00
C333   C     0.81139   0.94293   0.16642   0.00000  Uiso   1.00
C334   C     0.68861   0.55707   0.16642   0.00000  Uiso   1.00
C335   C     0.68861   0.94293   0.16691   0.00000  Uiso   1.00
C336   C     0.81139   0.55707   0.16691   0.00000  Uiso   1.00
N337   N     0.50000   0.75000   0.28402   0.00000  Uiso   1.00
N338   N     0.50000   0.75000   0.04931   0.00000  Uiso   1.00
N339   N     0.75000   0.50000   0.28402   0.00000  Uiso   1.00
N340   N     0.75000   0.50000   0.04931   0.00000  Uiso   1.00
Cu341  Cu    0.50000   0.75000   0.21355   0.00000  Uiso   1.00
Cu342  Cu    0.50000   0.75000   0.11978   0.00000  Uiso   1.00
Cu343  Cu    0.75000   0.50000   0.21355   0.00000  Uiso   1.00
Cu344  Cu    0.75000   0.50000   0.11978   0.00000  Uiso   1.00
C345   C     0.50291   0.71000   0.02444   0.00000  Uiso   1.00
C346   C     0.50291   0.79000   0.30889   0.00000  Uiso   1.00
C347   C     0.99709   0.79000   0.02444   0.00000  Uiso   1.00
C348   C     0.99709   0.71000   0.30889   0.00000  Uiso   1.00
C349   C     0.74709   0.96000   0.02444   0.00000  Uiso   1.00
C350   C     0.74709   0.54000   0.30889   0.00000  Uiso   1.00
C351   C     0.75291   0.54000   0.02444   0.00000  Uiso   1.00
C352   C     0.75291   0.96000   0.30889   0.00000  Uiso   1.00
C353   C     0.89161   0.63897   0.12393   0.00000  Uiso   1.00
C354   C     0.61663   0.85042   0.20749   0.00000  Uiso   1.00
C355   C     0.60839   0.86103   0.12393   0.00000  Uiso   1.00
C356   C     0.88337   0.64958   0.20750   0.00000  Uiso   1.00
C357   C     0.60839   0.63897   0.20941   0.00000  Uiso   1.00
C358   C     0.88337   0.85042   0.12584   0.00000  Uiso   1.00
C359   C     0.89161   0.86103   0.20941   0.00000  Uiso   1.00
C360   C     0.61663   0.64958   0.12584   0.00000  Uiso   1.00
C361   C     0.63337   0.89958   0.12584   0.00000  Uiso   1.00
C362   C     0.85839   0.61103   0.20941   0.00000  Uiso   1.00
C363   C     0.86663   0.60042   0.12584   0.00000  Uiso   1.00
C364   C     0.64161   0.88897   0.20941   0.00000  Uiso   1.00
C365   C     0.86663   0.89958   0.20750   0.00000  Uiso   1.00
C366   C     0.64161   0.61103   0.12393   0.00000  Uiso   1.00
C367   C     0.63337   0.60042   0.20749   0.00000  Uiso   1.00
C368   C     0.85839   0.88897   0.12393   0.00000  Uiso   1.00
C369   C     0.59684   0.83860   0.16559   0.00000  Uiso   1.00
C370   C     0.90317   0.66140   0.16559   0.00000  Uiso   1.00
C371   C     0.90316   0.83860   0.16775   0.00000  Uiso   1.00
C372   C     0.59683   0.66140   0.16775   0.00000  Uiso   1.00
C373   C     0.84683   0.58860   0.16775   0.00000  Uiso   1.00
C374   C     0.65317   0.91139   0.16775   0.00000  Uiso   1.00
C375   C     0.65316   0.58860   0.16559   0.00000  Uiso   1.00
C376   C     0.84683   0.91139   0.16559   0.00000  Uiso   1.00
N377   N     0.51558   0.66791   0.04584   0.00000  Uiso   1.00
O378   O     0.54370   0.64321   0.02541   0.00000  Uiso   1.00
O379   O     0.99347   0.64886   0.07806   0.00000  Uiso   1.00
N380   N     0.51558   0.83209   0.28749   0.00000  Uiso   1.00
O381   O     0.54371   0.85678   0.30792   0.00000  Uiso   1.00
O382   O     0.99346   0.85114   0.25528   0.00000  Uiso   1.00
N383   N     0.98442   0.83209   0.04584   0.00000  Uiso   1.00
O384   O     0.95630   0.85678   0.02541   0.00000  Uiso   1.00
O385   O     0.50653   0.85114   0.07806   0.00000  Uiso   1.00
N386   N     0.98442   0.66791   0.28750   0.00000  Uiso   1.00
O387   O     0.95630   0.64321   0.30792   0.00000  Uiso   1.00
O388   O     0.50653   0.64886   0.25527   0.00000  Uiso   1.00
N389   N     0.73442   0.91791   0.04584   0.00000  Uiso   1.00
O390   O     0.75653   0.89886   0.07806   0.00000  Uiso   1.00
O391   O     0.70630   0.89321   0.02541   0.00000  Uiso   1.00
N392   N     0.73442   0.58209   0.28750   0.00000  Uiso   1.00
O393   O     0.75653   0.60114   0.25527   0.00000  Uiso   1.00
O394   O     0.70630   0.60679   0.30792   0.00000  Uiso   1.00
N395   N     0.76558   0.58209   0.04584   0.00000  Uiso   1.00
O396   O     0.74347   0.60114   0.07806   0.00000  Uiso   1.00
O397   O     0.79370   0.60679   0.02541   0.00000  Uiso   1.00
N398   N     0.76558   0.91791   0.28750   0.00000  Uiso   1.00
O399   O     0.74347   0.89887   0.25527   0.00000  Uiso   1.00
O400   O     0.79370   0.89321   0.30793   0.00000  Uiso   1.00
Cl401  Cl    0.90240   0.66117   0.06790   0.00000  Uiso   1.00
Cl402  Cl    0.61595   0.81385   0.25660   0.00000  Uiso   1.00
Cl403  Cl    0.59760   0.83883   0.06790   0.00000  Uiso   1.00
Cl404  Cl    0.88405   0.68615   0.25661   0.00000  Uiso   1.00
Cl405  Cl    0.59760   0.66117   0.26543   0.00000  Uiso   1.00
Cl406  Cl    0.88405   0.81385   0.07673   0.00000  Uiso   1.00
Cl407  Cl    0.90239   0.83882   0.26543   0.00000  Uiso   1.00
Cl408  Cl    0.61595   0.68615   0.07673   0.00000  Uiso   1.00
Cl409  Cl    0.63405   0.93615   0.07673   0.00000  Uiso   1.00
Cl410  Cl    0.84760   0.58883   0.26543   0.00000  Uiso   1.00
Cl411  Cl    0.86595   0.56385   0.07673   0.00000  Uiso   1.00
Cl412  Cl    0.65240   0.91117   0.26543   0.00000  Uiso   1.00
Cl413  Cl    0.86595   0.93614   0.25661   0.00000  Uiso   1.00
Cl414  Cl    0.65240   0.58883   0.06790   0.00000  Uiso   1.00
Cl415  Cl    0.63405   0.56385   0.25660   0.00000  Uiso   1.00
Cl416  Cl    0.84760   0.91117   0.06790   0.00000  Uiso   1.00
O417   O     0.04508   0.20491   0.53958   0.00000  Uiso   1.00
O418   O     0.45491   0.29509   0.46042   0.00000  Uiso   1.00
O419   O     0.45491   0.29509   0.53958   0.00000  Uiso   1.00
O420   O     0.04508   0.20491   0.46042   0.00000  Uiso   1.00
O421   O     0.45491   0.20491   0.46042   0.00000  Uiso   1.00
O422   O     0.04508   0.29509   0.53958   0.00000  Uiso   1.00
O423   O     0.04508   0.29509   0.46042   0.00000  Uiso   1.00
O424   O     0.45491   0.20491   0.53958   0.00000  Uiso   1.00
O425   O     0.29508   0.45491   0.53958   0.00000  Uiso   1.00
O426   O     0.20491   0.04509   0.46042   0.00000  Uiso   1.00
O427   O     0.20491   0.04509   0.53958   0.00000  Uiso   1.00
O428   O     0.29508   0.45491   0.46042   0.00000  Uiso   1.00
O429   O     0.20491   0.45491   0.46042   0.00000  Uiso   1.00
O430   O     0.29508   0.04509   0.53958   0.00000  Uiso   1.00
O431   O     0.29508   0.04509   0.46042   0.00000  Uiso   1.00
O432   O     0.20491   0.45491   0.53958   0.00000  Uiso   1.00
C433   C     0.06139   0.19293   0.50024   0.00000  Uiso   1.00
C434   C     0.43861   0.30706   0.50024   0.00000  Uiso   1.00
C435   C     0.43861   0.19293   0.49976   0.00000  Uiso   1.00
C436   C     0.06139   0.30706   0.49976   0.00000  Uiso   1.00
C437   C     0.31139   0.44293   0.49976   0.00000  Uiso   1.00
C438   C     0.18861   0.05707   0.49976   0.00000  Uiso   1.00
C439   C     0.18861   0.44293   0.50024   0.00000  Uiso   1.00
C440   C     0.31139   0.05707   0.50024   0.00000  Uiso   1.00
N441   N     0.00000   0.25000   0.61736   0.00000  Uiso   1.00
N442   N     0.00000   0.25000   0.38264   0.00000  Uiso   1.00
N443   N     0.25000   0.00000   0.61736   0.00000  Uiso   1.00
N444   N     0.25000   0.00000   0.38264   0.00000  Uiso   1.00
Cu445  Cu    0.00000   0.25000   0.54689   0.00000  Uiso   1.00
Cu446  Cu   -0.00000   0.25000   0.45311   0.00000  Uiso   1.00
Cu447  Cu    0.25000   0.00000   0.54689   0.00000  Uiso   1.00
Cu448  Cu    0.25000   0.00000   0.45311   0.00000  Uiso   1.00
C449   C     0.00291   0.21000   0.35777   0.00000  Uiso   1.00
C450   C     0.00291   0.29000   0.64223   0.00000  Uiso   1.00
C451   C     0.49709   0.29000   0.35777   0.00000  Uiso   1.00
C452   C     0.49709   0.21000   0.64223   0.00000  Uiso   1.00
C453   C     0.24709   0.46000   0.35777   0.00000  Uiso   1.00
C454   C     0.24709   0.04000   0.64223   0.00000  Uiso   1.00
C455   C     0.25291   0.04000   0.35777   0.00000  Uiso   1.00
C456   C     0.25291   0.46000   0.64223   0.00000  Uiso   1.00
C457   C     0.39161   0.13897   0.45726   0.00000  Uiso   1.00
C458   C     0.11663   0.35042   0.54083   0.00000  Uiso   1.00
C459   C     0.10839   0.36103   0.45726   0.00000  Uiso   1.00
C460   C     0.38337   0.14958   0.54083   0.00000  Uiso   1.00
C461   C     0.10839   0.13897   0.54274   0.00000  Uiso   1.00
C462   C     0.38337   0.35042   0.45917   0.00000  Uiso   1.00
C463   C     0.39161   0.36103   0.54274   0.00000  Uiso   1.00
C464   C     0.11663   0.14958   0.45917   0.00000  Uiso   1.00
C465   C     0.13337   0.39958   0.45917   0.00000  Uiso   1.00
C466   C     0.35839   0.11103   0.54274   0.00000  Uiso   1.00
C467   C     0.36663   0.10042   0.45917   0.00000  Uiso   1.00
C468   C     0.14161   0.38897   0.54274   0.00000  Uiso   1.00
C469   C     0.36663   0.39958   0.54083   0.00000  Uiso   1.00
C470   C     0.14161   0.11103   0.45726   0.00000  Uiso   1.00
C471   C     0.13337   0.10042   0.54083   0.00000  Uiso   1.00
C472   C     0.35839   0.38897   0.45726   0.00000  Uiso   1.00
C473   C     0.09684   0.33860   0.49892   0.00000  Uiso   1.00
C474   C     0.40317   0.16140   0.49892   0.00000  Uiso   1.00
C475   C     0.40316   0.33860   0.50108   0.00000  Uiso   1.00
C476   C     0.09683   0.16140   0.50108   0.00000  Uiso   1.00
C477   C     0.34683   0.08860   0.50108   0.00000  Uiso   1.00
C478   C     0.15317   0.41139   0.50108   0.00000  Uiso   1.00
C479   C     0.15316   0.08860   0.49892   0.00000  Uiso   1.00
C480   C     0.34683   0.41139   0.49892   0.00000  Uiso   1.00
N481   N     0.01558   0.16791   0.37917   0.00000  Uiso   1.00
O482   O     0.04370   0.14321   0.35874   0.00000  Uiso   1.00
O483   O     0.49347   0.14886   0.41140   0.00000  Uiso   1.00
N484   N     0.01558   0.33209   0.62083   0.00000  Uiso   1.00
O485   O     0.04371   0.35678   0.64125   0.00000  Uiso   1.00
O486   O     0.49346   0.35114   0.58861   0.00000  Uiso   1.00
N487   N     0.48442   0.33209   0.37917   0.00000  Uiso   1.00
O488   O     0.45630   0.35678   0.35874   0.00000  Uiso   1.00
O489   O     0.00653   0.35114   0.41139   0.00000  Uiso   1.00
N490   N     0.48442   0.16791   0.62083   0.00000  Uiso   1.00
O491   O     0.45630   0.14321   0.64126   0.00000  Uiso   1.00
O492   O     0.00653   0.14886   0.58860   0.00000  Uiso   1.00
N493   N     0.23442   0.41791   0.37917   0.00000  Uiso   1.00
O494   O     0.25653   0.39886   0.41140   0.00000  Uiso   1.00
O495   O     0.20630   0.39321   0.35875   0.00000  Uiso   1.00
N496   N     0.23442   0.08209   0.62083   0.00000  Uiso   1.00
O497   O     0.25653   0.10114   0.58860   0.00000  Uiso   1.00
O498   O     0.20630   0.10679   0.64125   0.00000  Uiso   1.00
N499   N     0.26558   0.08209   0.37917   0.00000  Uiso   1.00
O500   O     0.24347   0.10114   0.41140   0.00000  Uiso   1.00
O501   O     0.29370   0.10679   0.35874   0.00000  Uiso   1.00
N502   N     0.26558   0.41791   0.62083   0.00000  Uiso   1.00
O503   O     0.24347   0.39887   0.58860   0.00000  Uiso   1.00
O504   O     0.29370   0.39321   0.64126   0.00000  Uiso   1.00
Cl505  Cl    0.40240   0.16117   0.40123   0.00000  Uiso   1.00
Cl506  Cl    0.11595   0.31385   0.58994   0.00000  Uiso   1.00
Cl507  Cl    0.09760   0.33883   0.40123   0.00000  Uiso   1.00
Cl508  Cl    0.38405   0.18615   0.58994   0.00000  Uiso   1.00
Cl509  Cl    0.09760   0.16117   0.59877   0.00000  Uiso   1.00
Cl510  Cl    0.38405   0.31385   0.41006   0.00000  Uiso   1.00
Cl511  Cl    0.40239   0.33882   0.59877   0.00000  Uiso   1.00
Cl512  Cl    0.11595   0.18615   0.41006   0.00000  Uiso   1.00
Cl513  Cl    0.13405   0.43615   0.41006   0.00000  Uiso   1.00
Cl514  Cl    0.34760   0.08883   0.59877   0.00000  Uiso   1.00
Cl515  Cl    0.36595   0.06385   0.41006   0.00000  Uiso   1.00
Cl516  Cl    0.15240   0.41117   0.59877   0.00000  Uiso   1.00
Cl517  Cl    0.36595   0.43614   0.58994   0.00000  Uiso   1.00
Cl518  Cl    0.15240   0.08883   0.40123   0.00000  Uiso   1.00
Cl519  Cl    0.13405   0.06385   0.58994   0.00000  Uiso   1.00
Cl520  Cl    0.34760   0.41117   0.40123   0.00000  Uiso   1.00
O521   O     0.54508   0.20491   0.53958   0.00000  Uiso   1.00
O522   O     0.95491   0.29509   0.46042   0.00000  Uiso   1.00
O523   O     0.95491   0.29509   0.53958   0.00000  Uiso   1.00
O524   O     0.54508   0.20491   0.46042   0.00000  Uiso   1.00
O525   O     0.95491   0.20491   0.46042   0.00000  Uiso   1.00
O526   O     0.54508   0.29509   0.53958   0.00000  Uiso   1.00
O527   O     0.54508   0.29509   0.46042   0.00000  Uiso   1.00
O528   O     0.95491   0.20491   0.53958   0.00000  Uiso   1.00
O529   O     0.79508   0.45491   0.53958   0.00000  Uiso   1.00
O530   O     0.70491   0.04509   0.46042   0.00000  Uiso   1.00
O531   O     0.70491   0.04509   0.53958   0.00000  Uiso   1.00
O532   O     0.79508   0.45491   0.46042   0.00000  Uiso   1.00
O533   O     0.70491   0.45491   0.46042   0.00000  Uiso   1.00
O534   O     0.79508   0.04509   0.53958   0.00000  Uiso   1.00
O535   O     0.79508   0.04509   0.46042   0.00000  Uiso   1.00
O536   O     0.70491   0.45491   0.53958   0.00000  Uiso   1.00
C537   C     0.56139   0.19293   0.50024   0.00000  Uiso   1.00
C538   C     0.93861   0.30706   0.50024   0.00000  Uiso   1.00
C539   C     0.93861   0.19293   0.49976   0.00000  Uiso   1.00
C540   C     0.56139   0.30706   0.49976   0.00000  Uiso   1.00
C541   C     0.81139   0.44293   0.49976   0.00000  Uiso   1.00
C542   C     0.68861   0.05707   0.49976   0.00000  Uiso   1.00
C543   C     0.68861   0.44293   0.50024   0.00000  Uiso   1.00
C544   C     0.81139   0.05707   0.50024   0.00000  Uiso   1.00
N545   N     0.50000   0.25000   0.61736   0.00000  Uiso   1.00
N546   N     0.50000   0.25000   0.38264   0.00000  Uiso   1.00
N547   N     0.75000   0.00000   0.61736   0.00000  Uiso   1.00
N548   N     0.75000   0.00000   0.38264   0.00000  Uiso   1.00
Cu549  Cu    0.50000   0.25000   0.54689   0.00000  Uiso   1.00
Cu550  Cu    0.50000   0.25000   0.45311   0.00000  Uiso   1.00
Cu551  Cu    0.75000   0.00000   0.54689   0.00000  Uiso   1.00
Cu552  Cu    0.75000   0.00000   0.45311   0.00000  Uiso   1.00
C553   C     0.50291   0.21000   0.35777   0.00000  Uiso   1.00
C554   C     0.50291   0.29000   0.64223   0.00000  Uiso   1.00
C555   C     0.99709   0.29000   0.35777   0.00000  Uiso   1.00
C556   C     0.99709   0.21000   0.64223   0.00000  Uiso   1.00
C557   C     0.74709   0.46000   0.35777   0.00000  Uiso   1.00
C558   C     0.74709   0.04000   0.64223   0.00000  Uiso   1.00
C559   C     0.75291   0.04000   0.35777   0.00000  Uiso   1.00
C560   C     0.75291   0.46000   0.64223   0.00000  Uiso   1.00
C561   C     0.89161   0.13897   0.45726   0.00000  Uiso   1.00
C562   C     0.61663   0.35042   0.54083   0.00000  Uiso   1.00
C563   C     0.60839   0.36103   0.45726   0.00000  Uiso   1.00
C564   C     0.88337   0.14958   0.54083   0.00000  Uiso   1.00
C565   C     0.60839   0.13897   0.54274   0.00000  Uiso   1.00
C566   C     0.88337   0.35042   0.45917   0.00000  Uiso   1.00
C567   C     0.89161   0.36103   0.54274   0.00000  Uiso   1.00
C568   C     0.61663   0.14958   0.45917   0.00000  Uiso   1.00
C569   C     0.63337   0.39958   0.45917   0.00000  Uiso   1.00
C570   C     0.85839   0.11103   0.54274   0.00000  Uiso   1.00
C571   C     0.86663   0.10042   0.45917   0.00000  Uiso   1.00
C572   C     0.64161   0.38897   0.54274   0.00000  Uiso   1.00
C573   C     0.86663   0.39958   0.54083   0.00000  Uiso   1.00
C574   C     0.64161   0.11103   0.45726   0.00000  Uiso   1.00
C575   C     0.63337   0.10042   0.54083   0.00000  Uiso   1.00
C576   C     0.85839   0.38897   0.45726   0.00000  Uiso   1.00
C577   C     0.59684   0.33860   0.49892   0.00000  Uiso   1.00
C578   C     0.90317   0.16140   0.49892   0.00000  Uiso   1.00
C579   C     0.90316   0.33860   0.50108   0.00000  Uiso   1.00
C580   C     0.59683   0.16140   0.50108   0.00000  Uiso   1.00
C581   C     0.84683   0.08860   0.50108   0.00000  Uiso   1.00
C582   C     0.65317   0.41139   0.50108   0.00000  Uiso   1.00
C583   C     0.65316   0.08860   0.49892   0.00000  Uiso   1.00
C584   C     0.84683   0.41139   0.49892   0.00000  Uiso   1.00
N585   N     0.51558   0.16791   0.37917   0.00000  Uiso   1.00
O586   O     0.54370   0.14321   0.35874   0.00000  Uiso   1.00
O587   O     0.99347   0.14886   0.41140   0.00000  Uiso   1.00
N588   N     0.51558   0.33209   0.62083   0.00000  Uiso   1.00
O589   O     0.54371   0.35678   0.64125   0.00000  Uiso   1.00
O590   O     0.99346   0.35114   0.58861   0.00000  Uiso   1.00
N591   N     0.98442   0.33209   0.37917   0.00000  Uiso   1.00
O592   O     0.95630   0.35678   0.35874   0.00000  Uiso   1.00
O593   O     0.50653   0.35114   0.41139   0.00000  Uiso   1.00
N594   N     0.98442   0.16791   0.62083   0.00000  Uiso   1.00
O595   O     0.95630   0.14321   0.64126   0.00000  Uiso   1.00
O596   O     0.50653   0.14886   0.58860   0.00000  Uiso   1.00
N597   N     0.73442   0.41791   0.37917   0.00000  Uiso   1.00
O598   O     0.75653   0.39886   0.41140   0.00000  Uiso   1.00
O599   O     0.70630   0.39321   0.35875   0.00000  Uiso   1.00
N600   N     0.73442   0.08209   0.62083   0.00000  Uiso   1.00
O601   O     0.75653   0.10114   0.58860   0.00000  Uiso   1.00
O602   O     0.70630   0.10679   0.64125   0.00000  Uiso   1.00
N603   N     0.76558   0.08209   0.37917   0.00000  Uiso   1.00
O604   O     0.74347   0.10114   0.41140   0.00000  Uiso   1.00
O605   O     0.79370   0.10679   0.35874   0.00000  Uiso   1.00
N606   N     0.76558   0.41791   0.62083   0.00000  Uiso   1.00
O607   O     0.74347   0.39887   0.58860   0.00000  Uiso   1.00
O608   O     0.79370   0.39321   0.64126   0.00000  Uiso   1.00
Cl609  Cl    0.90240   0.16117   0.40123   0.00000  Uiso   1.00
Cl610  Cl    0.61595   0.31385   0.58994   0.00000  Uiso   1.00
Cl611  Cl    0.59760   0.33883   0.40123   0.00000  Uiso   1.00
Cl612  Cl    0.88405   0.18615   0.58994   0.00000  Uiso   1.00
Cl613  Cl    0.59760   0.16117   0.59877   0.00000  Uiso   1.00
Cl614  Cl    0.88405   0.31385   0.41006   0.00000  Uiso   1.00
Cl615  Cl    0.90239   0.33882   0.59877   0.00000  Uiso   1.00
Cl616  Cl    0.61595   0.18615   0.41006   0.00000  Uiso   1.00
Cl617  Cl    0.63405   0.43615   0.41006   0.00000  Uiso   1.00
Cl618  Cl    0.84760   0.08883   0.59877   0.00000  Uiso   1.00
Cl619  Cl    0.86595   0.06385   0.41006   0.00000  Uiso   1.00
Cl620  Cl    0.65240   0.41117   0.59877   0.00000  Uiso   1.00
Cl621  Cl    0.86595   0.43614   0.58994   0.00000  Uiso   1.00
Cl622  Cl    0.65240   0.08883   0.40123   0.00000  Uiso   1.00
Cl623  Cl    0.63405   0.06385   0.58994   0.00000  Uiso   1.00
Cl624  Cl    0.84760   0.41117   0.40123   0.00000  Uiso   1.00
O625   O     0.04508   0.70491   0.53958   0.00000  Uiso   1.00
O626   O     0.45491   0.79509   0.46042   0.00000  Uiso   1.00
O627   O     0.45491   0.79509   0.53958   0.00000  Uiso   1.00
O628   O     0.04508   0.70491   0.46042   0.00000  Uiso   1.00
O629   O     0.45491   0.70491   0.46042   0.00000  Uiso   1.00
O630   O     0.04508   0.79509   0.53958   0.00000  Uiso   1.00
O631   O     0.04508   0.79509   0.46042   0.00000  Uiso   1.00
O632   O     0.45491   0.70491   0.53958   0.00000  Uiso   1.00
O633   O     0.29508   0.95491   0.53958   0.00000  Uiso   1.00
O634   O     0.20491   0.54509   0.46042   0.00000  Uiso   1.00
O635   O     0.20491   0.54509   0.53958   0.00000  Uiso   1.00
O636   O     0.29508   0.95491   0.46042   0.00000  Uiso   1.00
O637   O     0.20491   0.95491   0.46042   0.00000  Uiso   1.00
O638   O     0.29508   0.54509   0.53958   0.00000  Uiso   1.00
O639   O     0.29508   0.54509   0.46042   0.00000  Uiso   1.00
O640   O     0.20491   0.95491   0.53958   0.00000  Uiso   1.00
C641   C     0.06139   0.69293   0.50024   0.00000  Uiso   1.00
C642   C     0.43861   0.80706   0.50024   0.00000  Uiso   1.00
C643   C     0.43861   0.69293   0.49976   0.00000  Uiso   1.00
C644   C     0.06139   0.80706   0.49976   0.00000  Uiso   1.00
C645   C     0.31139   0.94293   0.49976   0.00000  Uiso   1.00
C646   C     0.18861   0.55707   0.49976   0.00000  Uiso   1.00
C647   C     0.18861   0.94293   0.50024   0.00000  Uiso   1.00
C648   C     0.31139   0.55707   0.50024   0.00000  Uiso   1.00
N649   N     0.00000   0.75000   0.61736   0.00000  Uiso   1.00
N650   N     0.00000   0.75000   0.38264   0.00000  Uiso   1.00
N651   N     0.25000   0.50000   0.61736   0.00000  Uiso   1.00
N652   N     0.25000   0.50000   0.38264   0.00000  Uiso   1.00
Cu653  Cu    0.00000   0.75000   0.54689   0.00000  Uiso   1.00
Cu654  Cu   -0.00000   0.75000   0.45311   0.00000  Uiso   1.00
Cu655  Cu    0.25000   0.50000   0.54689   0.00000  Uiso   1.00
Cu656  Cu    0.25000   0.50000   0.45311   0.00000  Uiso   1.00
C657   C     0.00291   0.71000   0.35777   0.00000  Uiso   1.00
C658   C     0.00291   0.79000   0.64223   0.00000  Uiso   1.00
C659   C     0.49709   0.79000   0.35777   0.00000  Uiso   1.00
C660   C     0.49709   0.71000   0.64223   0.00000  Uiso   1.00
C661   C     0.24709   0.96000   0.35777   0.00000  Uiso   1.00
C662   C     0.24709   0.54000   0.64223   0.00000  Uiso   1.00
C663   C     0.25291   0.54000   0.35777   0.00000  Uiso   1.00
C664   C     0.25291   0.96000   0.64223   0.00000  Uiso   1.00
C665   C     0.39161   0.63897   0.45726   0.00000  Uiso   1.00
C666   C     0.11663   0.85042   0.54083   0.00000  Uiso   1.00
C667   C     0.10839   0.86103   0.45726   0.00000  Uiso   1.00
C668   C     0.38337   0.64958   0.54083   0.00000  Uiso   1.00
C669   C     0.10839   0.63897   0.54274   0.00000  Uiso   1.00
C670   C     0.38337   0.85042   0.45917   0.00000  Uiso   1.00
C671   C     0.39161   0.86103   0.54274   0.00000  Uiso   1.00
C672   C     0.11663   0.64958   0.45917   0.00000  Uiso   1.00
C673   C     0.13337   0.89958   0.45917   0.00000  Uiso   1.00
C674   C     0.35839   0.61103   0.54274   0.00000  Uiso   1.00
C675   C     0.36663   0.60042   0.45917   0.00000  Uiso   1.00
C676   C     0.14161   0.88897   0.54274   0.00000  Uiso   1.00
C677   C     0.36663   0.89958   0.54083   0.00000  Uiso   1.00
C678   C     0.14161   0.61103   0.45726   0.00000  Uiso   1.00
C679   C     0.13337   0.60042   0.54083   0.00000  Uiso   1.00
C680   C     0.35839   0.88897   0.45726   0.00000  Uiso   1.00
C681   C     0.09684   0.83860   0.49892   0.00000  Uiso   1.00
C682   C     0.40317   0.66140   0.49892   0.00000  Uiso   1.00
C683   C     0.40316   0.83860   0.50108   0.00000  Uiso   1.00
C684   C     0.09683   0.66140   0.50108   0.00000  Uiso   1.00
C685   C     0.34683   0.58860   0.50108   0.00000  Uiso   1.00
C686   C     0.15317   0.91139   0.50108   0.00000  Uiso   1.00
C687   C     0.15316   0.58860   0.49892   0.00000  Uiso   1.00
C688   C     0.34683   0.91139   0.49892   0.00000  Uiso   1.00
N689   N     0.01558   0.66791   0.37917   0.00000  Uiso   1.00
O690   O     0.04370   0.64321   0.35874   0.00000  Uiso   1.00
O691   O     0.49347   0.64886   0.41140   0.00000  Uiso   1.00
N692   N     0.01558   0.83209   0.62083   0.00000  Uiso   1.00
O693   O     0.04371   0.85678   0.64125   0.00000  Uiso   1.00
O694   O     0.49346   0.85114   0.58861   0.00000  Uiso   1.00
N695   N     0.48442   0.83209   0.37917   0.00000  Uiso   1.00
O696   O     0.45630   0.85678   0.35874   0.00000  Uiso   1.00
O697   O     0.00653   0.85114   0.41139   0.00000  Uiso   1.00
N698   N     0.48442   0.66791   0.62083   0.00000  Uiso   1.00
O699   O     0.45630   0.64321   0.64126   0.00000  Uiso   1.00
O700   O     0.00653   0.64886   0.58860   0.00000  Uiso   1.00
N701   N     0.23442   0.91791   0.37917   0.00000  Uiso   1.00
O702   O     0.25653   0.89886   0.41140   0.00000  Uiso   1.00
O703   O     0.20630   0.89321   0.35875   0.00000  Uiso   1.00
N704   N     0.23442   0.58209   0.62083   0.00000  Uiso   1.00
O705   O     0.25653   0.60114   0.58860   0.00000  Uiso   1.00
O706   O     0.20630   0.60679   0.64125   0.00000  Uiso   1.00
N707   N     0.26558   0.58209   0.37917   0.00000  Uiso   1.00
O708   O     0.24347   0.60114   0.41140   0.00000  Uiso   1.00
O709   O     0.29370   0.60679   0.35874   0.00000  Uiso   1.00
N710   N     0.26558   0.91791   0.62083   0.00000  Uiso   1.00
O711   O     0.24347   0.89887   0.58860   0.00000  Uiso   1.00
O712   O     0.29370   0.89321   0.64126   0.00000  Uiso   1.00
Cl713  Cl    0.40240   0.66117   0.40123   0.00000  Uiso   1.00
Cl714  Cl    0.11595   0.81385   0.58994   0.00000  Uiso   1.00
Cl715  Cl    0.09760   0.83883   0.40123   0.00000  Uiso   1.00
Cl716  Cl    0.38405   0.68615   0.58994   0.00000  Uiso   1.00
Cl717  Cl    0.09760   0.66117   0.59877   0.00000  Uiso   1.00
Cl718  Cl    0.38405   0.81385   0.41006   0.00000  Uiso   1.00
Cl719  Cl    0.40239   0.83882   0.59877   0.00000  Uiso   1.00
Cl720  Cl    0.11595   0.68615   0.41006   0.00000  Uiso   1.00
Cl721  Cl    0.13405   0.93615   0.41006   0.00000  Uiso   1.00
Cl722  Cl    0.34760   0.58883   0.59877   0.00000  Uiso   1.00
Cl723  Cl    0.36595   0.56385   0.41006   0.00000  Uiso   1.00
Cl724  Cl    0.15240   0.91117   0.59877   0.00000  Uiso   1.00
Cl725  Cl    0.36595   0.93614   0.58994   0.00000  Uiso   1.00
Cl726  Cl    0.15240   0.58883   0.40123   0.00000  Uiso   1.00
Cl727  Cl    0.13405   0.56385   0.58994   0.00000  Uiso   1.00
Cl728  Cl    0.34760   0.91117   0.40123   0.00000  Uiso   1.00
O729   O     0.54508   0.70491   0.53958   0.00000  Uiso   1.00
O730   O     0.95491   0.79509   0.46042   0.00000  Uiso   1.00
O731   O     0.95491   0.79509   0.53958   0.00000  Uiso   1.00
O732   O     0.54508   0.70491   0.46042   0.00000  Uiso   1.00
O733   O     0.95491   0.70491   0.46042   0.00000  Uiso   1.00
O734   O     0.54508   0.79509   0.53958   0.00000  Uiso   1.00
O735   O     0.54508   0.79509   0.46042   0.00000  Uiso   1.00
O736   O     0.95491   0.70491   0.53958   0.00000  Uiso   1.00
O737   O     0.79508   0.95491   0.53958   0.00000  Uiso   1.00
O738   O     0.70491   0.54509   0.46042   0.00000  Uiso   1.00
O739   O     0.70491   0.54509   0.53958   0.00000  Uiso   1.00
O740   O     0.79508   0.95491   0.46042   0.00000  Uiso   1.00
O741   O     0.70491   0.95491   0.46042   0.00000  Uiso   1.00
O742   O     0.79508   0.54509   0.53958   0.00000  Uiso   1.00
O743   O     0.79508   0.54509   0.46042   0.00000  Uiso   1.00
O744   O     0.70491   0.95491   0.53958   0.00000  Uiso   1.00
C745   C     0.56139   0.69293   0.50024   0.00000  Uiso   1.00
C746   C     0.93861   0.80706   0.50024   0.00000  Uiso   1.00
C747   C     0.93861   0.69293   0.49976   0.00000  Uiso   1.00
C748   C     0.56139   0.80706   0.49976   0.00000  Uiso   1.00
C749   C     0.81139   0.94293   0.49976   0.00000  Uiso   1.00
C750   C     0.68861   0.55707   0.49976   0.00000  Uiso   1.00
C751   C     0.68861   0.94293   0.50024   0.00000  Uiso   1.00
C752   C     0.81139   0.55707   0.50024   0.00000  Uiso   1.00
N753   N     0.50000   0.75000   0.61736   0.00000  Uiso   1.00
N754   N     0.50000   0.75000   0.38264   0.00000  Uiso   1.00
N755   N     0.75000   0.50000   0.61736   0.00000  Uiso   1.00
N756   N     0.75000   0.50000   0.38264   0.00000  Uiso   1.00
Cu757  Cu    0.50000   0.75000   0.54689   0.00000  Uiso   1.00
Cu758  Cu    0.50000   0.75000   0.45311   0.00000  Uiso   1.00
Cu759  Cu    0.75000   0.50000   0.54689   0.00000  Uiso   1.00
Cu760  Cu    0.75000   0.50000   0.45311   0.00000  Uiso   1.00
C761   C     0.50291   0.71000   0.35777   0.00000  Uiso   1.00
C762   C     0.50291   0.79000   0.64223   0.00000  Uiso   1.00
C763   C     0.99709   0.79000   0.35777   0.00000  Uiso   1.00
C764   C     0.99709   0.71000   0.64223   0.00000  Uiso   1.00
C765   C     0.74709   0.96000   0.35777   0.00000  Uiso   1.00
C766   C     0.74709   0.54000   0.64223   0.00000  Uiso   1.00
C767   C     0.75291   0.54000   0.35777   0.00000  Uiso   1.00
C768   C     0.75291   0.96000   0.64223   0.00000  Uiso   1.00
C769   C     0.89161   0.63897   0.45726   0.00000  Uiso   1.00
C770   C     0.61663   0.85042   0.54083   0.00000  Uiso   1.00
C771   C     0.60839   0.86103   0.45726   0.00000  Uiso   1.00
C772   C     0.88337   0.64958   0.54083   0.00000  Uiso   1.00
C773   C     0.60839   0.63897   0.54274   0.00000  Uiso   1.00
C774   C     0.88337   0.85042   0.45917   0.00000  Uiso   1.00
C775   C     0.89161   0.86103   0.54274   0.00000  Uiso   1.00
C776   C     0.61663   0.64958   0.45917   0.00000  Uiso   1.00
C777   C     0.63337   0.89958   0.45917   0.00000  Uiso   1.00
C778   C     0.85839   0.61103   0.54274   0.00000  Uiso   1.00
C779   C     0.86663   0.60042   0.45917   0.00000  Uiso   1.00
C780   C     0.64161   0.88897   0.54274   0.00000  Uiso   1.00
C781   C     0.86663   0.89958   0.54083   0.00000  Uiso   1.00
C782   C     0.64161   0.61103   0.45726   0.00000  Uiso   1.00
C783   C     0.63337   0.60042   0.54083   0.00000  Uiso   1.00
C784   C     0.85839   0.88897   0.45726   0.00000  Uiso   1.00
C785   C     0.59684   0.83860   0.49892   0.00000  Uiso   1.00
C786   C     0.90317   0.66140   0.49892   0.00000  Uiso   1.00
C787   C     0.90316   0.83860   0.50108   0.00000  Uiso   1.00
C788   C     0.59683   0.66140   0.50108   0.00000  Uiso   1.00
C789   C     0.84683   0.58860   0.50108   0.00000  Uiso   1.00
C790   C     0.65317   0.91139   0.50108   0.00000  Uiso   1.00
C791   C     0.65316   0.58860   0.49892   0.00000  Uiso   1.00
C792   C     0.84683   0.91139   0.49892   0.00000  Uiso   1.00
N793   N     0.51558   0.66791   0.37917   0.00000  Uiso   1.00
O794   O     0.54370   0.64321   0.35874   0.00000  Uiso   1.00
O795   O     0.99347   0.64886   0.41140   0.00000  Uiso   1.00
N796   N     0.51558   0.83209   0.62083   0.00000  Uiso   1.00
O797   O     0.54371   0.85678   0.64125   0.00000  Uiso   1.00
O798   O     0.99346   0.85114   0.58861   0.00000  Uiso   1.00
N799   N     0.98442   0.83209   0.37917   0.00000  Uiso   1.00
O800   O     0.95630   0.85678   0.35874   0.00000  Uiso   1.00
O801   O     0.50653   0.85114   0.41139   0.00000  Uiso   1.00
N802   N     0.98442   0.66791   0.62083   0.00000  Uiso   1.00
O803   O     0.95630   0.64321   0.64126   0.00000  Uiso   1.00
O804   O     0.50653   0.64886   0.58860   0.00000  Uiso   1.00
N805   N     0.73442   0.91791   0.37917   0.00000  Uiso   1.00
O806   O     0.75653   0.89886   0.41140   0.00000  Uiso   1.00
O807   O     0.70630   0.89321   0.35875   0.00000  Uiso   1.00
N808   N     0.73442   0.58209   0.62083   0.00000  Uiso   1.00
O809   O     0.75653   0.60114   0.58860   0.00000  Uiso   1.00
O810   O     0.70630   0.60679   0.64125   0.00000  Uiso   1.00
N811   N     0.76558   0.58209   0.37917   0.00000  Uiso   1.00
O812   O     0.74347   0.60114   0.41140   0.00000  Uiso   1.00
O813   O     0.79370   0.60679   0.35874   0.00000  Uiso   1.00
N814   N     0.76558   0.91791   0.62083   0.00000  Uiso   1.00
O815   O     0.74347   0.89887   0.58860   0.00000  Uiso   1.00
O816   O     0.79370   0.89321   0.64126   0.00000  Uiso   1.00
Cl817  Cl    0.90240   0.66117   0.40123   0.00000  Uiso   1.00
Cl818  Cl    0.61595   0.81385   0.58994   0.00000  Uiso   1.00
Cl819  Cl    0.59760   0.83883   0.40123   0.00000  Uiso   1.00
Cl820  Cl    0.88405   0.68615   0.58994   0.00000  Uiso   1.00
Cl821  Cl    0.59760   0.66117   0.59877   0.00000  Uiso   1.00
Cl822  Cl    0.88405   0.81385   0.41006   0.00000  Uiso   1.00
Cl823  Cl    0.90239   0.83882   0.59877   0.00000  Uiso   1.00
Cl824  Cl    0.61595   0.68615   0.41006   0.00000  Uiso   1.00
Cl825  Cl    0.63405   0.93615   0.41006   0.00000  Uiso   1.00
Cl826  Cl    0.84760   0.58883   0.59877   0.00000  Uiso   1.00
Cl827  Cl    0.86595   0.56385   0.41006   0.00000  Uiso   1.00
Cl828  Cl    0.65240   0.91117   0.59877   0.00000  Uiso   1.00
Cl829  Cl    0.86595   0.93614   0.58994   0.00000  Uiso   1.00
Cl830  Cl    0.65240   0.58883   0.40123   0.00000  Uiso   1.00
Cl831  Cl    0.63405   0.56385   0.58994   0.00000  Uiso   1.00
Cl832  Cl    0.84760   0.91117   0.40123   0.00000  Uiso   1.00
O833   O     0.04508   0.20491   0.87291   0.00000  Uiso   1.00
O834   O     0.45491   0.29509   0.79375   0.00000  Uiso   1.00
O835   O     0.45491   0.29509   0.87291   0.00000  Uiso   1.00
O836   O     0.04508   0.20491   0.79375   0.00000  Uiso   1.00
O837   O     0.45491   0.20491   0.79375   0.00000  Uiso   1.00
O838   O     0.04508   0.29509   0.87291   0.00000  Uiso   1.00
O839   O     0.04508   0.29509   0.79375   0.00000  Uiso   1.00
O840   O     0.45491   0.20491   0.87291   0.00000  Uiso   1.00
O841   O     0.29508   0.45491   0.87291   0.00000  Uiso   1.00
O842   O     0.20491   0.04509   0.79375   0.00000  Uiso   1.00
O843   O     0.20491   0.04509   0.87291   0.00000  Uiso   1.00
O844   O     0.29508   0.45491   0.79375   0.00000  Uiso   1.00
O845   O     0.20491   0.45491   0.79375   0.00000  Uiso   1.00
O846   O     0.29508   0.04509   0.87291   0.00000  Uiso   1.00
O847   O     0.29508   0.04509   0.79375   0.00000  Uiso   1.00
O848   O     0.20491   0.45491   0.87291   0.00000  Uiso   1.00
C849   C     0.06139   0.19293   0.83358   0.00000  Uiso   1.00
C850   C     0.43861   0.30706   0.83358   0.00000  Uiso   1.00
C851   C     0.43861   0.19293   0.83309   0.00000  Uiso   1.00
C852   C     0.06139   0.30706   0.83309   0.00000  Uiso   1.00
C853   C     0.31139   0.44293   0.83309   0.00000  Uiso   1.00
C854   C     0.18861   0.05707   0.83309   0.00000  Uiso   1.00
C855   C     0.18861   0.44293   0.83358   0.00000  Uiso   1.00
C856   C     0.31139   0.05707   0.83358   0.00000  Uiso   1.00
N857   N     0.00000   0.25000   0.95069   0.00000  Uiso   1.00
N858   N     0.00000   0.25000   0.71598   0.00000  Uiso   1.00
N859   N     0.25000   0.00000   0.95069   0.00000  Uiso   1.00
N860   N     0.25000   0.00000   0.71598   0.00000  Uiso   1.00
Cu861  Cu    0.00000   0.25000   0.88022   0.00000  Uiso   1.00
Cu862  Cu   -0.00000   0.25000   0.78645   0.00000  Uiso   1.00
Cu863  Cu    0.25000   0.00000   0.88022   0.00000  Uiso   1.00
Cu864  Cu    0.25000   0.00000   0.78645   0.00000  Uiso   1.00
C865   C     0.00291   0.21000   0.69111   0.00000  Uiso   1.00
C866   C     0.00291   0.29000   0.97556   0.00000  Uiso   1.00
C867   C     0.49709   0.29000   0.69111   0.00000  Uiso   1.00
C868   C     0.49709   0.21000   0.97556   0.00000  Uiso   1.00
C869   C     0.24709   0.46000   0.69111   0.00000  Uiso   1.00
C870   C     0.24709   0.04000   0.97556   0.00000  Uiso   1.00
C871   C     0.25291   0.04000   0.69111   0.00000  Uiso   1.00
C872   C     0.25291   0.46000   0.97556   0.00000  Uiso   1.00
C873   C     0.39161   0.13897   0.79059   0.00000  Uiso   1.00
C874   C     0.11663   0.35042   0.87416   0.00000  Uiso   1.00
C875   C     0.10839   0.36103   0.79059   0.00000  Uiso   1.00
C876   C     0.38337   0.14958   0.87416   0.00000  Uiso   1.00
C877   C     0.10839   0.13897   0.87607   0.00000  Uiso   1.00
C878   C     0.38337   0.35042   0.79250   0.00000  Uiso   1.00
C879   C     0.39161   0.36103   0.87607   0.00000  Uiso   1.00
C880   C     0.11663   0.14958   0.79250   0.00000  Uiso   1.00
C881   C     0.13337   0.39958   0.79251   0.00000  Uiso   1.00
C882   C     0.35839   0.11103   0.87607   0.00000  Uiso   1.00
C883   C     0.36663   0.10042   0.79250   0.00000  Uiso   1.00
C884   C     0.14161   0.38897   0.87607   0.00000  Uiso   1.00
C885   C     0.36663   0.39958   0.87416   0.00000  Uiso   1.00
C886   C     0.14161   0.11103   0.79059   0.00000  Uiso   1.00
C887   C     0.13337   0.10042   0.87416   0.00000  Uiso   1.00
C888   C     0.35839   0.38897   0.79059   0.00000  Uiso   1.00
C889   C     0.09684   0.33860   0.83225   0.00000  Uiso   1.00
C890   C     0.40317   0.16140   0.83225   0.00000  Uiso   1.00
C891   C     0.40316   0.33860   0.83441   0.00000  Uiso   1.00
C892   C     0.09683   0.16140   0.83441   0.00000  Uiso   1.00
C893   C     0.34683   0.08860   0.83441   0.00000  Uiso   1.00
C894   C     0.15317   0.41139   0.83441   0.00000  Uiso   1.00
C895   C     0.15316   0.08860   0.83225   0.00000  Uiso   1.00
C896   C     0.34683   0.41139   0.83225   0.00000  Uiso   1.00
N897   N     0.01558   0.16791   0.71250   0.00000  Uiso   1.00
O898   O     0.04370   0.14321   0.69208   0.00000  Uiso   1.00
O899   O     0.49347   0.14886   0.74473   0.00000  Uiso   1.00
N900   N     0.01558   0.33209   0.95416   0.00000  Uiso   1.00
O901   O     0.04371   0.35678   0.97458   0.00000  Uiso   1.00
O902   O     0.49346   0.35114   0.92194   0.00000  Uiso   1.00
N903   N     0.48442   0.33209   0.71250   0.00000  Uiso   1.00
O904   O     0.45630   0.35678   0.69208   0.00000  Uiso   1.00
O905   O     0.00653   0.35114   0.74473   0.00000  Uiso   1.00
N906   N     0.48442   0.16791   0.95416   0.00000  Uiso   1.00
O907   O     0.45630   0.14321   0.97459   0.00000  Uiso   1.00
O908   O     0.00653   0.14886   0.92194   0.00000  Uiso   1.00
N909   N     0.23442   0.41791   0.71250   0.00000  Uiso   1.00
O910   O     0.25653   0.39886   0.74473   0.00000  Uiso   1.00
O911   O     0.20630   0.39321   0.69208   0.00000  Uiso   1.00
N912   N     0.23442   0.08209   0.95416   0.00000  Uiso   1.00
O913   O     0.25653   0.10114   0.92194   0.00000  Uiso   1.00
O914   O     0.20630   0.10679   0.97459   0.00000  Uiso   1.00
N915   N     0.26558   0.08209   0.71250   0.00000  Uiso   1.00
O916   O     0.24347   0.10114   0.74473   0.00000  Uiso   1.00
O917   O     0.29370   0.10679   0.69208   0.00000  Uiso   1.00
N918   N     0.26558   0.41791   0.95416   0.00000  Uiso   1.00
O919   O     0.24347   0.39887   0.92193   0.00000  Uiso   1.00
O920   O     0.29370   0.39321   0.97459   0.00000  Uiso   1.00
Cl921  Cl    0.40240   0.16117   0.73457   0.00000  Uiso   1.00
Cl922  Cl    0.11595   0.31385   0.92327   0.00000  Uiso   1.00
Cl923  Cl    0.09760   0.33883   0.73457   0.00000  Uiso   1.00
Cl924  Cl    0.38405   0.18615   0.92327   0.00000  Uiso   1.00
Cl925  Cl    0.09760   0.16117   0.93210   0.00000  Uiso   1.00
Cl926  Cl    0.38405   0.31385   0.74339   0.00000  Uiso   1.00
Cl927  Cl    0.40239   0.33882   0.93210   0.00000  Uiso   1.00
Cl928  Cl    0.11595   0.18615   0.74340   0.00000  Uiso   1.00
Cl929  Cl    0.13405   0.43615   0.74340   0.00000  Uiso   1.00
Cl930  Cl    0.34760   0.08883   0.93210   0.00000  Uiso   1.00
Cl931  Cl    0.36595   0.06385   0.74339   0.00000  Uiso   1.00
Cl932  Cl    0.15240   0.41117   0.93210   0.00000  Uiso   1.00
Cl933  Cl    0.36595   0.43614   0.92327   0.00000  Uiso   1.00
Cl934  Cl    0.15240   0.08883   0.73457   0.00000  Uiso   1.00
Cl935  Cl    0.13405   0.06385   0.92327   0.00000  Uiso   1.00
Cl936  Cl    0.34760   0.41117   0.73457   0.00000  Uiso   1.00
O937   O     0.54508   0.20491   0.87291   0.00000  Uiso   1.00
O938   O     0.95491   0.29509   0.79375   0.00000  Uiso   1.00
O939   O     0.95491   0.29509   0.87291   0.00000  Uiso   1.00
O940   O     0.54508   0.20491   0.79375   0.00000  Uiso   1.00
O941   O     0.95491   0.20491   0.79375   0.00000  Uiso   1.00
O942   O     0.54508   0.29509   0.87291   0.00000  Uiso   1.00
O943   O     0.54508   0.29509   0.79375   0.00000  Uiso   1.00
O944   O     0.95491   0.20491   0.87291   0.00000  Uiso   1.00
O945   O     0.79508   0.45491   0.87291   0.00000  Uiso   1.00
O946   O     0.70491   0.04509   0.79375   0.00000  Uiso   1.00
O947   O     0.70491   0.04509   0.87291   0.00000  Uiso   1.00
O948   O     0.79508   0.45491   0.79375   0.00000  Uiso   1.00
O949   O     0.70491   0.45491   0.79375   0.00000  Uiso   1.00
O950   O     0.79508   0.04509   0.87291   0.00000  Uiso   1.00
O951   O     0.79508   0.04509   0.79375   0.00000  Uiso   1.00
O952   O     0.70491   0.45491   0.87291   0.00000  Uiso   1.00
C953   C     0.56139   0.19293   0.83358   0.00000  Uiso   1.00
C954   C     0.93861   0.30706   0.83358   0.00000  Uiso   1.00
C955   C     0.93861   0.19293   0.83309   0.00000  Uiso   1.00
C956   C     0.56139   0.30706   0.83309   0.00000  Uiso   1.00
C957   C     0.81139   0.44293   0.83309   0.00000  Uiso   1.00
C958   C     0.68861   0.05707   0.83309   0.00000  Uiso   1.00
C959   C     0.68861   0.44293   0.83358   0.00000  Uiso   1.00
C960   C     0.81139   0.05707   0.83358   0.00000  Uiso   1.00
N961   N     0.50000   0.25000   0.95069   0.00000  Uiso   1.00
N962   N     0.50000   0.25000   0.71598   0.00000  Uiso   1.00
N963   N     0.75000   0.00000   0.95069   0.00000  Uiso   1.00
N964   N     0.75000   0.00000   0.71598   0.00000  Uiso   1.00
Cu965  Cu    0.50000   0.25000   0.88022   0.00000  Uiso   1.00
Cu966  Cu    0.50000   0.25000   0.78645   0.00000  Uiso   1.00
Cu967  Cu    0.75000   0.00000   0.88022   0.00000  Uiso   1.00
Cu968  Cu    0.75000   0.00000   0.78645   0.00000  Uiso   1.00
C969   C     0.50291   0.21000   0.69111   0.00000  Uiso   1.00
C970   C     0.50291   0.29000   0.97556   0.00000  Uiso   1.00
C971   C     0.99709   0.29000   0.69111   0.00000  Uiso   1.00
C972   C     0.99709   0.21000   0.97556   0.00000  Uiso   1.00
C973   C     0.74709   0.46000   0.69111   0.00000  Uiso   1.00
C974   C     0.74709   0.04000   0.97556   0.00000  Uiso   1.00
C975   C     0.75291   0.04000   0.69111   0.00000  Uiso   1.00
C976   C     0.75291   0.46000   0.97556   0.00000  Uiso   1.00
C977   C     0.89161   0.13897   0.79059   0.00000  Uiso   1.00
C978   C     0.61663   0.35042   0.87416   0.00000  Uiso   1.00
C979   C     0.60839   0.36103   0.79059   0.00000  Uiso   1.00
C980   C     0.88337   0.14958   0.87416   0.00000  Uiso   1.00
C981   C     0.60839   0.13897   0.87607   0.00000  Uiso   1.00
C982   C     0.88337   0.35042   0.79250   0.00000  Uiso   1.00
C983   C     0.89161   0.36103   0.87607   0.00000  Uiso   1.00
C984   C     0.61663   0.14958   0.79250   0.00000  Uiso   1.00
C985   C     0.63337   0.39958   0.79251   0.00000  Uiso   1.00
C986   C     0.85839   0.11103   0.87607   0.00000  Uiso   1.00
C987   C     0.86663   0.10042   0.79250   0.00000  Uiso   1.00
C988   C     0.64161   0.38897   0.87607   0.00000  Uiso   1.00
C989   C     0.86663   0.39958   0.87416   0.00000  Uiso   1.00
C990   C     0.64161   0.11103   0.79059   0.00000  Uiso   1.00
C991   C     0.63337   0.10042   0.87416   0.00000  Uiso   1.00
C992   C     0.85839   0.38897   0.79059   0.00000  Uiso   1.00
C993   C     0.59684   0.33860   0.83225   0.00000  Uiso   1.00
C994   C     0.90317   0.16140   0.83225   0.00000  Uiso   1.00
C995   C     0.90316   0.33860   0.83441   0.00000  Uiso   1.00
C996   C     0.59683   0.16140   0.83441   0.00000  Uiso   1.00
C997   C     0.84683   0.08860   0.83441   0.00000  Uiso   1.00
C998   C     0.65317   0.41139   0.83441   0.00000  Uiso   1.00
C999   C     0.65316   0.08860   0.83225   0.00000  Uiso   1.00
C1000  C     0.84683   0.41139   0.83225   0.00000  Uiso   1.00
N1001  N     0.51558   0.16791   0.71250   0.00000  Uiso   1.00
O1002  O     0.54370   0.14321   0.69208   0.00000  Uiso   1.00
O1003  O     0.99347   0.14886   0.74473   0.00000  Uiso   1.00
N1004  N     0.51558   0.33209   0.95416   0.00000  Uiso   1.00
O1005  O     0.54371   0.35678   0.97458   0.00000  Uiso   1.00
O1006  O     0.99346   0.35114   0.92194   0.00000  Uiso   1.00
N1007  N     0.98442   0.33209   0.71250   0.00000  Uiso   1.00
O1008  O     0.95630   0.35678   0.69208   0.00000  Uiso   1.00
O1009  O     0.50653   0.35114   0.74473   0.00000  Uiso   1.00
N1010  N     0.98442   0.16791   0.95416   0.00000  Uiso   1.00
O1011  O     0.95630   0.14321   0.97459   0.00000  Uiso   1.00
O1012  O     0.50653   0.14886   0.92194   0.00000  Uiso   1.00
N1013  N     0.73442   0.41791   0.71250   0.00000  Uiso   1.00
O1014  O     0.75653   0.39886   0.74473   0.00000  Uiso   1.00
O1015  O     0.70630   0.39321   0.69208   0.00000  Uiso   1.00
N1016  N     0.73442   0.08209   0.95416   0.00000  Uiso   1.00
O1017  O     0.75653   0.10114   0.92194   0.00000  Uiso   1.00
O1018  O     0.70630   0.10679   0.97459   0.00000  Uiso   1.00
N1019  N     0.76558   0.08209   0.71250   0.00000  Uiso   1.00
O1020  O     0.74347   0.10114   0.74473   0.00000  Uiso   1.00
O1021  O     0.79370   0.10679   0.69208   0.00000  Uiso   1.00
N1022  N     0.76558   0.41791   0.95416   0.00000  Uiso   1.00
O1023  O     0.74347   0.39887   0.92193   0.00000  Uiso   1.00
O1024  O     0.79370   0.39321   0.97459   0.00000  Uiso   1.00
Cl1025 Cl    0.90240   0.16117   0.73457   0.00000  Uiso   1.00
Cl1026 Cl    0.61595   0.31385   0.92327   0.00000  Uiso   1.00
Cl1027 Cl    0.59760   0.33883   0.73457   0.00000  Uiso   1.00
Cl1028 Cl    0.88405   0.18615   0.92327   0.00000  Uiso   1.00
Cl1029 Cl    0.59760   0.16117   0.93210   0.00000  Uiso   1.00
Cl1030 Cl    0.88405   0.31385   0.74339   0.00000  Uiso   1.00
Cl1031 Cl    0.90239   0.33882   0.93210   0.00000  Uiso   1.00
Cl1032 Cl    0.61595   0.18615   0.74340   0.00000  Uiso   1.00
Cl1033 Cl    0.63405   0.43615   0.74340   0.00000  Uiso   1.00
Cl1034 Cl    0.84760   0.08883   0.93210   0.00000  Uiso   1.00
Cl1035 Cl    0.86595   0.06385   0.74339   0.00000  Uiso   1.00
Cl1036 Cl    0.65240   0.41117   0.93210   0.00000  Uiso   1.00
Cl1037 Cl    0.86595   0.43614   0.92327   0.00000  Uiso   1.00
Cl1038 Cl    0.65240   0.08883   0.73457   0.00000  Uiso   1.00
Cl1039 Cl    0.63405   0.06385   0.92327   0.00000  Uiso   1.00
Cl1040 Cl    0.84760   0.41117   0.73457   0.00000  Uiso   1.00
O1041  O     0.04508   0.70491   0.87291   0.00000  Uiso   1.00
O1042  O     0.45491   0.79509   0.79375   0.00000  Uiso   1.00
O1043  O     0.45491   0.79509   0.87291   0.00000  Uiso   1.00
O1044  O     0.04508   0.70491   0.79375   0.00000  Uiso   1.00
O1045  O     0.45491   0.70491   0.79375   0.00000  Uiso   1.00
O1046  O     0.04508   0.79509   0.87291   0.00000  Uiso   1.00
O1047  O     0.04508   0.79509   0.79375   0.00000  Uiso   1.00
O1048  O     0.45491   0.70491   0.87291   0.00000  Uiso   1.00
O1049  O     0.29508   0.95491   0.87291   0.00000  Uiso   1.00
O1050  O     0.20491   0.54509   0.79375   0.00000  Uiso   1.00
O1051  O     0.20491   0.54509   0.87291   0.00000  Uiso   1.00
O1052  O     0.29508   0.95491   0.79375   0.00000  Uiso   1.00
O1053  O     0.20491   0.95491   0.79375   0.00000  Uiso   1.00
O1054  O     0.29508   0.54509   0.87291   0.00000  Uiso   1.00
O1055  O     0.29508   0.54509   0.79375   0.00000  Uiso   1.00
O1056  O     0.20491   0.95491   0.87291   0.00000  Uiso   1.00
C1057  C     0.06139   0.69293   0.83358   0.00000  Uiso   1.00
C1058  C     0.43861   0.80706   0.83358   0.00000  Uiso   1.00
C1059  C     0.43861   0.69293   0.83309   0.00000  Uiso   1.00
C1060  C     0.06139   0.80706   0.83309   0.00000  Uiso   1.00
C1061  C     0.31139   0.94293   0.83309   0.00000  Uiso   1.00
C1062  C     0.18861   0.55707   0.83309   0.00000  Uiso   1.00
C1063  C     0.18861   0.94293   0.83358   0.00000  Uiso   1.00
C1064  C     0.31139   0.55707   0.83358   0.00000  Uiso   1.00
N1065  N     0.00000   0.75000   0.95069   0.00000  Uiso   1.00
N1066  N     0.00000   0.75000   0.71598   0.00000  Uiso   1.00
N1067  N     0.25000   0.50000   0.95069   0.00000  Uiso   1.00
N1068  N     0.25000   0.50000   0.71598   0.00000  Uiso   1.00
Cu1069 Cu    0.00000   0.75000   0.88022   0.00000  Uiso   1.00
Cu1070 Cu   -0.00000   0.75000   0.78645   0.00000  Uiso   1.00
Cu1071 Cu    0.25000   0.50000   0.88022   0.00000  Uiso   1.00
Cu1072 Cu    0.25000   0.50000   0.78645   0.00000  Uiso   1.00
C1073  C     0.00291   0.71000   0.69111   0.00000  Uiso   1.00
C1074  C     0.00291   0.79000   0.97556   0.00000  Uiso   1.00
C1075  C     0.49709   0.79000   0.69111   0.00000  Uiso   1.00
C1076  C     0.49709   0.71000   0.97556   0.00000  Uiso   1.00
C1077  C     0.24709   0.96000   0.69111   0.00000  Uiso   1.00
C1078  C     0.24709   0.54000   0.97556   0.00000  Uiso   1.00
C1079  C     0.25291   0.54000   0.69111   0.00000  Uiso   1.00
C1080  C     0.25291   0.96000   0.97556   0.00000  Uiso   1.00
C1081  C     0.39161   0.63897   0.79059   0.00000  Uiso   1.00
C1082  C     0.11663   0.85042   0.87416   0.00000  Uiso   1.00
C1083  C     0.10839   0.86103   0.79059   0.00000  Uiso   1.00
C1084  C     0.38337   0.64958   0.87416   0.00000  Uiso   1.00
C1085  C     0.10839   0.63897   0.87607   0.00000  Uiso   1.00
C1086  C     0.38337   0.85042   0.79250   0.00000  Uiso   1.00
C1087  C     0.39161   0.86103   0.87607   0.00000  Uiso   1.00
C1088  C     0.11663   0.64958   0.79250   0.00000  Uiso   1.00
C1089  C     0.13337   0.89958   0.79251   0.00000  Uiso   1.00
C1090  C     0.35839   0.61103   0.87607   0.00000  Uiso   1.00
C1091  C     0.36663   0.60042   0.79250   0.00000  Uiso   1.00
C1092  C     0.14161   0.88897   0.87607   0.00000  Uiso   1.00
C1093  C     0.36663   0.89958   0.87416   0.00000  Uiso   1.00
C1094  C     0.14161   0.61103   0.79059   0.00000  Uiso   1.00
C1095  C     0.13337   0.60042   0.87416   0.00000  Uiso   1.00
C1096  C     0.35839   0.88897   0.79059   0.00000  Uiso   1.00
C1097  C     0.09684   0.83860   0.83225   0.00000  Uiso   1.00
C1098  C     0.40317   0.66140   0.83225   0.00000  Uiso   1.00
C1099  C     0.40316   0.83860   0.83441   0.00000  Uiso   1.00
C1100  C     0.09683   0.66140   0.83441   0.00000  Uiso   1.00
C1101  C     0.34683   0.58860   0.83441   0.00000  Uiso   1.00
C1102  C     0.15317   0.91139   0.83441   0.00000  Uiso   1.00
C1103  C     0.15316   0.58860   0.83225   0.00000  Uiso   1.00
C1104  C     0.34683   0.91139   0.83225   0.00000  Uiso   1.00
N1105  N     0.01558   0.66791   0.71250   0.00000  Uiso   1.00
O1106  O     0.04370   0.64321   0.69208   0.00000  Uiso   1.00
O1107  O     0.49347   0.64886   0.74473   0.00000  Uiso   1.00
N1108  N     0.01558   0.83209   0.95416   0.00000  Uiso   1.00
O1109  O     0.04371   0.85678   0.97458   0.00000  Uiso   1.00
O1110  O     0.49346   0.85114   0.92194   0.00000  Uiso   1.00
N1111  N     0.48442   0.83209   0.71250   0.00000  Uiso   1.00
O1112  O     0.45630   0.85678   0.69208   0.00000  Uiso   1.00
O1113  O     0.00653   0.85114   0.74473   0.00000  Uiso   1.00
N1114  N     0.48442   0.66791   0.95416   0.00000  Uiso   1.00
O1115  O     0.45630   0.64321   0.97459   0.00000  Uiso   1.00
O1116  O     0.00653   0.64886   0.92194   0.00000  Uiso   1.00
N1117  N     0.23442   0.91791   0.71250   0.00000  Uiso   1.00
O1118  O     0.25653   0.89886   0.74473   0.00000  Uiso   1.00
O1119  O     0.20630   0.89321   0.69208   0.00000  Uiso   1.00
N1120  N     0.23442   0.58209   0.95416   0.00000  Uiso   1.00
O1121  O     0.25653   0.60114   0.92194   0.00000  Uiso   1.00
O1122  O     0.20630   0.60679   0.97459   0.00000  Uiso   1.00
N1123  N     0.26558   0.58209   0.71250   0.00000  Uiso   1.00
O1124  O     0.24347   0.60114   0.74473   0.00000  Uiso   1.00
O1125  O     0.29370   0.60679   0.69208   0.00000  Uiso   1.00
N1126  N     0.26558   0.91791   0.95416   0.00000  Uiso   1.00
O1127  O     0.24347   0.89887   0.92193   0.00000  Uiso   1.00
O1128  O     0.29370   0.89321   0.97459   0.00000  Uiso   1.00
Cl1129 Cl    0.40240   0.66117   0.73457   0.00000  Uiso   1.00
Cl1130 Cl    0.11595   0.81385   0.92327   0.00000  Uiso   1.00
Cl1131 Cl    0.09760   0.83883   0.73457   0.00000  Uiso   1.00
Cl1132 Cl    0.38405   0.68615   0.92327   0.00000  Uiso   1.00
Cl1133 Cl    0.09760   0.66117   0.93210   0.00000  Uiso   1.00
Cl1134 Cl    0.38405   0.81385   0.74339   0.00000  Uiso   1.00
Cl1135 Cl    0.40239   0.83882   0.93210   0.00000  Uiso   1.00
Cl1136 Cl    0.11595   0.68615   0.74340   0.00000  Uiso   1.00
Cl1137 Cl    0.13405   0.93615   0.74340   0.00000  Uiso   1.00
Cl1138 Cl    0.34760   0.58883   0.93210   0.00000  Uiso   1.00
Cl1139 Cl    0.36595   0.56385   0.74339   0.00000  Uiso   1.00
Cl1140 Cl    0.15240   0.91117   0.93210   0.00000  Uiso   1.00
Cl1141 Cl    0.36595   0.93614   0.92327   0.00000  Uiso   1.00
Cl1142 Cl    0.15240   0.58883   0.73457   0.00000  Uiso   1.00
Cl1143 Cl    0.13405   0.56385   0.92327   0.00000  Uiso   1.00
Cl1144 Cl    0.34760   0.91117   0.73457   0.00000  Uiso   1.00
O1145  O     0.54508   0.70491   0.87291   0.00000  Uiso   1.00
O1146  O     0.95491   0.79509   0.79375   0.00000  Uiso   1.00
O1147  O     0.95491   0.79509   0.87291   0.00000  Uiso   1.00
O1148  O     0.54508   0.70491   0.79375   0.00000  Uiso   1.00
O1149  O     0.95491   0.70491   0.79375   0.00000  Uiso   1.00
O1150  O     0.54508   0.79509   0.87291   0.00000  Uiso   1.00
O1151  O     0.54508   0.79509   0.79375   0.00000  Uiso   1.00
O1152  O     0.95491   0.70491   0.87291   0.00000  Uiso   1.00
O1153  O     0.79508   0.95491   0.87291   0.00000  Uiso   1.00
O1154  O     0.70491   0.54509   0.79375   0.00000  Uiso   1.00
O1155  O     0.70491   0.54509   0.87291   0.00000  Uiso   1.00
O1156  O     0.79508   0.95491   0.79375   0.00000  Uiso   1.00
O1157  O     0.70491   0.95491   0.79375   0.00000  Uiso   1.00
O1158  O     0.79508   0.54509   0.87291   0.00000  Uiso   1.00
O1159  O     0.79508   0.54509   0.79375   0.00000  Uiso   1.00
O1160  O     0.70491   0.95491   0.87291   0.00000  Uiso   1.00
C1161  C     0.56139   0.69293   0.83358   0.00000  Uiso   1.00
C1162  C     0.93861   0.80706   0.83358   0.00000  Uiso   1.00
C1163  C     0.93861   0.69293   0.83309   0.00000  Uiso   1.00
C1164  C     0.56139   0.80706   0.83309   0.00000  Uiso   1.00
C1165  C     0.81139   0.94293   0.83309   0.00000  Uiso   1.00
C1166  C     0.68861   0.55707   0.83309   0.00000  Uiso   1.00
C1167  C     0.68861   0.94293   0.83358   0.00000  Uiso   1.00
C1168  C     0.81139   0.55707   0.83358   0.00000  Uiso   1.00
N1169  N     0.50000   0.75000   0.95069   0.00000  Uiso   1.00
N1170  N     0.50000   0.75000   0.71598   0.00000  Uiso   1.00
N1171  N     0.75000   0.50000   0.95069   0.00000  Uiso   1.00
N1172  N     0.75000   0.50000   0.71598   0.00000  Uiso   1.00
Cu1173 Cu    0.50000   0.75000   0.88022   0.00000  Uiso   1.00
Cu1174 Cu    0.50000   0.75000   0.78645   0.00000  Uiso   1.00
Cu1175 Cu    0.75000   0.50000   0.88022   0.00000  Uiso   1.00
Cu1176 Cu    0.75000   0.50000   0.78645   0.00000  Uiso   1.00
C1177  C     0.50291   0.71000   0.69111   0.00000  Uiso   1.00
C1178  C     0.50291   0.79000   0.97556   0.00000  Uiso   1.00
C1179  C     0.99709   0.79000   0.69111   0.00000  Uiso   1.00
C1180  C     0.99709   0.71000   0.97556   0.00000  Uiso   1.00
C1181  C     0.74709   0.96000   0.69111   0.00000  Uiso   1.00
C1182  C     0.74709   0.54000   0.97556   0.00000  Uiso   1.00
C1183  C     0.75291   0.54000   0.69111   0.00000  Uiso   1.00
C1184  C     0.75291   0.96000   0.97556   0.00000  Uiso   1.00
C1185  C     0.89161   0.63897   0.79059   0.00000  Uiso   1.00
C1186  C     0.61663   0.85042   0.87416   0.00000  Uiso   1.00
C1187  C     0.60839   0.86103   0.79059   0.00000  Uiso   1.00
C1188  C     0.88337   0.64958   0.87416   0.00000  Uiso   1.00
C1189  C     0.60839   0.63897   0.87607   0.00000  Uiso   1.00
C1190  C     0.88337   0.85042   0.79250   0.00000  Uiso   1.00
C1191  C     0.89161   0.86103   0.87607   0.00000  Uiso   1.00
C1192  C     0.61663   0.64958   0.79250   0.00000  Uiso   1.00
C1193  C     0.63337   0.89958   0.79251   0.00000  Uiso   1.00
C1194  C     0.85839   0.61103   0.87607   0.00000  Uiso   1.00
C1195  C     0.86663   0.60042   0.79250   0.00000  Uiso   1.00
C1196  C     0.64161   0.88897   0.87607   0.00000  Uiso   1.00
C1197  C     0.86663   0.89958   0.87416   0.00000  Uiso   1.00
C1198  C     0.64161   0.61103   0.79059   0.00000  Uiso   1.00
C1199  C     0.63337   0.60042   0.87416   0.00000  Uiso   1.00
C1200  C     0.85839   0.88897   0.79059   0.00000  Uiso   1.00
C1201  C     0.59684   0.83860   0.83225   0.00000  Uiso   1.00
C1202  C     0.90317   0.66140   0.83225   0.00000  Uiso   1.00
C1203  C     0.90316   0.83860   0.83441   0.00000  Uiso   1.00
C1204  C     0.59683   0.66140   0.83441   0.00000  Uiso   1.00
C1205  C     0.84683   0.58860   0.83441   0.00000  Uiso   1.00
C1206  C     0.65317   0.91139   0.83441   0.00000  Uiso   1.00
C1207  C     0.65316   0.58860   0.83225   0.00000  Uiso   1.00
C1208  C     0.84683   0.91139   0.83225   0.00000  Uiso   1.00
N1209  N     0.51558   0.66791   0.71250   0.00000  Uiso   1.00
O1210  O     0.54370   0.64321   0.69208   0.00000  Uiso   1.00
O1211  O     0.99347   0.64886   0.74473   0.00000  Uiso   1.00
N1212  N     0.51558   0.83209   0.95416   0.00000  Uiso   1.00
O1213  O     0.54371   0.85678   0.97458   0.00000  Uiso   1.00
O1214  O     0.99346   0.85114   0.92194   0.00000  Uiso   1.00
N1215  N     0.98442   0.83209   0.71250   0.00000  Uiso   1.00
O1216  O     0.95630   0.85678   0.69208   0.00000  Uiso   1.00
O1217  O     0.50653   0.85114   0.74473   0.00000  Uiso   1.00
N1218  N     0.98442   0.66791   0.95416   0.00000  Uiso   1.00
O1219  O     0.95630   0.64321   0.97459   0.00000  Uiso   1.00
O1220  O     0.50653   0.64886   0.92194   0.00000  Uiso   1.00
N1221  N     0.73442   0.91791   0.71250   0.00000  Uiso   1.00
O1222  O     0.75653   0.89886   0.74473   0.00000  Uiso   1.00
O1223  O     0.70630   0.89321   0.69208   0.00000  Uiso   1.00
N1224  N     0.73442   0.58209   0.95416   0.00000  Uiso   1.00
O1225  O     0.75653   0.60114   0.92194   0.00000  Uiso   1.00
O1226  O     0.70630   0.60679   0.97459   0.00000  Uiso   1.00
N1227  N     0.76558   0.58209   0.71250   0.00000  Uiso   1.00
O1228  O     0.74347   0.60114   0.74473   0.00000  Uiso   1.00
O1229  O     0.79370   0.60679   0.69208   0.00000  Uiso   1.00
N1230  N     0.76558   0.91791   0.95416   0.00000  Uiso   1.00
O1231  O     0.74347   0.89887   0.92193   0.00000  Uiso   1.00
O1232  O     0.79370   0.89321   0.97459   0.00000  Uiso   1.00
Cl1233 Cl    0.90240   0.66117   0.73457   0.00000  Uiso   1.00
Cl1234 Cl    0.61595   0.81385   0.92327   0.00000  Uiso   1.00
Cl1235 Cl    0.59760   0.83883   0.73457   0.00000  Uiso   1.00
Cl1236 Cl    0.88405   0.68615   0.92327   0.00000  Uiso   1.00
Cl1237 Cl    0.59760   0.66117   0.93210   0.00000  Uiso   1.00
Cl1238 Cl    0.88405   0.81385   0.74339   0.00000  Uiso   1.00
Cl1239 Cl    0.90239   0.83882   0.93210   0.00000  Uiso   1.00
Cl1240 Cl    0.61595   0.68615   0.74340   0.00000  Uiso   1.00
Cl1241 Cl    0.63405   0.93615   0.74340   0.00000  Uiso   1.00
Cl1242 Cl    0.84760   0.58883   0.93210   0.00000  Uiso   1.00
Cl1243 Cl    0.86595   0.56385   0.74339   0.00000  Uiso   1.00
Cl1244 Cl    0.65240   0.91117   0.93210   0.00000  Uiso   1.00
Cl1245 Cl    0.86595   0.93614   0.92327   0.00000  Uiso   1.00
Cl1246 Cl    0.65240   0.58883   0.73457   0.00000  Uiso   1.00
Cl1247 Cl    0.63405   0.56385   0.92327   0.00000  Uiso   1.00
Cl1248 Cl    0.84760   0.91117   0.73457   0.00000  Uiso   1.00
loop_
_geom_bond_atom_site_label_1
_geom_bond_atom_site_label_2
_geom_bond_distance
_geom_bond_site_symmetry_2
_ccdc_geom_bond_type
O1     Cu29    1.977   .     S
O1     C17     1.296   .     A
O2     C18     1.308   .     A
O2     Cu134   1.977   .     S
O3     C18     1.296   .     A
O3     Cu133   1.977   .     S
O4     C17     1.308   .     A
O4     Cu30    1.977   .     S
O5     Cu134   1.977   .     S
O5     C19     1.296   .     A
O6     C20     1.308   .     A
O6     Cu29    1.977   .     S
O7     C20     1.296   .     A
O7     Cu30    1.977   .     S
O8     C19     1.308   .     A
O8     Cu133   1.977   .     S
O9     C21     1.308   .     A
O9     Cu239   1.977   .     S
O10    C22     1.296   .     A
O10    Cu32    1.977   .     S
O11    Cu31    1.977   .     S
O11    C22     1.308   .     A
O12    C21     1.296   .     A
O12    Cu240   1.977   .     S
O13    C23     1.308   .     A
O13    Cu240   1.977   .     S
O14    Cu31    1.977   .     S
O14    C24     1.296   .     A
O15    Cu32    1.977   .     S
O15    C24     1.308   .     A
O16    C23     1.296   .     A
O16    Cu239   1.977   .     S
C17    C60     1.471   .     S
C18    C59     1.471   .     S
C19    C58     1.471   .     S
C20    C57     1.471   .     S
C21    C64     1.471   .     S
C22    C63     1.471   .     S
C23    C62     1.471   .     S
C24    C61     1.471   .     S
N25    C34     1.379   .     A
N25    Cu29    2.027   .     S
N25    C140    1.379   1_455 S
N26    C33     1.379   .     A
N26    Cu30    2.027   .     S
N26    C139    1.379   1_455 S
N27    C38     1.379   .     A
N27    Cu31    2.027   .     S
N27    C248    1.379   1_545 S
N28    Cu32    2.027   .     S
N28    C39     1.379   .     A
N28    C245    1.379   1_545 S
Cu29   O112    1.977   1_455 S
Cu29   O107    1.977   1_455 S
Cu29   Cu30    2.697   .     S
Cu30   O109    1.977   1_455 S
Cu30   O106    1.977   1_455 S
Cu31   Cu32    2.697   .     S
Cu31   O224    1.977   1_545 S
Cu31   O217    1.977   1_545 S
Cu32   O221    1.977   1_545 S
Cu32   O220    1.977   1_545 S
C33    N65     1.440   .     S
C33    C972    1.418   1_454 S
C34    N68     1.440   .     S
C34    C555    1.418   1_455 S
C35    N71     1.440   .     S
C35    N130    1.379   .     S
C35    C970    1.418   1_554 S
C36    N74     1.440   .     S
C36    C553    1.418   .     S
C36    N129    1.379   .     S
C37    N77     1.440   .     S
C37    N236    1.379   .     S
C37    C872    1.418   1_554 S
C38    N80     1.440   .     S
C38    C455    1.418   .     S
C39    N83     1.440   .     S
C39    C870    1.418   1_554 S
C40    N86     1.440   .     S
C40    C453    1.418   .     S
C40    N235    1.379   .     S
C41    Cl89    1.773   .     S
C41    C58     1.417   .     A
C41    C51     1.390   .     A
C42    C57     1.407   .     A
C42    Cl90    1.775   .     S
C42    C52     1.390   .     A
C43    C49     1.390   .     A
C43    Cl91    1.773   .     S
C43    C57     1.417   .     A
C44    C58     1.407   .     A
C44    Cl92    1.775   .     S
C44    C50     1.390   .     A
C45    C60     1.417   .     A
C45    Cl93    1.773   .     S
C45    C55     1.390   .     A
C46    C59     1.407   .     A
C46    Cl94    1.775   .     S
C46    C56     1.390   .     A
C47    C53     1.390   .     A
C47    C59     1.417   .     A
C47    Cl95    1.773   .     S
C48    C54     1.390   .     A
C48    C60     1.407   .     A
C48    Cl96    1.775   .     S
C49    C62     1.407   .     A
C49    Cl97    1.775   .     S
C50    Cl98    1.773   .     S
C50    C61     1.417   .     A
C51    C61     1.407   .     A
C51    Cl99    1.775   .     S
C52    Cl100   1.773   .     S
C52    C62     1.417   .     A
C53    C64     1.407   .     A
C53    Cl101   1.775   .     S
C54    C63     1.417   .     A
C54    Cl102   1.773   .     S
C55    Cl103   1.775   .     S
C55    C63     1.407   .     A
C56    C64     1.417   .     A
C56    Cl104   1.773   .     S
N65    O66     1.301   .     A
N65    O171    1.296   1_455 S
O67    N169    1.296   .     S
N68    O69     1.301   .     A
N68    O174    1.296   1_455 S
O70    N172    1.296   .     S
N71    O72     1.301   .     A
N71    O177    1.296   .     S
O73    N175    1.296   1_455 S
N74    O75     1.301   .     A
N74    O180    1.296   .     S
O76    N178    1.296   1_455 S
N77    O78     1.296   .     A
N77    O79     1.301   .     A
N80    O82     1.301   .     A
N80    O81     1.296   .     A
N83    O84     1.296   .     A
N83    O85     1.301   .     A
N86    O88     1.301   .     A
N86    O87     1.296   .     A
O105   Cu133   1.977   .     S
O105   C121    1.296   .     A
O106   C122    1.308   .     A
O106   Cu30    1.977   1_655 S
O107   C122    1.296   .     A
O107   Cu29    1.977   1_655 S
O108   C121    1.308   .     A
O108   Cu134   1.977   .     S
O109   Cu30    1.977   1_655 S
O109   C123    1.296   .     A
O110   C124    1.308   .     A
O110   Cu133   1.977   .     S
O111   C124    1.296   .     A
O111   Cu134   1.977   .     S
O112   C123    1.308   .     A
O112   Cu29    1.977   1_655 S
O113   C125    1.308   .     A
O113   Cu343   1.977   .     S
O114   C126    1.296   .     A
O114   Cu136   1.977   .     S
O115   Cu135   1.977   .     S
O115   C126    1.308   .     A
O116   C125    1.296   .     A
O116   Cu344   1.977   .     S
O117   C127    1.308   .     A
O117   Cu344   1.977   .     S
O118   Cu135   1.977   .     S
O118   C128    1.296   .     A
O119   Cu136   1.977   .     S
O119   C128    1.308   .     A
O120   C127    1.296   .     A
O120   Cu343   1.977   .     S
C121   C164    1.471   .     S
C122   C163    1.471   .     S
C123   C162    1.471   .     S
C124   C161    1.471   .     S
C125   C168    1.471   .     S
C126   C167    1.471   .     S
C127   C166    1.471   .     S
C128   C165    1.471   .     S
N129   C138    1.379   .     A
N129   Cu133   2.027   .     S
N130   C137    1.379   .     A
N130   Cu134   2.027   .     S
N131   C142    1.379   .     A
N131   Cu135   2.027   .     S
N131   C352    1.379   1_545 S
N132   Cu136   2.027   .     S
N132   C143    1.379   .     A
N132   C349    1.379   1_545 S
Cu133  Cu134   2.697   .     S
Cu135  Cu136   2.697   .     S
Cu135  O328    1.977   1_545 S
Cu135  O321    1.977   1_545 S
Cu136  O325    1.977   1_545 S
Cu136  O324    1.977   1_545 S
C137   N169    1.440   .     S
C137   C868    1.418   1_554 S
C138   N172    1.440   .     S
C138   C451    1.418   .     S
C139   N175    1.440   .     S
C139   N26     1.379   1_655 S
C139   C866    1.418   1_654 S
C140   N178    1.440   .     S
C140   C449    1.418   1_655 S
C140   N25     1.379   1_655 S
C141   N181    1.440   .     S
C141   N340    1.379   .     S
C141   C976    1.418   1_554 S
C142   N184    1.440   .     S
C142   C559    1.418   .     S
C143   N187    1.440   .     S
C143   C974    1.418   1_554 S
C144   N190    1.440   .     S
C144   C557    1.418   .     S
C144   N339    1.379   .     S
C145   Cl193   1.773   .     S
C145   C162    1.417   .     A
C145   C155    1.390   .     A
C146   C161    1.407   .     A
C146   Cl194   1.775   .     S
C146   C156    1.390   .     A
C147   C153    1.390   .     A
C147   Cl195   1.773   .     S
C147   C161    1.417   .     A
C148   C162    1.407   .     A
C148   Cl196   1.775   .     S
C148   C154    1.390   .     A
C149   C164    1.417   .     A
C149   Cl197   1.773   .     S
C149   C159    1.390   .     A
C150   C163    1.407   .     A
C150   Cl198   1.775   .     S
C150   C160    1.390   .     A
C151   C157    1.390   .     A
C151   C163    1.417   .     A
C151   Cl199   1.773   .     S
C152   C158    1.390   .     A
C152   C164    1.407   .     A
C152   Cl200   1.775   .     S
C153   C166    1.407   .     A
C153   Cl201   1.775   .     S
C154   Cl202   1.773   .     S
C154   C165    1.417   .     A
C155   C165    1.407   .     A
C155   Cl203   1.775   .     S
C156   Cl204   1.773   .     S
C156   C166    1.417   .     A
C157   C168    1.407   .     A
C157   Cl205   1.775   .     S
C158   C167    1.417   .     A
C158   Cl206   1.773   .     S
C159   Cl207   1.775   .     S
C159   C167    1.407   .     A
C160   C168    1.417   .     A
C160   Cl208   1.773   .     S
N169   O170    1.301   .     A
O171   N65     1.296   1_655 S
N172   O173    1.301   .     A
O174   N68     1.296   1_655 S
N175   O176    1.301   .     A
N175   O73     1.296   1_655 S
N178   O179    1.301   .     A
N178   O76     1.296   1_655 S
N181   O182    1.296   .     A
N181   O183    1.301   .     A
N184   O186    1.301   .     A
N184   O185    1.296   .     A
N187   O188    1.296   .     A
N187   O189    1.301   .     A
N190   O192    1.301   .     A
N190   O191    1.296   .     A
O209   Cu237   1.977   .     S
O209   C225    1.296   .     A
O210   C226    1.308   .     A
O210   Cu342   1.977   .     S
O211   C226    1.296   .     A
O211   Cu341   1.977   .     S
O212   C225    1.308   .     A
O212   Cu238   1.977   .     S
O213   Cu342   1.977   .     S
O213   C227    1.296   .     A
O214   C228    1.308   .     A
O214   Cu237   1.977   .     S
O215   C228    1.296   .     A
O215   Cu238   1.977   .     S
O216   C227    1.308   .     A
O216   Cu341   1.977   .     S
O217   C229    1.308   .     A
O217   Cu31    1.977   1_565 S
O218   C230    1.296   .     A
O218   Cu240   1.977   .     S
O219   Cu239   1.977   .     S
O219   C230    1.308   .     A
O220   C229    1.296   .     A
O220   Cu32    1.977   1_565 S
O221   C231    1.308   .     A
O221   Cu32    1.977   1_565 S
O222   Cu239   1.977   .     S
O222   C232    1.296   .     A
O223   Cu240   1.977   .     S
O223   C232    1.308   .     A
O224   C231    1.296   .     A
O224   Cu31    1.977   1_565 S
C225   C268    1.471   .     S
C226   C267    1.471   .     S
C227   C266    1.471   .     S
C228   C265    1.471   .     S
C229   C272    1.471   .     S
C230   C271    1.471   .     S
C231   C270    1.471   .     S
C232   C269    1.471   .     S
N233   C242    1.379   .     A
N233   Cu237   2.027   .     S
N233   C348    1.379   1_455 S
N234   C241    1.379   .     A
N234   Cu238   2.027   .     S
N234   C347    1.379   1_455 S
N235   C246    1.379   .     A
N235   Cu239   2.027   .     S
N236   Cu240   2.027   .     S
N236   C247    1.379   .     A
Cu237  O320    1.977   1_455 S
Cu237  O315    1.977   1_455 S
Cu237  Cu238   2.697   .     S
Cu238  O317    1.977   1_455 S
Cu238  O314    1.977   1_455 S
Cu239  Cu240   2.697   .     S
C241   N273    1.440   .     S
C241   C1180   1.418   1_454 S
C242   N276    1.440   .     S
C242   C763    1.418   1_455 S
C243   N279    1.440   .     S
C243   N338    1.379   .     S
C243   C1178   1.418   1_554 S
C244   N282    1.440   .     S
C244   C761    1.418   .     S
C244   N337    1.379   .     S
C245   N285    1.440   .     S
C245   N28     1.379   1_565 S
C245   C1080   1.418   1_554 S
C246   N288    1.440   .     S
C246   C663    1.418   .     S
C247   N291    1.440   .     S
C247   C1078   1.418   1_554 S
C248   N294    1.440   .     S
C248   C661    1.418   .     S
C248   N27     1.379   1_565 S
C249   Cl297   1.773   .     S
C249   C266    1.417   .     A
C249   C259    1.390   .     A
C250   C265    1.407   .     A
C250   Cl298   1.775   .     S
C250   C260    1.390   .     A
C251   C257    1.390   .     A
C251   Cl299   1.773   .     S
C251   C265    1.417   .     A
C252   C266    1.407   .     A
C252   Cl300   1.775   .     S
C252   C258    1.390   .     A
C253   C268    1.417   .     A
C253   Cl301   1.773   .     S
C253   C263    1.390   .     A
C254   C267    1.407   .     A
C254   Cl302   1.775   .     S
C254   C264    1.390   .     A
C255   C261    1.390   .     A
C255   C267    1.417   .     A
C255   Cl303   1.773   .     S
C256   C262    1.390   .     A
C256   C268    1.407   .     A
C256   Cl304   1.775   .     S
C257   C270    1.407   .     A
C257   Cl305   1.775   .     S
C258   Cl306   1.773   .     S
C258   C269    1.417   .     A
C259   C269    1.407   .     A
C259   Cl307   1.775   .     S
C260   Cl308   1.773   .     S
C260   C270    1.417   .     A
C261   C272    1.407   .     A
C261   Cl309   1.775   .     S
C262   C271    1.417   .     A
C262   Cl310   1.773   .     S
C263   Cl311   1.775   .     S
C263   C271    1.407   .     A
C264   C272    1.417   .     A
C264   Cl312   1.773   .     S
N273   O274    1.301   .     A
N273   O379    1.296   1_455 S
O275   N377    1.296   .     S
N276   O277    1.301   .     A
N276   O382    1.296   1_455 S
O278   N380    1.296   .     S
N279   O280    1.301   .     A
N279   O385    1.296   .     S
O281   N383    1.296   1_455 S
N282   O283    1.301   .     A
N282   O388    1.296   .     S
O284   N386    1.296   1_455 S
N285   O286    1.296   .     A
N285   O287    1.301   .     A
N288   O290    1.301   .     A
N288   O289    1.296   .     A
N291   O292    1.296   .     A
N291   O293    1.301   .     A
N294   O296    1.301   .     A
N294   O295    1.296   .     A
O313   Cu341   1.977   .     S
O313   C329    1.296   .     A
O314   C330    1.308   .     A
O314   Cu238   1.977   1_655 S
O315   C330    1.296   .     A
O315   Cu237   1.977   1_655 S
O316   C329    1.308   .     A
O316   Cu342   1.977   .     S
O317   Cu238   1.977   1_655 S
O317   C331    1.296   .     A
O318   C332    1.308   .     A
O318   Cu341   1.977   .     S
O319   C332    1.296   .     A
O319   Cu342   1.977   .     S
O320   C331    1.308   .     A
O320   Cu237   1.977   1_655 S
O321   C333    1.308   .     A
O321   Cu135   1.977   1_565 S
O322   C334    1.296   .     A
O322   Cu344   1.977   .     S
O323   Cu343   1.977   .     S
O323   C334    1.308   .     A
O324   C333    1.296   .     A
O324   Cu136   1.977   1_565 S
O325   C335    1.308   .     A
O325   Cu136   1.977   1_565 S
O326   Cu343   1.977   .     S
O326   C336    1.296   .     A
O327   Cu344   1.977   .     S
O327   C336    1.308   .     A
O328   C335    1.296   .     A
O328   Cu135   1.977   1_565 S
C329   C372    1.471   .     S
C330   C371    1.471   .     S
C331   C370    1.471   .     S
C332   C369    1.471   .     S
C333   C376    1.471   .     S
C334   C375    1.471   .     S
C335   C374    1.471   .     S
C336   C373    1.471   .     S
N337   C346    1.379   .     A
N337   Cu341   2.027   .     S
N338   C345    1.379   .     A
N338   Cu342   2.027   .     S
N339   C350    1.379   .     A
N339   Cu343   2.027   .     S
N340   Cu344   2.027   .     S
N340   C351    1.379   .     A
Cu341  Cu342   2.697   .     S
Cu343  Cu344   2.697   .     S
C345   N377    1.440   .     S
C345   C1076   1.418   1_554 S
C346   N380    1.440   .     S
C346   C659    1.418   .     S
C347   N383    1.440   .     S
C347   N234    1.379   1_655 S
C347   C1074   1.418   1_654 S
C348   N386    1.440   .     S
C348   C657    1.418   1_655 S
C348   N233    1.379   1_655 S
C349   N389    1.440   .     S
C349   N132    1.379   1_565 S
C349   C1184   1.418   1_554 S
C350   N392    1.440   .     S
C350   C767    1.418   .     S
C351   N395    1.440   .     S
C351   C1182   1.418   1_554 S
C352   N398    1.440   .     S
C352   C765    1.418   .     S
C352   N131    1.379   1_565 S
C353   Cl401   1.773   .     S
C353   C370    1.417   .     A
C353   C363    1.390   .     A
C354   C369    1.407   .     A
C354   Cl402   1.775   .     S
C354   C364    1.390   .     A
C355   C361    1.390   .     A
C355   Cl403   1.773   .     S
C355   C369    1.417   .     A
C356   C370    1.407   .     A
C356   Cl404   1.775   .     S
C356   C362    1.390   .     A
C357   C372    1.417   .     A
C357   Cl405   1.773   .     S
C357   C367    1.390   .     A
C358   C371    1.407   .     A
C358   Cl406   1.775   .     S
C358   C368    1.390   .     A
C359   C365    1.390   .     A
C359   C371    1.417   .     A
C359   Cl407   1.773   .     S
C360   C366    1.390   .     A
C360   C372    1.407   .     A
C360   Cl408   1.775   .     S
C361   C374    1.407   .     A
C361   Cl409   1.775   .     S
C362   Cl410   1.773   .     S
C362   C373    1.417   .     A
C363   C373    1.407   .     A
C363   Cl411   1.775   .     S
C364   Cl412   1.773   .     S
C364   C374    1.417   .     A
C365   C376    1.407   .     A
C365   Cl413   1.775   .     S
C366   C375    1.417   .     A
C366   Cl414   1.773   .     S
C367   Cl415   1.775   .     S
C367   C375    1.407   .     A
C368   C376    1.417   .     A
C368   Cl416   1.773   .     S
N377   O378    1.301   .     A
O379   N273    1.296   1_655 S
N380   O381    1.301   .     A
O382   N276    1.296   1_655 S
N383   O384    1.301   .     A
N383   O281    1.296   1_655 S
N386   O387    1.301   .     A
N386   O284    1.296   1_655 S
N389   O390    1.296   .     A
N389   O391    1.301   .     A
N392   O394    1.301   .     A
N392   O393    1.296   .     A
N395   O396    1.296   .     A
N395   O397    1.301   .     A
N398   O400    1.301   .     A
N398   O399    1.296   .     A
O417   Cu445   1.977   .     S
O417   C433    1.296   .     A
O418   C434    1.308   .     A
O418   Cu550   1.977   .     S
O419   C434    1.296   .     A
O419   Cu549   1.977   .     S
O420   C433    1.308   .     A
O420   Cu446   1.977   .     S
O421   Cu550   1.977   .     S
O421   C435    1.296   .     A
O422   C436    1.308   .     A
O422   Cu445   1.977   .     S
O423   C436    1.296   .     A
O423   Cu446   1.977   .     S
O424   C435    1.308   .     A
O424   Cu549   1.977   .     S
O425   C437    1.308   .     A
O425   Cu655   1.977   .     S
O426   C438    1.296   .     A
O426   Cu448   1.977   .     S
O427   Cu447   1.977   .     S
O427   C438    1.308   .     A
O428   C437    1.296   .     A
O428   Cu656   1.977   .     S
O429   C439    1.308   .     A
O429   Cu656   1.977   .     S
O430   Cu447   1.977   .     S
O430   C440    1.296   .     A
O431   Cu448   1.977   .     S
O431   C440    1.308   .     A
O432   C439    1.296   .     A
O432   Cu655   1.977   .     S
C433   C476    1.471   .     S
C434   C475    1.471   .     S
C435   C474    1.471   .     S
C436   C473    1.471   .     S
C437   C480    1.471   .     S
C438   C479    1.471   .     S
C439   C478    1.471   .     S
C440   C477    1.471   .     S
N441   C450    1.379   .     A
N441   Cu445   2.027   .     S
N441   C556    1.379   1_455 S
N442   C449    1.379   .     A
N442   Cu446   2.027   .     S
N442   C555    1.379   1_455 S
N443   C454    1.379   .     A
N443   Cu447   2.027   .     S
N443   C664    1.379   1_545 S
N444   Cu448   2.027   .     S
N444   C455    1.379   .     A
N444   C661    1.379   1_545 S
Cu445  O528    1.977   1_455 S
Cu445  O523    1.977   1_455 S
Cu445  Cu446   2.697   .     S
Cu446  O525    1.977   1_455 S
Cu446  O522    1.977   1_455 S
Cu447  Cu448   2.697   .     S
Cu447  O640    1.977   1_545 S
Cu447  O633    1.977   1_545 S
Cu448  O637    1.977   1_545 S
Cu448  O636    1.977   1_545 S
C449   N481    1.440   .     S
C449   C140    1.418   1_455 S
C450   N484    1.440   .     S
C450   C971    1.418   1_455 S
C451   N487    1.440   .     S
C451   N546    1.379   .     S
C452   N490    1.440   .     S
C452   C969    1.418   .     S
C452   N545    1.379   .     S
C453   N493    1.440   .     S
C453   N652    1.379   .     S
C454   N496    1.440   .     S
C454   C871    1.418   .     S
C455   N499    1.440   .     S
C456   N502    1.440   .     S
C456   C869    1.418   .     S
C456   N651    1.379   .     S
C457   Cl505   1.773   .     S
C457   C474    1.417   .     A
C457   C467    1.390   .     A
C458   C473    1.407   .     A
C458   Cl506   1.775   .     S
C458   C468    1.390   .     A
C459   C465    1.390   .     A
C459   Cl507   1.773   .     S
C459   C473    1.417   .     A
C460   C474    1.407   .     A
C460   Cl508   1.775   .     S
C460   C466    1.390   .     A
C461   C476    1.417   .     A
C461   Cl509   1.773   .     S
C461   C471    1.390   .     A
C462   C475    1.407   .     A
C462   Cl510   1.775   .     S
C462   C472    1.390   .     A
C463   C469    1.390   .     A
C463   C475    1.417   .     A
C463   Cl511   1.773   .     S
C464   C470    1.390   .     A
C464   C476    1.407   .     A
C464   Cl512   1.775   .     S
C465   C478    1.407   .     A
C465   Cl513   1.775   .     S
C466   Cl514   1.773   .     S
C466   C477    1.417   .     A
C467   C477    1.407   .     A
C467   Cl515   1.775   .     S
C468   Cl516   1.773   .     S
C468   C478    1.417   .     A
C469   C480    1.407   .     A
C469   Cl517   1.775   .     S
C470   C479    1.417   .     A
C470   Cl518   1.773   .     S
C471   Cl519   1.775   .     S
C471   C479    1.407   .     A
C472   C480    1.417   .     A
C472   Cl520   1.773   .     S
N481   O482    1.301   .     A
N481   O587    1.296   1_455 S
O483   N585    1.296   .     S
N484   O485    1.301   .     A
N484   O590    1.296   1_455 S
O486   N588    1.296   .     S
N487   O488    1.301   .     A
N487   O593    1.296   .     S
O489   N591    1.296   1_455 S
N490   O491    1.301   .     A
N490   O596    1.296   .     S
O492   N594    1.296   1_455 S
N493   O494    1.296   .     A
N493   O495    1.301   .     A
N496   O498    1.301   .     A
N496   O497    1.296   .     A
N499   O500    1.296   .     A
N499   O501    1.301   .     A
N502   O504    1.301   .     A
N502   O503    1.296   .     A
O521   Cu549   1.977   .     S
O521   C537    1.296   .     A
O522   C538    1.308   .     A
O522   Cu446   1.977   1_655 S
O523   C538    1.296   .     A
O523   Cu445   1.977   1_655 S
O524   C537    1.308   .     A
O524   Cu550   1.977   .     S
O525   Cu446   1.977   1_655 S
O525   C539    1.296   .     A
O526   C540    1.308   .     A
O526   Cu549   1.977   .     S
O527   C540    1.296   .     A
O527   Cu550   1.977   .     S
O528   C539    1.308   .     A
O528   Cu445   1.977   1_655 S
O529   C541    1.308   .     A
O529   Cu759   1.977   .     S
O530   C542    1.296   .     A
O530   Cu552   1.977   .     S
O531   Cu551   1.977   .     S
O531   C542    1.308   .     A
O532   C541    1.296   .     A
O532   Cu760   1.977   .     S
O533   C543    1.308   .     A
O533   Cu760   1.977   .     S
O534   Cu551   1.977   .     S
O534   C544    1.296   .     A
O535   Cu552   1.977   .     S
O535   C544    1.308   .     A
O536   C543    1.296   .     A
O536   Cu759   1.977   .     S
C537   C580    1.471   .     S
C538   C579    1.471   .     S
C539   C578    1.471   .     S
C540   C577    1.471   .     S
C541   C584    1.471   .     S
C542   C583    1.471   .     S
C543   C582    1.471   .     S
C544   C581    1.471   .     S
N545   C554    1.379   .     A
N545   Cu549   2.027   .     S
N546   C553    1.379   .     A
N546   Cu550   2.027   .     S
N547   C558    1.379   .     A
N547   Cu551   2.027   .     S
N547   C768    1.379   1_545 S
N548   Cu552   2.027   .     S
N548   C559    1.379   .     A
N548   C765    1.379   1_545 S
Cu549  Cu550   2.697   .     S
Cu551  Cu552   2.697   .     S
Cu551  O744    1.977   1_545 S
Cu551  O737    1.977   1_545 S
Cu552  O741    1.977   1_545 S
Cu552  O740    1.977   1_545 S
C553   N585    1.440   .     S
C554   N588    1.440   .     S
C554   C867    1.418   .     S
C555   N591    1.440   .     S
C555   N442    1.379   1_655 S
C555   C34     1.418   1_655 S
C556   N594    1.440   .     S
C556   C865    1.418   1_655 S
C556   N441    1.379   1_655 S
C557   N597    1.440   .     S
C557   N756    1.379   .     S
C558   N600    1.440   .     S
C558   C975    1.418   .     S
C559   N603    1.440   .     S
C560   N606    1.440   .     S
C560   C973    1.418   .     S
C560   N755    1.379   .     S
C561   Cl609   1.773   .     S
C561   C578    1.417   .     A
C561   C571    1.390   .     A
C562   C577    1.407   .     A
C562   Cl610   1.775   .     S
C562   C572    1.390   .     A
C563   C569    1.390   .     A
C563   Cl611   1.773   .     S
C563   C577    1.417   .     A
C564   C578    1.407   .     A
C564   Cl612   1.775   .     S
C564   C570    1.390   .     A
C565   C580    1.417   .     A
C565   Cl613   1.773   .     S
C565   C575    1.390   .     A
C566   C579    1.407   .     A
C566   Cl614   1.775   .     S
C566   C576    1.390   .     A
C567   C573    1.390   .     A
C567   C579    1.417   .     A
C567   Cl615   1.773   .     S
C568   C574    1.390   .     A
C568   C580    1.407   .     A
C568   Cl616   1.775   .     S
C569   C582    1.407   .     A
C569   Cl617   1.775   .     S
C570   Cl618   1.773   .     S
C570   C581    1.417   .     A
C571   C581    1.407   .     A
C571   Cl619   1.775   .     S
C572   Cl620   1.773   .     S
C572   C582    1.417   .     A
C573   C584    1.407   .     A
C573   Cl621   1.775   .     S
C574   C583    1.417   .     A
C574   Cl622   1.773   .     S
C575   Cl623   1.775   .     S
C575   C583    1.407   .     A
C576   C584    1.417   .     A
C576   Cl624   1.773   .     S
N585   O586    1.301   .     A
O587   N481    1.296   1_655 S
N588   O589    1.301   .     A
O590   N484    1.296   1_655 S
N591   O592    1.301   .     A
N591   O489    1.296   1_655 S
N594   O595    1.301   .     A
N594   O492    1.296   1_655 S
N597   O598    1.296   .     A
N597   O599    1.301   .     A
N600   O602    1.301   .     A
N600   O601    1.296   .     A
N603   O604    1.296   .     A
N603   O605    1.301   .     A
N606   O608    1.301   .     A
N606   O607    1.296   .     A
O625   Cu653   1.977   .     S
O625   C641    1.296   .     A
O626   C642    1.308   .     A
O626   Cu758   1.977   .     S
O627   C642    1.296   .     A
O627   Cu757   1.977   .     S
O628   C641    1.308   .     A
O628   Cu654   1.977   .     S
O629   Cu758   1.977   .     S
O629   C643    1.296   .     A
O630   C644    1.308   .     A
O630   Cu653   1.977   .     S
O631   C644    1.296   .     A
O631   Cu654   1.977   .     S
O632   C643    1.308   .     A
O632   Cu757   1.977   .     S
O633   C645    1.308   .     A
O633   Cu447   1.977   1_565 S
O634   C646    1.296   .     A
O634   Cu656   1.977   .     S
O635   Cu655   1.977   .     S
O635   C646    1.308   .     A
O636   C645    1.296   .     A
O636   Cu448   1.977   1_565 S
O637   C647    1.308   .     A
O637   Cu448   1.977   1_565 S
O638   Cu655   1.977   .     S
O638   C648    1.296   .     A
O639   Cu656   1.977   .     S
O639   C648    1.308   .     A
O640   C647    1.296   .     A
O640   Cu447   1.977   1_565 S
C641   C684    1.471   .     S
C642   C683    1.471   .     S
C643   C682    1.471   .     S
C644   C681    1.471   .     S
C645   C688    1.471   .     S
C646   C687    1.471   .     S
C647   C686    1.471   .     S
C648   C685    1.471   .     S
N649   C658    1.379   .     A
N649   Cu653   2.027   .     S
N649   C764    1.379   1_455 S
N650   C657    1.379   .     A
N650   Cu654   2.027   .     S
N650   C763    1.379   1_455 S
N651   C662    1.379   .     A
N651   Cu655   2.027   .     S
N652   Cu656   2.027   .     S
N652   C663    1.379   .     A
Cu653  O736    1.977   1_455 S
Cu653  O731    1.977   1_455 S
Cu653  Cu654   2.697   .     S
Cu654  O733    1.977   1_455 S
Cu654  O730    1.977   1_455 S
Cu655  Cu656   2.697   .     S
C657   N689    1.440   .     S
C657   C348    1.418   1_455 S
C658   N692    1.440   .     S
C658   C1179   1.418   1_455 S
C659   N695    1.440   .     S
C659   N754    1.379   .     S
C660   N698    1.440   .     S
C660   C1177   1.418   .     S
C660   N753    1.379   .     S
C661   N701    1.440   .     S
C661   N444    1.379   1_565 S
C662   N704    1.440   .     S
C662   C1079   1.418   .     S
C663   N707    1.440   .     S
C664   N710    1.440   .     S
C664   C1077   1.418   .     S
C664   N443    1.379   1_565 S
C665   Cl713   1.773   .     S
C665   C682    1.417   .     A
C665   C675    1.390   .     A
C666   C681    1.407   .     A
C666   Cl714   1.775   .     S
C666   C676    1.390   .     A
C667   C673    1.390   .     A
C667   Cl715   1.773   .     S
C667   C681    1.417   .     A
C668   C682    1.407   .     A
C668   Cl716   1.775   .     S
C668   C674    1.390   .     A
C669   C684    1.417   .     A
C669   Cl717   1.773   .     S
C669   C679    1.390   .     A
C670   C683    1.407   .     A
C670   Cl718   1.775   .     S
C670   C680    1.390   .     A
C671   C677    1.390   .     A
C671   C683    1.417   .     A
C671   Cl719   1.773   .     S
C672   C678    1.390   .     A
C672   C684    1.407   .     A
C672   Cl720   1.775   .     S
C673   C686    1.407   .     A
C673   Cl721   1.775   .     S
C674   Cl722   1.773   .     S
C674   C685    1.417   .     A
C675   C685    1.407   .     A
C675   Cl723   1.775   .     S
C676   Cl724   1.773   .     S
C676   C686    1.417   .     A
C677   C688    1.407   .     A
C677   Cl725   1.775   .     S
C678   C687    1.417   .     A
C678   Cl726   1.773   .     S
C679   Cl727   1.775   .     S
C679   C687    1.407   .     A
C680   C688    1.417   .     A
C680   Cl728   1.773   .     S
N689   O690    1.301   .     A
N689   O795    1.296   1_455 S
O691   N793    1.296   .     S
N692   O693    1.301   .     A
N692   O798    1.296   1_455 S
O694   N796    1.296   .     S
N695   O696    1.301   .     A
N695   O801    1.296   .     S
O697   N799    1.296   1_455 S
N698   O699    1.301   .     A
N698   O804    1.296   .     S
O700   N802    1.296   1_455 S
N701   O702    1.296   .     A
N701   O703    1.301   .     A
N704   O706    1.301   .     A
N704   O705    1.296   .     A
N707   O708    1.296   .     A
N707   O709    1.301   .     A
N710   O712    1.301   .     A
N710   O711    1.296   .     A
O729   Cu757   1.977   .     S
O729   C745    1.296   .     A
O730   C746    1.308   .     A
O730   Cu654   1.977   1_655 S
O731   C746    1.296   .     A
O731   Cu653   1.977   1_655 S
O732   C745    1.308   .     A
O732   Cu758   1.977   .     S
O733   Cu654   1.977   1_655 S
O733   C747    1.296   .     A
O734   C748    1.308   .     A
O734   Cu757   1.977   .     S
O735   C748    1.296   .     A
O735   Cu758   1.977   .     S
O736   C747    1.308   .     A
O736   Cu653   1.977   1_655 S
O737   C749    1.308   .     A
O737   Cu551   1.977   1_565 S
O738   C750    1.296   .     A
O738   Cu760   1.977   .     S
O739   Cu759   1.977   .     S
O739   C750    1.308   .     A
O740   C749    1.296   .     A
O740   Cu552   1.977   1_565 S
O741   C751    1.308   .     A
O741   Cu552   1.977   1_565 S
O742   Cu759   1.977   .     S
O742   C752    1.296   .     A
O743   Cu760   1.977   .     S
O743   C752    1.308   .     A
O744   C751    1.296   .     A
O744   Cu551   1.977   1_565 S
C745   C788    1.471   .     S
C746   C787    1.471   .     S
C747   C786    1.471   .     S
C748   C785    1.471   .     S
C749   C792    1.471   .     S
C750   C791    1.471   .     S
C751   C790    1.471   .     S
C752   C789    1.471   .     S
N753   C762    1.379   .     A
N753   Cu757   2.027   .     S
N754   C761    1.379   .     A
N754   Cu758   2.027   .     S
N755   C766    1.379   .     A
N755   Cu759   2.027   .     S
N756   Cu760   2.027   .     S
N756   C767    1.379   .     A
Cu757  Cu758   2.697   .     S
Cu759  Cu760   2.697   .     S
C761   N793    1.440   .     S
C762   N796    1.440   .     S
C762   C1075   1.418   .     S
C763   N799    1.440   .     S
C763   N650    1.379   1_655 S
C763   C242    1.418   1_655 S
C764   N802    1.440   .     S
C764   C1073   1.418   1_655 S
C764   N649    1.379   1_655 S
C765   N805    1.440   .     S
C765   N548    1.379   1_565 S
C766   N808    1.440   .     S
C766   C1183   1.418   .     S
C767   N811    1.440   .     S
C768   N814    1.440   .     S
C768   C1181   1.418   .     S
C768   N547    1.379   1_565 S
C769   Cl817   1.773   .     S
C769   C786    1.417   .     A
C769   C779    1.390   .     A
C770   C785    1.407   .     A
C770   Cl818   1.775   .     S
C770   C780    1.390   .     A
C771   C777    1.390   .     A
C771   Cl819   1.773   .     S
C771   C785    1.417   .     A
C772   C786    1.407   .     A
C772   Cl820   1.775   .     S
C772   C778    1.390   .     A
C773   C788    1.417   .     A
C773   Cl821   1.773   .     S
C773   C783    1.390   .     A
C774   C787    1.407   .     A
C774   Cl822   1.775   .     S
C774   C784    1.390   .     A
C775   C781    1.390   .     A
C775   C787    1.417   .     A
C775   Cl823   1.773   .     S
C776   C782    1.390   .     A
C776   C788    1.407   .     A
C776   Cl824   1.775   .     S
C777   C790    1.407   .     A
C777   Cl825   1.775   .     S
C778   Cl826   1.773   .     S
C778   C789    1.417   .     A
C779   C789    1.407   .     A
C779   Cl827   1.775   .     S
C780   Cl828   1.773   .     S
C780   C790    1.417   .     A
C781   C792    1.407   .     A
C781   Cl829   1.775   .     S
C782   C791    1.417   .     A
C782   Cl830   1.773   .     S
C783   Cl831   1.775   .     S
C783   C791    1.407   .     A
C784   C792    1.417   .     A
C784   Cl832   1.773   .     S
N793   O794    1.301   .     A
O795   N689    1.296   1_655 S
N796   O797    1.301   .     A
O798   N692    1.296   1_655 S
N799   O800    1.301   .     A
N799   O697    1.296   1_655 S
N802   O803    1.301   .     A
N802   O700    1.296   1_655 S
N805   O806    1.296   .     A
N805   O807    1.301   .     A
N808   O810    1.301   .     A
N808   O809    1.296   .     A
N811   O812    1.296   .     A
N811   O813    1.301   .     A
N814   O816    1.301   .     A
N814   O815    1.296   .     A
O833   Cu861   1.977   .     S
O833   C849    1.296   .     A
O834   C850    1.308   .     A
O834   Cu966   1.977   .     S
O835   C850    1.296   .     A
O835   Cu965   1.977   .     S
O836   C849    1.308   .     A
O836   Cu862   1.977   .     S
O837   Cu966   1.977   .     S
O837   C851    1.296   .     A
O838   C852    1.308   .     A
O838   Cu861   1.977   .     S
O839   C852    1.296   .     A
O839   Cu862   1.977   .     S
O840   C851    1.308   .     A
O840   Cu965   1.977   .     S
O841   C853    1.308   .     A
O841   Cu1071  1.977   .     S
O842   C854    1.296   .     A
O842   Cu864   1.977   .     S
O843   Cu863   1.977   .     S
O843   C854    1.308   .     A
O844   C853    1.296   .     A
O844   Cu1072  1.977   .     S
O845   C855    1.308   .     A
O845   Cu1072  1.977   .     S
O846   Cu863   1.977   .     S
O846   C856    1.296   .     A
O847   Cu864   1.977   .     S
O847   C856    1.308   .     A
O848   C855    1.296   .     A
O848   Cu1071  1.977   .     S
C849   C892    1.471   .     S
C850   C891    1.471   .     S
C851   C890    1.471   .     S
C852   C889    1.471   .     S
C853   C896    1.471   .     S
C854   C895    1.471   .     S
C855   C894    1.471   .     S
C856   C893    1.471   .     S
N857   C866    1.379   .     A
N857   Cu861   2.027   .     S
N857   C972    1.379   1_455 S
N858   C865    1.379   .     A
N858   Cu862   2.027   .     S
N858   C971    1.379   1_455 S
N859   C870    1.379   .     A
N859   Cu863   2.027   .     S
N859   C1080   1.379   1_545 S
N860   Cu864   2.027   .     S
N860   C871    1.379   .     A
N860   C1077   1.379   1_545 S
Cu861  O944    1.977   1_455 S
Cu861  O939    1.977   1_455 S
Cu861  Cu862   2.697   .     S
Cu862  O941    1.977   1_455 S
Cu862  O938    1.977   1_455 S
Cu863  Cu864   2.697   .     S
Cu863  O1056   1.977   1_545 S
Cu863  O1049   1.977   1_545 S
Cu864  O1053   1.977   1_545 S
Cu864  O1052   1.977   1_545 S
C865   N897    1.440   .     S
C865   C556    1.418   1_455 S
C866   N900    1.440   .     S
C866   C139    1.418   1_456 S
C867   N903    1.440   .     S
C867   N962    1.379   .     S
C868   N906    1.440   .     S
C868   C137    1.418   1_556 S
C868   N961    1.379   .     S
C869   N909    1.440   .     S
C869   N1068   1.379   .     S
C870   N912    1.440   .     S
C870   C39     1.418   1_556 S
C871   N915    1.440   .     S
C872   N918    1.440   .     S
C872   C37     1.418   1_556 S
C872   N1067   1.379   .     S
C873   Cl921   1.773   .     S
C873   C890    1.417   .     A
C873   C883    1.390   .     A
C874   C889    1.407   .     A
C874   Cl922   1.775   .     S
C874   C884    1.390   .     A
C875   C881    1.390   .     A
C875   Cl923   1.773   .     S
C875   C889    1.417   .     A
C876   C890    1.407   .     A
C876   Cl924   1.775   .     S
C876   C882    1.390   .     A
C877   C892    1.417   .     A
C877   Cl925   1.773   .     S
C877   C887    1.390   .     A
C878   C891    1.407   .     A
C878   Cl926   1.775   .     S
C878   C888    1.390   .     A
C879   C885    1.390   .     A
C879   C891    1.417   .     A
C879   Cl927   1.773   .     S
C880   C886    1.390   .     A
C880   C892    1.407   .     A
C880   Cl928   1.775   .     S
C881   C894    1.407   .     A
C881   Cl929   1.775   .     S
C882   Cl930   1.773   .     S
C882   C893    1.417   .     A
C883   C893    1.407   .     A
C883   Cl931   1.775   .     S
C884   Cl932   1.773   .     S
C884   C894    1.417   .     A
C885   C896    1.407   .     A
C885   Cl933   1.775   .     S
C886   C895    1.417   .     A
C886   Cl934   1.773   .     S
C887   Cl935   1.775   .     S
C887   C895    1.407   .     A
C888   C896    1.417   .     A
C888   Cl936   1.773   .     S
N897   O898    1.301   .     A
N897   O1003   1.296   1_455 S
O899   N1001   1.296   .     S
N900   O901    1.301   .     A
N900   O1006   1.296   1_455 S
O902   N1004   1.296   .     S
N903   O904    1.301   .     A
N903   O1009   1.296   .     S
O905   N1007   1.296   1_455 S
N906   O907    1.301   .     A
N906   O1012   1.296   .     S
O908   N1010   1.296   1_455 S
N909   O910    1.296   .     A
N909   O911    1.301   .     A
N912   O914    1.301   .     A
N912   O913    1.296   .     A
N915   O916    1.296   .     A
N915   O917    1.301   .     A
N918   O920    1.301   .     A
N918   O919    1.296   .     A
O937   Cu965   1.977   .     S
O937   C953    1.296   .     A
O938   C954    1.308   .     A
O938   Cu862   1.977   1_655 S
O939   C954    1.296   .     A
O939   Cu861   1.977   1_655 S
O940   C953    1.308   .     A
O940   Cu966   1.977   .     S
O941   Cu862   1.977   1_655 S
O941   C955    1.296   .     A
O942   C956    1.308   .     A
O942   Cu965   1.977   .     S
O943   C956    1.296   .     A
O943   Cu966   1.977   .     S
O944   C955    1.308   .     A
O944   Cu861   1.977   1_655 S
O945   C957    1.308   .     A
O945   Cu1175  1.977   .     S
O946   C958    1.296   .     A
O946   Cu968   1.977   .     S
O947   Cu967   1.977   .     S
O947   C958    1.308   .     A
O948   C957    1.296   .     A
O948   Cu1176  1.977   .     S
O949   C959    1.308   .     A
O949   Cu1176  1.977   .     S
O950   Cu967   1.977   .     S
O950   C960    1.296   .     A
O951   Cu968   1.977   .     S
O951   C960    1.308   .     A
O952   C959    1.296   .     A
O952   Cu1175  1.977   .     S
C953   C996    1.471   .     S
C954   C995    1.471   .     S
C955   C994    1.471   .     S
C956   C993    1.471   .     S
C957   C1000   1.471   .     S
C958   C999    1.471   .     S
C959   C998    1.471   .     S
C960   C997    1.471   .     S
N961   C970    1.379   .     A
N961   Cu965   2.027   .     S
N962   C969    1.379   .     A
N962   Cu966   2.027   .     S
N963   C974    1.379   .     A
N963   Cu967   2.027   .     S
N963   C1184   1.379   1_545 S
N964   Cu968   2.027   .     S
N964   C975    1.379   .     A
N964   C1181   1.379   1_545 S
Cu965  Cu966   2.697   .     S
Cu967  Cu968   2.697   .     S
Cu967  O1160   1.977   1_545 S
Cu967  O1153   1.977   1_545 S
Cu968  O1157   1.977   1_545 S
Cu968  O1156   1.977   1_545 S
C969   N1001   1.440   .     S
C970   N1004   1.440   .     S
C970   C35     1.418   1_556 S
C971   N1007   1.440   .     S
C971   N858    1.379   1_655 S
C971   C450    1.418   1_655 S
C972   N1010   1.440   .     S
C972   C33     1.418   1_656 S
C972   N857    1.379   1_655 S
C973   N1013   1.440   .     S
C973   N1172   1.379   .     S
C974   N1016   1.440   .     S
C974   C143    1.418   1_556 S
C975   N1019   1.440   .     S
C976   N1022   1.440   .     S
C976   C141    1.418   1_556 S
C976   N1171   1.379   .     S
C977   Cl1025  1.773   .     S
C977   C994    1.417   .     A
C977   C987    1.390   .     A
C978   C993    1.407   .     A
C978   Cl1026  1.775   .     S
C978   C988    1.390   .     A
C979   C985    1.390   .     A
C979   Cl1027  1.773   .     S
C979   C993    1.417   .     A
C980   C994    1.407   .     A
C980   Cl1028  1.775   .     S
C980   C986    1.390   .     A
C981   C996    1.417   .     A
C981   Cl1029  1.773   .     S
C981   C991    1.390   .     A
C982   C995    1.407   .     A
C982   Cl1030  1.775   .     S
C982   C992    1.390   .     A
C983   C989    1.390   .     A
C983   C995    1.417   .     A
C983   Cl1031  1.773   .     S
C984   C990    1.390   .     A
C984   C996    1.407   .     A
C984   Cl1032  1.775   .     S
C985   C998    1.407   .     A
C985   Cl1033  1.775   .     S
C986   Cl1034  1.773   .     S
C986   C997    1.417   .     A
C987   C997    1.407   .     A
C987   Cl1035  1.775   .     S
C988   Cl1036  1.773   .     S
C988   C998    1.417   .     A
C989   C1000   1.407   .     A
C989   Cl1037  1.775   .     S
C990   C999    1.417   .     A
C990   Cl1038  1.773   .     S
C991   Cl1039  1.775   .     S
C991   C999    1.407   .     A
C992   C1000   1.417   .     A
C992   Cl1040  1.773   .     S
N1001  O1002   1.301   .     A
O1003  N897    1.296   1_655 S
N1004  O1005   1.301   .     A
O1006  N900    1.296   1_655 S
N1007  O1008   1.301   .     A
N1007  O905    1.296   1_655 S
N1010  O1011   1.301   .     A
N1010  O908    1.296   1_655 S
N1013  O1014   1.296   .     A
N1013  O1015   1.301   .     A
N1016  O1018   1.301   .     A
N1016  O1017   1.296   .     A
N1019  O1020   1.296   .     A
N1019  O1021   1.301   .     A
N1022  O1024   1.301   .     A
N1022  O1023   1.296   .     A
O1041  Cu1069  1.977   .     S
O1041  C1057   1.296   .     A
O1042  C1058   1.308   .     A
O1042  Cu1174  1.977   .     S
O1043  C1058   1.296   .     A
O1043  Cu1173  1.977   .     S
O1044  C1057   1.308   .     A
O1044  Cu1070  1.977   .     S
O1045  Cu1174  1.977   .     S
O1045  C1059   1.296   .     A
O1046  C1060   1.308   .     A
O1046  Cu1069  1.977   .     S
O1047  C1060   1.296   .     A
O1047  Cu1070  1.977   .     S
O1048  C1059   1.308   .     A
O1048  Cu1173  1.977   .     S
O1049  C1061   1.308   .     A
O1049  Cu863   1.977   1_565 S
O1050  C1062   1.296   .     A
O1050  Cu1072  1.977   .     S
O1051  Cu1071  1.977   .     S
O1051  C1062   1.308   .     A
O1052  C1061   1.296   .     A
O1052  Cu864   1.977   1_565 S
O1053  C1063   1.308   .     A
O1053  Cu864   1.977   1_565 S
O1054  Cu1071  1.977   .     S
O1054  C1064   1.296   .     A
O1055  Cu1072  1.977   .     S
O1055  C1064   1.308   .     A
O1056  C1063   1.296   .     A
O1056  Cu863   1.977   1_565 S
C1057  C1100   1.471   .     S
C1058  C1099   1.471   .     S
C1059  C1098   1.471   .     S
C1060  C1097   1.471   .     S
C1061  C1104   1.471   .     S
C1062  C1103   1.471   .     S
C1063  C1102   1.471   .     S
C1064  C1101   1.471   .     S
N1065  C1074   1.379   .     A
N1065  Cu1069  2.027   .     S
N1065  C1180   1.379   1_455 S
N1066  C1073   1.379   .     A
N1066  Cu1070  2.027   .     S
N1066  C1179   1.379   1_455 S
N1067  C1078   1.379   .     A
N1067  Cu1071  2.027   .     S
N1068  Cu1072  2.027   .     S
N1068  C1079   1.379   .     A
Cu1069 O1152   1.977   1_455 S
Cu1069 O1147   1.977   1_455 S
Cu1069 Cu1070  2.697   .     S
Cu1070 O1149   1.977   1_455 S
Cu1070 O1146   1.977   1_455 S
Cu1071 Cu1072  2.697   .     S
C1073  N1105   1.440   .     S
C1073  C764    1.418   1_455 S
C1074  N1108   1.440   .     S
C1074  C347    1.418   1_456 S
C1075  N1111   1.440   .     S
C1075  N1170   1.379   .     S
C1076  N1114   1.440   .     S
C1076  C345    1.418   1_556 S
C1076  N1169   1.379   .     S
C1077  N1117   1.440   .     S
C1077  N860    1.379   1_565 S
C1078  N1120   1.440   .     S
C1078  C247    1.418   1_556 S
C1079  N1123   1.440   .     S
C1080  N1126   1.440   .     S
C1080  C245    1.418   1_556 S
C1080  N859    1.379   1_565 S
C1081  Cl1129  1.773   .     S
C1081  C1098   1.417   .     A
C1081  C1091   1.390   .     A
C1082  C1097   1.407   .     A
C1082  Cl1130  1.775   .     S
C1082  C1092   1.390   .     A
C1083  C1089   1.390   .     A
C1083  Cl1131  1.773   .     S
C1083  C1097   1.417   .     A
C1084  C1098   1.407   .     A
C1084  Cl1132  1.775   .     S
C1084  C1090   1.390   .     A
C1085  C1100   1.417   .     A
C1085  Cl1133  1.773   .     S
C1085  C1095   1.390   .     A
C1086  C1099   1.407   .     A
C1086  Cl1134  1.775   .     S
C1086  C1096   1.390   .     A
C1087  C1093   1.390   .     A
C1087  C1099   1.417   .     A
C1087  Cl1135  1.773   .     S
C1088  C1094   1.390   .     A
C1088  C1100   1.407   .     A
C1088  Cl1136  1.775   .     S
C1089  C1102   1.407   .     A
C1089  Cl1137  1.775   .     S
C1090  Cl1138  1.773   .     S
C1090  C1101   1.417   .     A
C1091  C1101   1.407   .     A
C1091  Cl1139  1.775   .     S
C1092  Cl1140  1.773   .     S
C1092  C1102   1.417   .     A
C1093  C1104   1.407   .     A
C1093  Cl1141  1.775   .     S
C1094  C1103   1.417   .     A
C1094  Cl1142  1.773   .     S
C1095  Cl1143  1.775   .     S
C1095  C1103   1.407   .     A
C1096  C1104   1.417   .     A
C1096  Cl1144  1.773   .     S
N1105  O1106   1.301   .     A
N1105  O1211   1.296   1_455 S
O1107  N1209   1.296   .     S
N1108  O1109   1.301   .     A
N1108  O1214   1.296   1_455 S
O1110  N1212   1.296   .     S
N1111  O1112   1.301   .     A
N1111  O1217   1.296   .     S
O1113  N1215   1.296   1_455 S
N1114  O1115   1.301   .     A
N1114  O1220   1.296   .     S
O1116  N1218   1.296   1_455 S
N1117  O1118   1.296   .     A
N1117  O1119   1.301   .     A
N1120  O1122   1.301   .     A
N1120  O1121   1.296   .     A
N1123  O1124   1.296   .     A
N1123  O1125   1.301   .     A
N1126  O1128   1.301   .     A
N1126  O1127   1.296   .     A
O1145  Cu1173  1.977   .     S
O1145  C1161   1.296   .     A
O1146  C1162   1.308   .     A
O1146  Cu1070  1.977   1_655 S
O1147  C1162   1.296   .     A
O1147  Cu1069  1.977   1_655 S
O1148  C1161   1.308   .     A
O1148  Cu1174  1.977   .     S
O1149  Cu1070  1.977   1_655 S
O1149  C1163   1.296   .     A
O1150  C1164   1.308   .     A
O1150  Cu1173  1.977   .     S
O1151  C1164   1.296   .     A
O1151  Cu1174  1.977   .     S
O1152  C1163   1.308   .     A
O1152  Cu1069  1.977   1_655 S
O1153  C1165   1.308   .     A
O1153  Cu967   1.977   1_565 S
O1154  C1166   1.296   .     A
O1154  Cu1176  1.977   .     S
O1155  Cu1175  1.977   .     S
O1155  C1166   1.308   .     A
O1156  C1165   1.296   .     A
O1156  Cu968   1.977   1_565 S
O1157  C1167   1.308   .     A
O1157  Cu968   1.977   1_565 S
O1158  Cu1175  1.977   .     S
O1158  C1168   1.296   .     A
O1159  Cu1176  1.977   .     S
O1159  C1168   1.308   .     A
O1160  C1167   1.296   .     A
O1160  Cu967   1.977   1_565 S
C1161  C1204   1.471   .     S
C1162  C1203   1.471   .     S
C1163  C1202   1.471   .     S
C1164  C1201   1.471   .     S
C1165  C1208   1.471   .     S
C1166  C1207   1.471   .     S
C1167  C1206   1.471   .     S
C1168  C1205   1.471   .     S
N1169  C1178   1.379   .     A
N1169  Cu1173  2.027   .     S
N1170  C1177   1.379   .     A
N1170  Cu1174  2.027   .     S
N1171  C1182   1.379   .     A
N1171  Cu1175  2.027   .     S
N1172  Cu1176  2.027   .     S
N1172  C1183   1.379   .     A
Cu1173 Cu1174  2.697   .     S
Cu1175 Cu1176  2.697   .     S
C1177  N1209   1.440   .     S
C1178  N1212   1.440   .     S
C1178  C243    1.418   1_556 S
C1179  N1215   1.440   .     S
C1179  N1066   1.379   1_655 S
C1179  C658    1.418   1_655 S
C1180  N1218   1.440   .     S
C1180  C241    1.418   1_656 S
C1180  N1065   1.379   1_655 S
C1181  N1221   1.440   .     S
C1181  N964    1.379   1_565 S
C1182  N1224   1.440   .     S
C1182  C351    1.418   1_556 S
C1183  N1227   1.440   .     S
C1184  N1230   1.440   .     S
C1184  C349    1.418   1_556 S
C1184  N963    1.379   1_565 S
C1185  Cl1233  1.773   .     S
C1185  C1202   1.417   .     A
C1185  C1195   1.390   .     A
C1186  C1201   1.407   .     A
C1186  Cl1234  1.775   .     S
C1186  C1196   1.390   .     A
C1187  C1193   1.390   .     A
C1187  Cl1235  1.773   .     S
C1187  C1201   1.417   .     A
C1188  C1202   1.407   .     A
C1188  Cl1236  1.775   .     S
C1188  C1194   1.390   .     A
C1189  C1204   1.417   .     A
C1189  Cl1237  1.773   .     S
C1189  C1199   1.390   .     A
C1190  C1203   1.407   .     A
C1190  Cl1238  1.775   .     S
C1190  C1200   1.390   .     A
C1191  C1197   1.390   .     A
C1191  C1203   1.417   .     A
C1191  Cl1239  1.773   .     S
C1192  C1198   1.390   .     A
C1192  C1204   1.407   .     A
C1192  Cl1240  1.775   .     S
C1193  C1206   1.407   .     A
C1193  Cl1241  1.775   .     S
C1194  Cl1242  1.773   .     S
C1194  C1205   1.417   .     A
C1195  C1205   1.407   .     A
C1195  Cl1243  1.775   .     S
C1196  Cl1244  1.773   .     S
C1196  C1206   1.417   .     A
C1197  C1208   1.407   .     A
C1197  Cl1245  1.775   .     S
C1198  C1207   1.417   .     A
C1198  Cl1246  1.773   .     S
C1199  Cl1247  1.775   .     S
C1199  C1207   1.407   .     A
C1200  C1208   1.417   .     A
C1200  Cl1248  1.773   .     S
N1209  O1210   1.301   .     A
O1211  N1105   1.296   1_655 S
N1212  O1213   1.301   .     A
O1214  N1108   1.296   1_655 S
N1215  O1216   1.301   .     A
N1215  O1113   1.296   1_655 S
N1218  O1219   1.301   .     A
N1218  O1116   1.296   1_655 S
N1221  O1222   1.296   .     A
N1221  O1223   1.301   .     A
N1224  O1226   1.301   .     A
N1224  O1225   1.296   .     A
N1227  O1228   1.296   .     A
N1227  O1229   1.301   .     A
N1230  O1232   1.301   .     A
N1230  O1231   1.296   .     A
