data_str_m2_o1_o5_pcu_sym.39
_audit_creation_date              2020-01-03
_audit_creation_method            'Materials Studio'
_symmetry_space_group_name_H-M    'P1'
_symmetry_Int_Tables_number       1
_symmetry_cell_setting            triclinic
loop_
_symmetry_equiv_pos_as_xyz
  x,y,z
_cell_length_a                    32.4273
_cell_length_b                    28.5976
_cell_length_c                    27.2354
_cell_angle_alpha                 90.0519
_cell_angle_beta                  90.2952
_cell_angle_gamma                 90.1028
loop_
_atom_site_label
_atom_site_type_symbol
_atom_site_fract_x
_atom_site_fract_y
_atom_site_fract_z
_atom_site_U_iso_or_equiv
_atom_site_adp_type
_atom_site_occupancy
O1     O     0.10655   0.20625   0.16666   0.00000  Uiso   1.00
O2     O     0.22679   0.12709   0.16667   0.00000  Uiso   1.00
O3     O     0.22679   0.20625   0.16667   0.00000  Uiso   1.00
O4     O     0.10655   0.12709   0.16666   0.00000  Uiso   1.00
C5     C     0.08747   0.16661   0.16641   0.00000  Uiso   1.00
C6     C     0.24586   0.16673   0.16692   0.00000  Uiso   1.00
O7     O     0.16667   0.20625   0.09613   0.00000  Uiso   1.00
O8     O     0.16667   0.12708   0.23720   0.00000  Uiso   1.00
O9     O     0.16667   0.20625   0.23720   0.00000  Uiso   1.00
O10    O     0.16667   0.12708   0.09613   0.00000  Uiso   1.00
C11    C     0.16670   0.16665   0.07354   0.00000  Uiso   1.00
C12    C     0.16663   0.16668   0.25979   0.00000  Uiso   1.00
Cu13   Cu    0.16667   0.21355   0.16667   0.00000  Uiso   1.00
Cu14   Cu    0.16667   0.11978   0.16667   0.00000  Uiso   1.00
C15    C     0.16668   0.16665   0.02184   0.00000  Uiso   1.00
C16    C     0.16665   0.16669   0.31149   0.00000  Uiso   1.00
C17    C     0.02174   0.13742   0.19936   0.00000  Uiso   1.00
C18    C     0.31160   0.19592   0.13397   0.00000  Uiso   1.00
C19    C     0.31203   0.13780   0.20019   0.00000  Uiso   1.00
C20    C     0.02130   0.19553   0.13314   0.00000  Uiso   1.00
C21    C     0.29051   0.16696   0.16726   0.00000  Uiso   1.00
C22    C     0.04282   0.16637   0.16607   0.00000  Uiso   1.00
C23    C     0.14098   0.02471   0.13613   0.00000  Uiso   1.00
C24    C     0.19235   0.30862   0.19720   0.00000  Uiso   1.00
C25    C     0.19232   0.02487   0.19722   0.00000  Uiso   1.00
C26    C     0.14101   0.30847   0.13611   0.00000  Uiso   1.00
H27    H     0.12039   0.04329   0.11166   0.00000  Uiso   1.00
H28    H     0.21295   0.29004   0.22167   0.00000  Uiso   1.00
H29    H     0.21283   0.04358   0.22177   0.00000  Uiso   1.00
H30    H     0.12050   0.28975   0.11156   0.00000  Uiso   1.00
N31    N     0.16667   0.28402   0.16667   0.00000  Uiso   1.00
N32    N     0.16667   0.04931   0.16667   0.00000  Uiso   1.00
N33    N     0.04405   0.11037   0.23493   0.00000  Uiso   1.00
O34    O     0.06338   0.13126   0.27074   0.00000  Uiso   1.00
O35    O     0.04942   0.06579   0.22798   0.00000  Uiso   1.00
N36    N     0.28928   0.22296   0.09841   0.00000  Uiso   1.00
O37    O     0.26994   0.20207   0.06260   0.00000  Uiso   1.00
O38    O     0.28393   0.26755   0.10535   0.00000  Uiso   1.00
N39    N     0.29040   0.11099   0.23656   0.00000  Uiso   1.00
O40    O     0.29702   0.06634   0.24102   0.00000  Uiso   1.00
O41    O     0.26468   0.13142   0.26611   0.00000  Uiso   1.00
N42    N     0.04293   0.22234   0.09678   0.00000  Uiso   1.00
O43    O     0.03632   0.26699   0.09232   0.00000  Uiso   1.00
O44    O     0.06865   0.20192   0.06722   0.00000  Uiso   1.00
O45    O     0.43988   0.20625   0.16666   0.00000  Uiso   1.00
O46    O     0.56012   0.12709   0.16667   0.00000  Uiso   1.00
O47    O     0.56012   0.20625   0.16667   0.00000  Uiso   1.00
O48    O     0.43988   0.12709   0.16666   0.00000  Uiso   1.00
C49    C     0.42080   0.16661   0.16641   0.00000  Uiso   1.00
C50    C     0.57920   0.16673   0.16692   0.00000  Uiso   1.00
O51    O     0.50000   0.20625   0.09613   0.00000  Uiso   1.00
O52    O     0.50000   0.12708   0.23720   0.00000  Uiso   1.00
O53    O     0.50000   0.20625   0.23720   0.00000  Uiso   1.00
O54    O     0.50000   0.12708   0.09613   0.00000  Uiso   1.00
C55    C     0.50004   0.16665   0.07354   0.00000  Uiso   1.00
C56    C     0.49996   0.16668   0.25979   0.00000  Uiso   1.00
Cu57   Cu    0.50000   0.21355   0.16667   0.00000  Uiso   1.00
Cu58   Cu    0.50000   0.11978   0.16667   0.00000  Uiso   1.00
C59    C     0.50001   0.16665   0.02184   0.00000  Uiso   1.00
C60    C     0.49998   0.16669   0.31149   0.00000  Uiso   1.00
C61    C     0.35507   0.13742   0.19936   0.00000  Uiso   1.00
C62    C     0.64493   0.19592   0.13397   0.00000  Uiso   1.00
C63    C     0.64537   0.13780   0.20019   0.00000  Uiso   1.00
C64    C     0.35463   0.19553   0.13314   0.00000  Uiso   1.00
C65    C     0.62384   0.16696   0.16726   0.00000  Uiso   1.00
C66    C     0.37616   0.16637   0.16607   0.00000  Uiso   1.00
C67    C     0.47432   0.02471   0.13613   0.00000  Uiso   1.00
C68    C     0.52568   0.30862   0.19720   0.00000  Uiso   1.00
C69    C     0.52566   0.02487   0.19722   0.00000  Uiso   1.00
C70    C     0.47434   0.30847   0.13611   0.00000  Uiso   1.00
H71    H     0.45372   0.04329   0.11166   0.00000  Uiso   1.00
H72    H     0.54628   0.29004   0.22167   0.00000  Uiso   1.00
H73    H     0.54617   0.04358   0.22177   0.00000  Uiso   1.00
H74    H     0.45383   0.28975   0.11156   0.00000  Uiso   1.00
N75    N     0.50000   0.28402   0.16667   0.00000  Uiso   1.00
N76    N     0.50000   0.04931   0.16667   0.00000  Uiso   1.00
N77    N     0.37739   0.11037   0.23493   0.00000  Uiso   1.00
O78    O     0.39672   0.13126   0.27074   0.00000  Uiso   1.00
O79    O     0.38275   0.06579   0.22798   0.00000  Uiso   1.00
N80    N     0.62261   0.22296   0.09841   0.00000  Uiso   1.00
O81    O     0.60327   0.20207   0.06260   0.00000  Uiso   1.00
O82    O     0.61726   0.26755   0.10535   0.00000  Uiso   1.00
N83    N     0.62374   0.11099   0.23656   0.00000  Uiso   1.00
O84    O     0.63035   0.06634   0.24102   0.00000  Uiso   1.00
O85    O     0.59801   0.13142   0.26611   0.00000  Uiso   1.00
N86    N     0.37626   0.22234   0.09678   0.00000  Uiso   1.00
O87    O     0.36966   0.26699   0.09232   0.00000  Uiso   1.00
O88    O     0.40199   0.20192   0.06722   0.00000  Uiso   1.00
O89    O     0.77321   0.20625   0.16666   0.00000  Uiso   1.00
O90    O     0.89345   0.12709   0.16667   0.00000  Uiso   1.00
O91    O     0.89345   0.20625   0.16667   0.00000  Uiso   1.00
O92    O     0.77321   0.12709   0.16666   0.00000  Uiso   1.00
C93    C     0.75414   0.16661   0.16641   0.00000  Uiso   1.00
C94    C     0.91253   0.16673   0.16692   0.00000  Uiso   1.00
O95    O     0.83333   0.20625   0.09613   0.00000  Uiso   1.00
O96    O     0.83333   0.12708   0.23720   0.00000  Uiso   1.00
O97    O     0.83333   0.20625   0.23720   0.00000  Uiso   1.00
O98    O     0.83333   0.12708   0.09613   0.00000  Uiso   1.00
C99    C     0.83337   0.16665   0.07354   0.00000  Uiso   1.00
C100   C     0.83330   0.16668   0.25979   0.00000  Uiso   1.00
Cu101  Cu    0.83333   0.21355   0.16667   0.00000  Uiso   1.00
Cu102  Cu    0.83333   0.11978   0.16667   0.00000  Uiso   1.00
C103   C     0.83335   0.16665   0.02184   0.00000  Uiso   1.00
C104   C     0.83332   0.16669   0.31149   0.00000  Uiso   1.00
C105   C     0.68840   0.13742   0.19936   0.00000  Uiso   1.00
C106   C     0.97826   0.19592   0.13397   0.00000  Uiso   1.00
C107   C     0.97870   0.13780   0.20019   0.00000  Uiso   1.00
C108   C     0.68797   0.19553   0.13314   0.00000  Uiso   1.00
C109   C     0.95718   0.16696   0.16726   0.00000  Uiso   1.00
C110   C     0.70949   0.16637   0.16607   0.00000  Uiso   1.00
C111   C     0.80765   0.02471   0.13613   0.00000  Uiso   1.00
C112   C     0.85902   0.30862   0.19720   0.00000  Uiso   1.00
C113   C     0.85899   0.02487   0.19722   0.00000  Uiso   1.00
C114   C     0.80767   0.30847   0.13611   0.00000  Uiso   1.00
H115   H     0.78705   0.04329   0.11166   0.00000  Uiso   1.00
H116   H     0.87961   0.29004   0.22167   0.00000  Uiso   1.00
H117   H     0.87950   0.04358   0.22177   0.00000  Uiso   1.00
H118   H     0.78717   0.28975   0.11156   0.00000  Uiso   1.00
N119   N     0.83333   0.28402   0.16667   0.00000  Uiso   1.00
N120   N     0.83333   0.04931   0.16667   0.00000  Uiso   1.00
N121   N     0.71072   0.11037   0.23493   0.00000  Uiso   1.00
O122   O     0.73005   0.13126   0.27074   0.00000  Uiso   1.00
O123   O     0.71609   0.06579   0.22798   0.00000  Uiso   1.00
N124   N     0.95595   0.22296   0.09841   0.00000  Uiso   1.00
O125   O     0.93660   0.20207   0.06260   0.00000  Uiso   1.00
O126   O     0.95059   0.26755   0.10535   0.00000  Uiso   1.00
N127   N     0.95707   0.11099   0.23656   0.00000  Uiso   1.00
O128   O     0.96368   0.06634   0.24102   0.00000  Uiso   1.00
O129   O     0.93134   0.13142   0.26611   0.00000  Uiso   1.00
N130   N     0.70960   0.22234   0.09678   0.00000  Uiso   1.00
O131   O     0.70299   0.26699   0.09232   0.00000  Uiso   1.00
O132   O     0.73532   0.20192   0.06722   0.00000  Uiso   1.00
O133   O     0.10655   0.53958   0.16666   0.00000  Uiso   1.00
O134   O     0.22679   0.46042   0.16667   0.00000  Uiso   1.00
O135   O     0.22679   0.53958   0.16667   0.00000  Uiso   1.00
O136   O     0.10655   0.46042   0.16666   0.00000  Uiso   1.00
C137   C     0.08747   0.49994   0.16641   0.00000  Uiso   1.00
C138   C     0.24586   0.50006   0.16692   0.00000  Uiso   1.00
O139   O     0.16667   0.53959   0.09613   0.00000  Uiso   1.00
O140   O     0.16667   0.46041   0.23720   0.00000  Uiso   1.00
O141   O     0.16667   0.53959   0.23720   0.00000  Uiso   1.00
O142   O     0.16667   0.46041   0.09613   0.00000  Uiso   1.00
C143   C     0.16670   0.49999   0.07354   0.00000  Uiso   1.00
C144   C     0.16663   0.50001   0.25979   0.00000  Uiso   1.00
Cu145  Cu    0.16667   0.54689   0.16667   0.00000  Uiso   1.00
Cu146  Cu    0.16667   0.45311   0.16667   0.00000  Uiso   1.00
C147   C     0.16668   0.49998   0.02184   0.00000  Uiso   1.00
C148   C     0.16665   0.50002   0.31149   0.00000  Uiso   1.00
C149   C     0.02174   0.47075   0.19936   0.00000  Uiso   1.00
C150   C     0.31160   0.52925   0.13397   0.00000  Uiso   1.00
C151   C     0.31203   0.47113   0.20019   0.00000  Uiso   1.00
C152   C     0.02130   0.52887   0.13314   0.00000  Uiso   1.00
C153   C     0.29051   0.50029   0.16726   0.00000  Uiso   1.00
C154   C     0.04282   0.49971   0.16607   0.00000  Uiso   1.00
C155   C     0.14098   0.35804   0.13613   0.00000  Uiso   1.00
C156   C     0.19235   0.64196   0.19720   0.00000  Uiso   1.00
C157   C     0.19232   0.35820   0.19722   0.00000  Uiso   1.00
C158   C     0.14101   0.64180   0.13611   0.00000  Uiso   1.00
H159   H     0.12039   0.37663   0.11166   0.00000  Uiso   1.00
H160   H     0.21295   0.62337   0.22167   0.00000  Uiso   1.00
H161   H     0.21283   0.37691   0.22177   0.00000  Uiso   1.00
H162   H     0.12050   0.62309   0.11156   0.00000  Uiso   1.00
N163   N     0.16667   0.61736   0.16667   0.00000  Uiso   1.00
N164   N     0.16667   0.38264   0.16667   0.00000  Uiso   1.00
N165   N     0.04405   0.44371   0.23493   0.00000  Uiso   1.00
O166   O     0.06338   0.46459   0.27074   0.00000  Uiso   1.00
O167   O     0.04942   0.39912   0.22798   0.00000  Uiso   1.00
N168   N     0.28928   0.55629   0.09841   0.00000  Uiso   1.00
O169   O     0.26994   0.53541   0.06260   0.00000  Uiso   1.00
O170   O     0.28393   0.60088   0.10535   0.00000  Uiso   1.00
N171   N     0.29040   0.44432   0.23656   0.00000  Uiso   1.00
O172   O     0.29702   0.39968   0.24102   0.00000  Uiso   1.00
O173   O     0.26468   0.46475   0.26611   0.00000  Uiso   1.00
N174   N     0.04293   0.55568   0.09678   0.00000  Uiso   1.00
O175   O     0.03632   0.60032   0.09232   0.00000  Uiso   1.00
O176   O     0.06865   0.53525   0.06722   0.00000  Uiso   1.00
O177   O     0.43988   0.53958   0.16666   0.00000  Uiso   1.00
O178   O     0.56012   0.46042   0.16667   0.00000  Uiso   1.00
O179   O     0.56012   0.53958   0.16667   0.00000  Uiso   1.00
O180   O     0.43988   0.46042   0.16666   0.00000  Uiso   1.00
C181   C     0.42080   0.49994   0.16641   0.00000  Uiso   1.00
C182   C     0.57920   0.50006   0.16692   0.00000  Uiso   1.00
O183   O     0.50000   0.53959   0.09613   0.00000  Uiso   1.00
O184   O     0.50000   0.46041   0.23720   0.00000  Uiso   1.00
O185   O     0.50000   0.53959   0.23720   0.00000  Uiso   1.00
O186   O     0.50000   0.46041   0.09613   0.00000  Uiso   1.00
C187   C     0.50004   0.49999   0.07354   0.00000  Uiso   1.00
C188   C     0.49996   0.50001   0.25979   0.00000  Uiso   1.00
Cu189  Cu    0.50000   0.54689   0.16667   0.00000  Uiso   1.00
Cu190  Cu    0.50000   0.45311   0.16667   0.00000  Uiso   1.00
C191   C     0.50001   0.49998   0.02184   0.00000  Uiso   1.00
C192   C     0.49998   0.50002   0.31149   0.00000  Uiso   1.00
C193   C     0.35507   0.47075   0.19936   0.00000  Uiso   1.00
C194   C     0.64493   0.52925   0.13397   0.00000  Uiso   1.00
C195   C     0.64537   0.47113   0.20019   0.00000  Uiso   1.00
C196   C     0.35463   0.52887   0.13314   0.00000  Uiso   1.00
C197   C     0.62384   0.50029   0.16726   0.00000  Uiso   1.00
C198   C     0.37616   0.49971   0.16607   0.00000  Uiso   1.00
C199   C     0.47432   0.35804   0.13613   0.00000  Uiso   1.00
C200   C     0.52568   0.64196   0.19720   0.00000  Uiso   1.00
C201   C     0.52566   0.35820   0.19722   0.00000  Uiso   1.00
C202   C     0.47434   0.64180   0.13611   0.00000  Uiso   1.00
H203   H     0.45372   0.37663   0.11166   0.00000  Uiso   1.00
H204   H     0.54628   0.62337   0.22167   0.00000  Uiso   1.00
H205   H     0.54617   0.37691   0.22177   0.00000  Uiso   1.00
H206   H     0.45383   0.62309   0.11156   0.00000  Uiso   1.00
N207   N     0.50000   0.61736   0.16667   0.00000  Uiso   1.00
N208   N     0.50000   0.38264   0.16667   0.00000  Uiso   1.00
N209   N     0.37739   0.44371   0.23493   0.00000  Uiso   1.00
O210   O     0.39672   0.46459   0.27074   0.00000  Uiso   1.00
O211   O     0.38275   0.39912   0.22798   0.00000  Uiso   1.00
N212   N     0.62261   0.55629   0.09841   0.00000  Uiso   1.00
O213   O     0.60327   0.53541   0.06260   0.00000  Uiso   1.00
O214   O     0.61726   0.60088   0.10535   0.00000  Uiso   1.00
N215   N     0.62374   0.44432   0.23656   0.00000  Uiso   1.00
O216   O     0.63035   0.39968   0.24102   0.00000  Uiso   1.00
O217   O     0.59801   0.46475   0.26611   0.00000  Uiso   1.00
N218   N     0.37626   0.55568   0.09678   0.00000  Uiso   1.00
O219   O     0.36966   0.60032   0.09232   0.00000  Uiso   1.00
O220   O     0.40199   0.53525   0.06722   0.00000  Uiso   1.00
O221   O     0.77321   0.53958   0.16666   0.00000  Uiso   1.00
O222   O     0.89345   0.46042   0.16667   0.00000  Uiso   1.00
O223   O     0.89345   0.53958   0.16667   0.00000  Uiso   1.00
O224   O     0.77321   0.46042   0.16666   0.00000  Uiso   1.00
C225   C     0.75414   0.49994   0.16641   0.00000  Uiso   1.00
C226   C     0.91253   0.50006   0.16692   0.00000  Uiso   1.00
O227   O     0.83333   0.53959   0.09613   0.00000  Uiso   1.00
O228   O     0.83333   0.46041   0.23720   0.00000  Uiso   1.00
O229   O     0.83333   0.53959   0.23720   0.00000  Uiso   1.00
O230   O     0.83333   0.46041   0.09613   0.00000  Uiso   1.00
C231   C     0.83337   0.49999   0.07354   0.00000  Uiso   1.00
C232   C     0.83330   0.50001   0.25979   0.00000  Uiso   1.00
Cu233  Cu    0.83333   0.54689   0.16667   0.00000  Uiso   1.00
Cu234  Cu    0.83333   0.45311   0.16667   0.00000  Uiso   1.00
C235   C     0.83335   0.49998   0.02184   0.00000  Uiso   1.00
C236   C     0.83332   0.50002   0.31149   0.00000  Uiso   1.00
C237   C     0.68840   0.47075   0.19936   0.00000  Uiso   1.00
C238   C     0.97826   0.52925   0.13397   0.00000  Uiso   1.00
C239   C     0.97870   0.47113   0.20019   0.00000  Uiso   1.00
C240   C     0.68797   0.52887   0.13314   0.00000  Uiso   1.00
C241   C     0.95718   0.50029   0.16726   0.00000  Uiso   1.00
C242   C     0.70949   0.49971   0.16607   0.00000  Uiso   1.00
C243   C     0.80765   0.35804   0.13613   0.00000  Uiso   1.00
C244   C     0.85902   0.64196   0.19720   0.00000  Uiso   1.00
C245   C     0.85899   0.35820   0.19722   0.00000  Uiso   1.00
C246   C     0.80767   0.64180   0.13611   0.00000  Uiso   1.00
H247   H     0.78705   0.37663   0.11166   0.00000  Uiso   1.00
H248   H     0.87961   0.62337   0.22167   0.00000  Uiso   1.00
H249   H     0.87950   0.37691   0.22177   0.00000  Uiso   1.00
H250   H     0.78717   0.62309   0.11156   0.00000  Uiso   1.00
N251   N     0.83333   0.61736   0.16667   0.00000  Uiso   1.00
N252   N     0.83333   0.38264   0.16667   0.00000  Uiso   1.00
N253   N     0.71072   0.44371   0.23493   0.00000  Uiso   1.00
O254   O     0.73005   0.46459   0.27074   0.00000  Uiso   1.00
O255   O     0.71609   0.39912   0.22798   0.00000  Uiso   1.00
N256   N     0.95595   0.55629   0.09841   0.00000  Uiso   1.00
O257   O     0.93660   0.53541   0.06260   0.00000  Uiso   1.00
O258   O     0.95059   0.60088   0.10535   0.00000  Uiso   1.00
N259   N     0.95707   0.44432   0.23656   0.00000  Uiso   1.00
O260   O     0.96368   0.39968   0.24102   0.00000  Uiso   1.00
O261   O     0.93134   0.46475   0.26611   0.00000  Uiso   1.00
N262   N     0.70960   0.55568   0.09678   0.00000  Uiso   1.00
O263   O     0.70299   0.60032   0.09232   0.00000  Uiso   1.00
O264   O     0.73532   0.53525   0.06722   0.00000  Uiso   1.00
O265   O     0.10655   0.87291   0.16666   0.00000  Uiso   1.00
O266   O     0.22679   0.79375   0.16667   0.00000  Uiso   1.00
O267   O     0.22679   0.87291   0.16667   0.00000  Uiso   1.00
O268   O     0.10655   0.79375   0.16666   0.00000  Uiso   1.00
C269   C     0.08747   0.83327   0.16641   0.00000  Uiso   1.00
C270   C     0.24586   0.83339   0.16692   0.00000  Uiso   1.00
O271   O     0.16667   0.87292   0.09613   0.00000  Uiso   1.00
O272   O     0.16667   0.79375   0.23720   0.00000  Uiso   1.00
O273   O     0.16667   0.87292   0.23720   0.00000  Uiso   1.00
O274   O     0.16667   0.79375   0.09613   0.00000  Uiso   1.00
C275   C     0.16670   0.83332   0.07354   0.00000  Uiso   1.00
C276   C     0.16663   0.83335   0.25979   0.00000  Uiso   1.00
Cu277  Cu    0.16667   0.88022   0.16667   0.00000  Uiso   1.00
Cu278  Cu    0.16667   0.78645   0.16667   0.00000  Uiso   1.00
C279   C     0.16668   0.83331   0.02184   0.00000  Uiso   1.00
C280   C     0.16665   0.83335   0.31149   0.00000  Uiso   1.00
C281   C     0.02174   0.80408   0.19936   0.00000  Uiso   1.00
C282   C     0.31160   0.86259   0.13397   0.00000  Uiso   1.00
C283   C     0.31203   0.80447   0.20019   0.00000  Uiso   1.00
C284   C     0.02130   0.86220   0.13314   0.00000  Uiso   1.00
C285   C     0.29051   0.83363   0.16726   0.00000  Uiso   1.00
C286   C     0.04282   0.83304   0.16607   0.00000  Uiso   1.00
C287   C     0.14098   0.69138   0.13613   0.00000  Uiso   1.00
C288   C     0.19235   0.97529   0.19720   0.00000  Uiso   1.00
C289   C     0.19232   0.69153   0.19722   0.00000  Uiso   1.00
C290   C     0.14101   0.97513   0.13611   0.00000  Uiso   1.00
H291   H     0.12039   0.70996   0.11166   0.00000  Uiso   1.00
H292   H     0.21295   0.95671   0.22167   0.00000  Uiso   1.00
H293   H     0.21283   0.71025   0.22177   0.00000  Uiso   1.00
H294   H     0.12050   0.95642   0.11156   0.00000  Uiso   1.00
N295   N     0.16667   0.95069   0.16667   0.00000  Uiso   1.00
N296   N     0.16667   0.71598   0.16667   0.00000  Uiso   1.00
N297   N     0.04405   0.77704   0.23493   0.00000  Uiso   1.00
O298   O     0.06338   0.79792   0.27074   0.00000  Uiso   1.00
O299   O     0.04942   0.73246   0.22798   0.00000  Uiso   1.00
N300   N     0.28928   0.88963   0.09841   0.00000  Uiso   1.00
O301   O     0.26994   0.86874   0.06260   0.00000  Uiso   1.00
O302   O     0.28393   0.93421   0.10535   0.00000  Uiso   1.00
N303   N     0.29040   0.77766   0.23656   0.00000  Uiso   1.00
O304   O     0.29702   0.73301   0.24102   0.00000  Uiso   1.00
O305   O     0.26468   0.79808   0.26611   0.00000  Uiso   1.00
N306   N     0.04293   0.88901   0.09678   0.00000  Uiso   1.00
O307   O     0.03632   0.93366   0.09232   0.00000  Uiso   1.00
O308   O     0.06865   0.86858   0.06722   0.00000  Uiso   1.00
O309   O     0.43988   0.87291   0.16666   0.00000  Uiso   1.00
O310   O     0.56012   0.79375   0.16667   0.00000  Uiso   1.00
O311   O     0.56012   0.87291   0.16667   0.00000  Uiso   1.00
O312   O     0.43988   0.79375   0.16666   0.00000  Uiso   1.00
C313   C     0.42080   0.83327   0.16641   0.00000  Uiso   1.00
C314   C     0.57920   0.83339   0.16692   0.00000  Uiso   1.00
O315   O     0.50000   0.87292   0.09613   0.00000  Uiso   1.00
O316   O     0.50000   0.79375   0.23720   0.00000  Uiso   1.00
O317   O     0.50000   0.87292   0.23720   0.00000  Uiso   1.00
O318   O     0.50000   0.79375   0.09613   0.00000  Uiso   1.00
C319   C     0.50004   0.83332   0.07354   0.00000  Uiso   1.00
C320   C     0.49996   0.83335   0.25979   0.00000  Uiso   1.00
Cu321  Cu    0.50000   0.88022   0.16667   0.00000  Uiso   1.00
Cu322  Cu    0.50000   0.78645   0.16667   0.00000  Uiso   1.00
C323   C     0.50001   0.83331   0.02184   0.00000  Uiso   1.00
C324   C     0.49998   0.83335   0.31149   0.00000  Uiso   1.00
C325   C     0.35507   0.80408   0.19936   0.00000  Uiso   1.00
C326   C     0.64493   0.86259   0.13397   0.00000  Uiso   1.00
C327   C     0.64537   0.80447   0.20019   0.00000  Uiso   1.00
C328   C     0.35463   0.86220   0.13314   0.00000  Uiso   1.00
C329   C     0.62384   0.83363   0.16726   0.00000  Uiso   1.00
C330   C     0.37616   0.83304   0.16607   0.00000  Uiso   1.00
C331   C     0.47432   0.69138   0.13613   0.00000  Uiso   1.00
C332   C     0.52568   0.97529   0.19720   0.00000  Uiso   1.00
C333   C     0.52566   0.69153   0.19722   0.00000  Uiso   1.00
C334   C     0.47434   0.97513   0.13611   0.00000  Uiso   1.00
H335   H     0.45372   0.70996   0.11166   0.00000  Uiso   1.00
H336   H     0.54628   0.95671   0.22167   0.00000  Uiso   1.00
H337   H     0.54617   0.71025   0.22177   0.00000  Uiso   1.00
H338   H     0.45383   0.95642   0.11156   0.00000  Uiso   1.00
N339   N     0.50000   0.95069   0.16667   0.00000  Uiso   1.00
N340   N     0.50000   0.71598   0.16667   0.00000  Uiso   1.00
N341   N     0.37739   0.77704   0.23493   0.00000  Uiso   1.00
O342   O     0.39672   0.79792   0.27074   0.00000  Uiso   1.00
O343   O     0.38275   0.73246   0.22798   0.00000  Uiso   1.00
N344   N     0.62261   0.88963   0.09841   0.00000  Uiso   1.00
O345   O     0.60327   0.86874   0.06260   0.00000  Uiso   1.00
O346   O     0.61726   0.93421   0.10535   0.00000  Uiso   1.00
N347   N     0.62374   0.77766   0.23656   0.00000  Uiso   1.00
O348   O     0.63035   0.73301   0.24102   0.00000  Uiso   1.00
O349   O     0.59801   0.79808   0.26611   0.00000  Uiso   1.00
N350   N     0.37626   0.88901   0.09678   0.00000  Uiso   1.00
O351   O     0.36966   0.93366   0.09232   0.00000  Uiso   1.00
O352   O     0.40199   0.86858   0.06722   0.00000  Uiso   1.00
O353   O     0.77321   0.87291   0.16666   0.00000  Uiso   1.00
O354   O     0.89345   0.79375   0.16667   0.00000  Uiso   1.00
O355   O     0.89345   0.87291   0.16667   0.00000  Uiso   1.00
O356   O     0.77321   0.79375   0.16666   0.00000  Uiso   1.00
C357   C     0.75414   0.83327   0.16641   0.00000  Uiso   1.00
C358   C     0.91253   0.83339   0.16692   0.00000  Uiso   1.00
O359   O     0.83333   0.87292   0.09613   0.00000  Uiso   1.00
O360   O     0.83333   0.79375   0.23720   0.00000  Uiso   1.00
O361   O     0.83333   0.87292   0.23720   0.00000  Uiso   1.00
O362   O     0.83333   0.79375   0.09613   0.00000  Uiso   1.00
C363   C     0.83337   0.83332   0.07354   0.00000  Uiso   1.00
C364   C     0.83330   0.83335   0.25979   0.00000  Uiso   1.00
Cu365  Cu    0.83333   0.88022   0.16667   0.00000  Uiso   1.00
Cu366  Cu    0.83333   0.78645   0.16667   0.00000  Uiso   1.00
C367   C     0.83335   0.83331   0.02184   0.00000  Uiso   1.00
C368   C     0.83332   0.83335   0.31149   0.00000  Uiso   1.00
C369   C     0.68840   0.80408   0.19936   0.00000  Uiso   1.00
C370   C     0.97826   0.86259   0.13397   0.00000  Uiso   1.00
C371   C     0.97870   0.80447   0.20019   0.00000  Uiso   1.00
C372   C     0.68797   0.86220   0.13314   0.00000  Uiso   1.00
C373   C     0.95718   0.83363   0.16726   0.00000  Uiso   1.00
C374   C     0.70949   0.83304   0.16607   0.00000  Uiso   1.00
C375   C     0.80765   0.69138   0.13613   0.00000  Uiso   1.00
C376   C     0.85902   0.97529   0.19720   0.00000  Uiso   1.00
C377   C     0.85899   0.69153   0.19722   0.00000  Uiso   1.00
C378   C     0.80767   0.97513   0.13611   0.00000  Uiso   1.00
H379   H     0.78705   0.70996   0.11166   0.00000  Uiso   1.00
H380   H     0.87961   0.95671   0.22167   0.00000  Uiso   1.00
H381   H     0.87950   0.71025   0.22177   0.00000  Uiso   1.00
H382   H     0.78717   0.95642   0.11156   0.00000  Uiso   1.00
N383   N     0.83333   0.95069   0.16667   0.00000  Uiso   1.00
N384   N     0.83333   0.71598   0.16667   0.00000  Uiso   1.00
N385   N     0.71072   0.77704   0.23493   0.00000  Uiso   1.00
O386   O     0.73005   0.79792   0.27074   0.00000  Uiso   1.00
O387   O     0.71609   0.73246   0.22798   0.00000  Uiso   1.00
N388   N     0.95595   0.88963   0.09841   0.00000  Uiso   1.00
O389   O     0.93660   0.86874   0.06260   0.00000  Uiso   1.00
O390   O     0.95059   0.93421   0.10535   0.00000  Uiso   1.00
N391   N     0.95707   0.77766   0.23656   0.00000  Uiso   1.00
O392   O     0.96368   0.73301   0.24102   0.00000  Uiso   1.00
O393   O     0.93134   0.79808   0.26611   0.00000  Uiso   1.00
N394   N     0.70960   0.88901   0.09678   0.00000  Uiso   1.00
O395   O     0.70299   0.93366   0.09232   0.00000  Uiso   1.00
O396   O     0.73532   0.86858   0.06722   0.00000  Uiso   1.00
O397   O     0.10655   0.20625   0.50000   0.00000  Uiso   1.00
O398   O     0.22679   0.12709   0.50000   0.00000  Uiso   1.00
O399   O     0.22679   0.20625   0.50000   0.00000  Uiso   1.00
O400   O     0.10655   0.12709   0.50000   0.00000  Uiso   1.00
C401   C     0.08747   0.16661   0.49974   0.00000  Uiso   1.00
C402   C     0.24586   0.16673   0.50026   0.00000  Uiso   1.00
O403   O     0.16667   0.20625   0.42946   0.00000  Uiso   1.00
O404   O     0.16667   0.12708   0.57054   0.00000  Uiso   1.00
O405   O     0.16667   0.20625   0.57054   0.00000  Uiso   1.00
O406   O     0.16667   0.12708   0.42946   0.00000  Uiso   1.00
C407   C     0.16670   0.16665   0.40687   0.00000  Uiso   1.00
C408   C     0.16663   0.16668   0.59313   0.00000  Uiso   1.00
Cu409  Cu    0.16667   0.21355   0.50000   0.00000  Uiso   1.00
Cu410  Cu    0.16667   0.11978   0.50000   0.00000  Uiso   1.00
C411   C     0.16668   0.16665   0.35518   0.00000  Uiso   1.00
C412   C     0.16665   0.16669   0.64482   0.00000  Uiso   1.00
C413   C     0.02174   0.13742   0.53270   0.00000  Uiso   1.00
C414   C     0.31160   0.19592   0.46730   0.00000  Uiso   1.00
C415   C     0.31203   0.13780   0.53353   0.00000  Uiso   1.00
C416   C     0.02130   0.19553   0.46647   0.00000  Uiso   1.00
C417   C     0.29051   0.16696   0.50059   0.00000  Uiso   1.00
C418   C     0.04282   0.16637   0.49941   0.00000  Uiso   1.00
C419   C     0.14098   0.02471   0.46947   0.00000  Uiso   1.00
C420   C     0.19235   0.30862   0.53053   0.00000  Uiso   1.00
C421   C     0.19232   0.02487   0.53056   0.00000  Uiso   1.00
C422   C     0.14101   0.30847   0.46944   0.00000  Uiso   1.00
H423   H     0.12039   0.04329   0.44500   0.00000  Uiso   1.00
H424   H     0.21295   0.29004   0.55500   0.00000  Uiso   1.00
H425   H     0.21283   0.04358   0.55511   0.00000  Uiso   1.00
H426   H     0.12050   0.28975   0.44489   0.00000  Uiso   1.00
N427   N     0.16667   0.28402   0.50000   0.00000  Uiso   1.00
N428   N     0.16667   0.04931   0.50000   0.00000  Uiso   1.00
N429   N     0.04405   0.11037   0.56826   0.00000  Uiso   1.00
O430   O     0.06338   0.13126   0.60407   0.00000  Uiso   1.00
O431   O     0.04942   0.06579   0.56131   0.00000  Uiso   1.00
N432   N     0.28928   0.22296   0.43174   0.00000  Uiso   1.00
O433   O     0.26994   0.20207   0.39594   0.00000  Uiso   1.00
O434   O     0.28393   0.26755   0.43868   0.00000  Uiso   1.00
N435   N     0.29040   0.11099   0.56989   0.00000  Uiso   1.00
O436   O     0.29702   0.06634   0.57435   0.00000  Uiso   1.00
O437   O     0.26468   0.13142   0.59945   0.00000  Uiso   1.00
N438   N     0.04293   0.22234   0.43011   0.00000  Uiso   1.00
O439   O     0.03632   0.26699   0.42565   0.00000  Uiso   1.00
O440   O     0.06865   0.20192   0.40055   0.00000  Uiso   1.00
O441   O     0.43988   0.20625   0.50000   0.00000  Uiso   1.00
O442   O     0.56012   0.12709   0.50000   0.00000  Uiso   1.00
O443   O     0.56012   0.20625   0.50000   0.00000  Uiso   1.00
O444   O     0.43988   0.12709   0.50000   0.00000  Uiso   1.00
C445   C     0.42080   0.16661   0.49974   0.00000  Uiso   1.00
C446   C     0.57920   0.16673   0.50026   0.00000  Uiso   1.00
O447   O     0.50000   0.20625   0.42946   0.00000  Uiso   1.00
O448   O     0.50000   0.12708   0.57054   0.00000  Uiso   1.00
O449   O     0.50000   0.20625   0.57054   0.00000  Uiso   1.00
O450   O     0.50000   0.12708   0.42946   0.00000  Uiso   1.00
C451   C     0.50004   0.16665   0.40687   0.00000  Uiso   1.00
C452   C     0.49996   0.16668   0.59313   0.00000  Uiso   1.00
Cu453  Cu    0.50000   0.21355   0.50000   0.00000  Uiso   1.00
Cu454  Cu    0.50000   0.11978   0.50000   0.00000  Uiso   1.00
C455   C     0.50001   0.16665   0.35518   0.00000  Uiso   1.00
C456   C     0.49998   0.16669   0.64482   0.00000  Uiso   1.00
C457   C     0.35507   0.13742   0.53270   0.00000  Uiso   1.00
C458   C     0.64493   0.19592   0.46730   0.00000  Uiso   1.00
C459   C     0.64537   0.13780   0.53353   0.00000  Uiso   1.00
C460   C     0.35463   0.19553   0.46647   0.00000  Uiso   1.00
C461   C     0.62384   0.16696   0.50059   0.00000  Uiso   1.00
C462   C     0.37616   0.16637   0.49941   0.00000  Uiso   1.00
C463   C     0.47432   0.02471   0.46947   0.00000  Uiso   1.00
C464   C     0.52568   0.30862   0.53053   0.00000  Uiso   1.00
C465   C     0.52566   0.02487   0.53056   0.00000  Uiso   1.00
C466   C     0.47434   0.30847   0.46944   0.00000  Uiso   1.00
H467   H     0.45372   0.04329   0.44500   0.00000  Uiso   1.00
H468   H     0.54628   0.29004   0.55500   0.00000  Uiso   1.00
H469   H     0.54617   0.04358   0.55511   0.00000  Uiso   1.00
H470   H     0.45383   0.28975   0.44489   0.00000  Uiso   1.00
N471   N     0.50000   0.28402   0.50000   0.00000  Uiso   1.00
N472   N     0.50000   0.04931   0.50000   0.00000  Uiso   1.00
N473   N     0.37739   0.11037   0.56826   0.00000  Uiso   1.00
O474   O     0.39672   0.13126   0.60407   0.00000  Uiso   1.00
O475   O     0.38275   0.06579   0.56131   0.00000  Uiso   1.00
N476   N     0.62261   0.22296   0.43174   0.00000  Uiso   1.00
O477   O     0.60327   0.20207   0.39594   0.00000  Uiso   1.00
O478   O     0.61726   0.26755   0.43868   0.00000  Uiso   1.00
N479   N     0.62374   0.11099   0.56989   0.00000  Uiso   1.00
O480   O     0.63035   0.06634   0.57435   0.00000  Uiso   1.00
O481   O     0.59801   0.13142   0.59945   0.00000  Uiso   1.00
N482   N     0.37626   0.22234   0.43011   0.00000  Uiso   1.00
O483   O     0.36966   0.26699   0.42565   0.00000  Uiso   1.00
O484   O     0.40199   0.20192   0.40055   0.00000  Uiso   1.00
O485   O     0.77321   0.20625   0.50000   0.00000  Uiso   1.00
O486   O     0.89345   0.12709   0.50000   0.00000  Uiso   1.00
O487   O     0.89345   0.20625   0.50000   0.00000  Uiso   1.00
O488   O     0.77321   0.12709   0.50000   0.00000  Uiso   1.00
C489   C     0.75414   0.16661   0.49974   0.00000  Uiso   1.00
C490   C     0.91253   0.16673   0.50026   0.00000  Uiso   1.00
O491   O     0.83333   0.20625   0.42946   0.00000  Uiso   1.00
O492   O     0.83333   0.12708   0.57054   0.00000  Uiso   1.00
O493   O     0.83333   0.20625   0.57054   0.00000  Uiso   1.00
O494   O     0.83333   0.12708   0.42946   0.00000  Uiso   1.00
C495   C     0.83337   0.16665   0.40687   0.00000  Uiso   1.00
C496   C     0.83330   0.16668   0.59313   0.00000  Uiso   1.00
Cu497  Cu    0.83333   0.21355   0.50000   0.00000  Uiso   1.00
Cu498  Cu    0.83333   0.11978   0.50000   0.00000  Uiso   1.00
C499   C     0.83335   0.16665   0.35518   0.00000  Uiso   1.00
C500   C     0.83332   0.16669   0.64482   0.00000  Uiso   1.00
C501   C     0.68840   0.13742   0.53270   0.00000  Uiso   1.00
C502   C     0.97826   0.19592   0.46730   0.00000  Uiso   1.00
C503   C     0.97870   0.13780   0.53353   0.00000  Uiso   1.00
C504   C     0.68797   0.19553   0.46647   0.00000  Uiso   1.00
C505   C     0.95718   0.16696   0.50059   0.00000  Uiso   1.00
C506   C     0.70949   0.16637   0.49941   0.00000  Uiso   1.00
C507   C     0.80765   0.02471   0.46947   0.00000  Uiso   1.00
C508   C     0.85902   0.30862   0.53053   0.00000  Uiso   1.00
C509   C     0.85899   0.02487   0.53056   0.00000  Uiso   1.00
C510   C     0.80767   0.30847   0.46944   0.00000  Uiso   1.00
H511   H     0.78705   0.04329   0.44500   0.00000  Uiso   1.00
H512   H     0.87961   0.29004   0.55500   0.00000  Uiso   1.00
H513   H     0.87950   0.04358   0.55511   0.00000  Uiso   1.00
H514   H     0.78717   0.28975   0.44489   0.00000  Uiso   1.00
N515   N     0.83333   0.28402   0.50000   0.00000  Uiso   1.00
N516   N     0.83333   0.04931   0.50000   0.00000  Uiso   1.00
N517   N     0.71072   0.11037   0.56826   0.00000  Uiso   1.00
O518   O     0.73005   0.13126   0.60407   0.00000  Uiso   1.00
O519   O     0.71609   0.06579   0.56131   0.00000  Uiso   1.00
N520   N     0.95595   0.22296   0.43174   0.00000  Uiso   1.00
O521   O     0.93660   0.20207   0.39594   0.00000  Uiso   1.00
O522   O     0.95059   0.26755   0.43868   0.00000  Uiso   1.00
N523   N     0.95707   0.11099   0.56989   0.00000  Uiso   1.00
O524   O     0.96368   0.06634   0.57435   0.00000  Uiso   1.00
O525   O     0.93134   0.13142   0.59945   0.00000  Uiso   1.00
N526   N     0.70960   0.22234   0.43011   0.00000  Uiso   1.00
O527   O     0.70299   0.26699   0.42565   0.00000  Uiso   1.00
O528   O     0.73532   0.20192   0.40055   0.00000  Uiso   1.00
O529   O     0.10655   0.53958   0.50000   0.00000  Uiso   1.00
O530   O     0.22679   0.46042   0.50000   0.00000  Uiso   1.00
O531   O     0.22679   0.53958   0.50000   0.00000  Uiso   1.00
O532   O     0.10655   0.46042   0.50000   0.00000  Uiso   1.00
C533   C     0.08747   0.49994   0.49974   0.00000  Uiso   1.00
C534   C     0.24586   0.50006   0.50026   0.00000  Uiso   1.00
O535   O     0.16667   0.53959   0.42946   0.00000  Uiso   1.00
O536   O     0.16667   0.46041   0.57054   0.00000  Uiso   1.00
O537   O     0.16667   0.53959   0.57054   0.00000  Uiso   1.00
O538   O     0.16667   0.46041   0.42946   0.00000  Uiso   1.00
C539   C     0.16670   0.49999   0.40687   0.00000  Uiso   1.00
C540   C     0.16663   0.50001   0.59313   0.00000  Uiso   1.00
Cu541  Cu    0.16667   0.54689   0.50000   0.00000  Uiso   1.00
Cu542  Cu    0.16667   0.45311   0.50000   0.00000  Uiso   1.00
C543   C     0.16668   0.49998   0.35518   0.00000  Uiso   1.00
C544   C     0.16665   0.50002   0.64482   0.00000  Uiso   1.00
C545   C     0.02174   0.47075   0.53270   0.00000  Uiso   1.00
C546   C     0.31160   0.52925   0.46730   0.00000  Uiso   1.00
C547   C     0.31203   0.47113   0.53353   0.00000  Uiso   1.00
C548   C     0.02130   0.52887   0.46647   0.00000  Uiso   1.00
C549   C     0.29051   0.50029   0.50059   0.00000  Uiso   1.00
C550   C     0.04282   0.49971   0.49941   0.00000  Uiso   1.00
C551   C     0.14098   0.35804   0.46947   0.00000  Uiso   1.00
C552   C     0.19235   0.64196   0.53053   0.00000  Uiso   1.00
C553   C     0.19232   0.35820   0.53056   0.00000  Uiso   1.00
C554   C     0.14101   0.64180   0.46944   0.00000  Uiso   1.00
H555   H     0.12039   0.37663   0.44500   0.00000  Uiso   1.00
H556   H     0.21295   0.62337   0.55500   0.00000  Uiso   1.00
H557   H     0.21283   0.37691   0.55511   0.00000  Uiso   1.00
H558   H     0.12050   0.62309   0.44489   0.00000  Uiso   1.00
N559   N     0.16667   0.61736   0.50000   0.00000  Uiso   1.00
N560   N     0.16667   0.38264   0.50000   0.00000  Uiso   1.00
N561   N     0.04405   0.44371   0.56826   0.00000  Uiso   1.00
O562   O     0.06338   0.46459   0.60407   0.00000  Uiso   1.00
O563   O     0.04942   0.39912   0.56131   0.00000  Uiso   1.00
N564   N     0.28928   0.55629   0.43174   0.00000  Uiso   1.00
O565   O     0.26994   0.53541   0.39594   0.00000  Uiso   1.00
O566   O     0.28393   0.60088   0.43868   0.00000  Uiso   1.00
N567   N     0.29040   0.44432   0.56989   0.00000  Uiso   1.00
O568   O     0.29702   0.39968   0.57435   0.00000  Uiso   1.00
O569   O     0.26468   0.46475   0.59945   0.00000  Uiso   1.00
N570   N     0.04293   0.55568   0.43011   0.00000  Uiso   1.00
O571   O     0.03632   0.60032   0.42565   0.00000  Uiso   1.00
O572   O     0.06865   0.53525   0.40055   0.00000  Uiso   1.00
O573   O     0.43988   0.53958   0.50000   0.00000  Uiso   1.00
O574   O     0.56012   0.46042   0.50000   0.00000  Uiso   1.00
O575   O     0.56012   0.53958   0.50000   0.00000  Uiso   1.00
O576   O     0.43988   0.46042   0.50000   0.00000  Uiso   1.00
C577   C     0.42080   0.49994   0.49974   0.00000  Uiso   1.00
C578   C     0.57920   0.50006   0.50026   0.00000  Uiso   1.00
O579   O     0.50000   0.53959   0.42946   0.00000  Uiso   1.00
O580   O     0.50000   0.46041   0.57054   0.00000  Uiso   1.00
O581   O     0.50000   0.53959   0.57054   0.00000  Uiso   1.00
O582   O     0.50000   0.46041   0.42946   0.00000  Uiso   1.00
C583   C     0.50004   0.49999   0.40687   0.00000  Uiso   1.00
C584   C     0.49996   0.50001   0.59313   0.00000  Uiso   1.00
Cu585  Cu    0.50000   0.54689   0.50000   0.00000  Uiso   1.00
Cu586  Cu    0.50000   0.45311   0.50000   0.00000  Uiso   1.00
C587   C     0.50001   0.49998   0.35518   0.00000  Uiso   1.00
C588   C     0.49998   0.50002   0.64482   0.00000  Uiso   1.00
C589   C     0.35507   0.47075   0.53270   0.00000  Uiso   1.00
C590   C     0.64493   0.52925   0.46730   0.00000  Uiso   1.00
C591   C     0.64537   0.47113   0.53353   0.00000  Uiso   1.00
C592   C     0.35463   0.52887   0.46647   0.00000  Uiso   1.00
C593   C     0.62384   0.50029   0.50059   0.00000  Uiso   1.00
C594   C     0.37616   0.49971   0.49941   0.00000  Uiso   1.00
C595   C     0.47432   0.35804   0.46947   0.00000  Uiso   1.00
C596   C     0.52568   0.64196   0.53053   0.00000  Uiso   1.00
C597   C     0.52566   0.35820   0.53056   0.00000  Uiso   1.00
C598   C     0.47434   0.64180   0.46944   0.00000  Uiso   1.00
H599   H     0.45372   0.37663   0.44500   0.00000  Uiso   1.00
H600   H     0.54628   0.62337   0.55500   0.00000  Uiso   1.00
H601   H     0.54617   0.37691   0.55511   0.00000  Uiso   1.00
H602   H     0.45383   0.62309   0.44489   0.00000  Uiso   1.00
N603   N     0.50000   0.61736   0.50000   0.00000  Uiso   1.00
N604   N     0.50000   0.38264   0.50000   0.00000  Uiso   1.00
N605   N     0.37739   0.44371   0.56826   0.00000  Uiso   1.00
O606   O     0.39672   0.46459   0.60407   0.00000  Uiso   1.00
O607   O     0.38275   0.39912   0.56131   0.00000  Uiso   1.00
N608   N     0.62261   0.55629   0.43174   0.00000  Uiso   1.00
O609   O     0.60327   0.53541   0.39594   0.00000  Uiso   1.00
O610   O     0.61726   0.60088   0.43868   0.00000  Uiso   1.00
N611   N     0.62374   0.44432   0.56989   0.00000  Uiso   1.00
O612   O     0.63035   0.39968   0.57435   0.00000  Uiso   1.00
O613   O     0.59801   0.46475   0.59945   0.00000  Uiso   1.00
N614   N     0.37626   0.55568   0.43011   0.00000  Uiso   1.00
O615   O     0.36966   0.60032   0.42565   0.00000  Uiso   1.00
O616   O     0.40199   0.53525   0.40055   0.00000  Uiso   1.00
O617   O     0.77321   0.53958   0.50000   0.00000  Uiso   1.00
O618   O     0.89345   0.46042   0.50000   0.00000  Uiso   1.00
O619   O     0.89345   0.53958   0.50000   0.00000  Uiso   1.00
O620   O     0.77321   0.46042   0.50000   0.00000  Uiso   1.00
C621   C     0.75414   0.49994   0.49974   0.00000  Uiso   1.00
C622   C     0.91253   0.50006   0.50026   0.00000  Uiso   1.00
O623   O     0.83333   0.53959   0.42946   0.00000  Uiso   1.00
O624   O     0.83333   0.46041   0.57054   0.00000  Uiso   1.00
O625   O     0.83333   0.53959   0.57054   0.00000  Uiso   1.00
O626   O     0.83333   0.46041   0.42946   0.00000  Uiso   1.00
C627   C     0.83337   0.49999   0.40687   0.00000  Uiso   1.00
C628   C     0.83330   0.50001   0.59313   0.00000  Uiso   1.00
Cu629  Cu    0.83333   0.54689   0.50000   0.00000  Uiso   1.00
Cu630  Cu    0.83333   0.45311   0.50000   0.00000  Uiso   1.00
C631   C     0.83335   0.49998   0.35518   0.00000  Uiso   1.00
C632   C     0.83332   0.50002   0.64482   0.00000  Uiso   1.00
C633   C     0.68840   0.47075   0.53270   0.00000  Uiso   1.00
C634   C     0.97826   0.52925   0.46730   0.00000  Uiso   1.00
C635   C     0.97870   0.47113   0.53353   0.00000  Uiso   1.00
C636   C     0.68797   0.52887   0.46647   0.00000  Uiso   1.00
C637   C     0.95718   0.50029   0.50059   0.00000  Uiso   1.00
C638   C     0.70949   0.49971   0.49941   0.00000  Uiso   1.00
C639   C     0.80765   0.35804   0.46947   0.00000  Uiso   1.00
C640   C     0.85902   0.64196   0.53053   0.00000  Uiso   1.00
C641   C     0.85899   0.35820   0.53056   0.00000  Uiso   1.00
C642   C     0.80767   0.64180   0.46944   0.00000  Uiso   1.00
H643   H     0.78705   0.37663   0.44500   0.00000  Uiso   1.00
H644   H     0.87961   0.62337   0.55500   0.00000  Uiso   1.00
H645   H     0.87950   0.37691   0.55511   0.00000  Uiso   1.00
H646   H     0.78717   0.62309   0.44489   0.00000  Uiso   1.00
N647   N     0.83333   0.61736   0.50000   0.00000  Uiso   1.00
N648   N     0.83333   0.38264   0.50000   0.00000  Uiso   1.00
N649   N     0.71072   0.44371   0.56826   0.00000  Uiso   1.00
O650   O     0.73005   0.46459   0.60407   0.00000  Uiso   1.00
O651   O     0.71609   0.39912   0.56131   0.00000  Uiso   1.00
N652   N     0.95595   0.55629   0.43174   0.00000  Uiso   1.00
O653   O     0.93660   0.53541   0.39594   0.00000  Uiso   1.00
O654   O     0.95059   0.60088   0.43868   0.00000  Uiso   1.00
N655   N     0.95707   0.44432   0.56989   0.00000  Uiso   1.00
O656   O     0.96368   0.39968   0.57435   0.00000  Uiso   1.00
O657   O     0.93134   0.46475   0.59945   0.00000  Uiso   1.00
N658   N     0.70960   0.55568   0.43011   0.00000  Uiso   1.00
O659   O     0.70299   0.60032   0.42565   0.00000  Uiso   1.00
O660   O     0.73532   0.53525   0.40055   0.00000  Uiso   1.00
O661   O     0.10655   0.87291   0.50000   0.00000  Uiso   1.00
O662   O     0.22679   0.79375   0.50000   0.00000  Uiso   1.00
O663   O     0.22679   0.87291   0.50000   0.00000  Uiso   1.00
O664   O     0.10655   0.79375   0.50000   0.00000  Uiso   1.00
C665   C     0.08747   0.83327   0.49974   0.00000  Uiso   1.00
C666   C     0.24586   0.83339   0.50026   0.00000  Uiso   1.00
O667   O     0.16667   0.87292   0.42946   0.00000  Uiso   1.00
O668   O     0.16667   0.79375   0.57054   0.00000  Uiso   1.00
O669   O     0.16667   0.87292   0.57054   0.00000  Uiso   1.00
O670   O     0.16667   0.79375   0.42946   0.00000  Uiso   1.00
C671   C     0.16670   0.83332   0.40687   0.00000  Uiso   1.00
C672   C     0.16663   0.83335   0.59313   0.00000  Uiso   1.00
Cu673  Cu    0.16667   0.88022   0.50000   0.00000  Uiso   1.00
Cu674  Cu    0.16667   0.78645   0.50000   0.00000  Uiso   1.00
C675   C     0.16668   0.83331   0.35518   0.00000  Uiso   1.00
C676   C     0.16665   0.83335   0.64482   0.00000  Uiso   1.00
C677   C     0.02174   0.80408   0.53270   0.00000  Uiso   1.00
C678   C     0.31160   0.86259   0.46730   0.00000  Uiso   1.00
C679   C     0.31203   0.80447   0.53353   0.00000  Uiso   1.00
C680   C     0.02130   0.86220   0.46647   0.00000  Uiso   1.00
C681   C     0.29051   0.83363   0.50059   0.00000  Uiso   1.00
C682   C     0.04282   0.83304   0.49941   0.00000  Uiso   1.00
C683   C     0.14098   0.69138   0.46947   0.00000  Uiso   1.00
C684   C     0.19235   0.97529   0.53053   0.00000  Uiso   1.00
C685   C     0.19232   0.69153   0.53056   0.00000  Uiso   1.00
C686   C     0.14101   0.97513   0.46944   0.00000  Uiso   1.00
H687   H     0.12039   0.70996   0.44500   0.00000  Uiso   1.00
H688   H     0.21295   0.95671   0.55500   0.00000  Uiso   1.00
H689   H     0.21283   0.71025   0.55511   0.00000  Uiso   1.00
H690   H     0.12050   0.95642   0.44489   0.00000  Uiso   1.00
N691   N     0.16667   0.95069   0.50000   0.00000  Uiso   1.00
N692   N     0.16667   0.71598   0.50000   0.00000  Uiso   1.00
N693   N     0.04405   0.77704   0.56826   0.00000  Uiso   1.00
O694   O     0.06338   0.79792   0.60407   0.00000  Uiso   1.00
O695   O     0.04942   0.73246   0.56131   0.00000  Uiso   1.00
N696   N     0.28928   0.88963   0.43174   0.00000  Uiso   1.00
O697   O     0.26994   0.86874   0.39594   0.00000  Uiso   1.00
O698   O     0.28393   0.93421   0.43868   0.00000  Uiso   1.00
N699   N     0.29040   0.77766   0.56989   0.00000  Uiso   1.00
O700   O     0.29702   0.73301   0.57435   0.00000  Uiso   1.00
O701   O     0.26468   0.79808   0.59945   0.00000  Uiso   1.00
N702   N     0.04293   0.88901   0.43011   0.00000  Uiso   1.00
O703   O     0.03632   0.93366   0.42565   0.00000  Uiso   1.00
O704   O     0.06865   0.86858   0.40055   0.00000  Uiso   1.00
O705   O     0.43988   0.87291   0.50000   0.00000  Uiso   1.00
O706   O     0.56012   0.79375   0.50000   0.00000  Uiso   1.00
O707   O     0.56012   0.87291   0.50000   0.00000  Uiso   1.00
O708   O     0.43988   0.79375   0.50000   0.00000  Uiso   1.00
C709   C     0.42080   0.83327   0.49974   0.00000  Uiso   1.00
C710   C     0.57920   0.83339   0.50026   0.00000  Uiso   1.00
O711   O     0.50000   0.87292   0.42946   0.00000  Uiso   1.00
O712   O     0.50000   0.79375   0.57054   0.00000  Uiso   1.00
O713   O     0.50000   0.87292   0.57054   0.00000  Uiso   1.00
O714   O     0.50000   0.79375   0.42946   0.00000  Uiso   1.00
C715   C     0.50004   0.83332   0.40687   0.00000  Uiso   1.00
C716   C     0.49996   0.83335   0.59313   0.00000  Uiso   1.00
Cu717  Cu    0.50000   0.88022   0.50000   0.00000  Uiso   1.00
Cu718  Cu    0.50000   0.78645   0.50000   0.00000  Uiso   1.00
C719   C     0.50001   0.83331   0.35518   0.00000  Uiso   1.00
C720   C     0.49998   0.83335   0.64482   0.00000  Uiso   1.00
C721   C     0.35507   0.80408   0.53270   0.00000  Uiso   1.00
C722   C     0.64493   0.86259   0.46730   0.00000  Uiso   1.00
C723   C     0.64537   0.80447   0.53353   0.00000  Uiso   1.00
C724   C     0.35463   0.86220   0.46647   0.00000  Uiso   1.00
C725   C     0.62384   0.83363   0.50059   0.00000  Uiso   1.00
C726   C     0.37616   0.83304   0.49941   0.00000  Uiso   1.00
C727   C     0.47432   0.69138   0.46947   0.00000  Uiso   1.00
C728   C     0.52568   0.97529   0.53053   0.00000  Uiso   1.00
C729   C     0.52566   0.69153   0.53056   0.00000  Uiso   1.00
C730   C     0.47434   0.97513   0.46944   0.00000  Uiso   1.00
H731   H     0.45372   0.70996   0.44500   0.00000  Uiso   1.00
H732   H     0.54628   0.95671   0.55500   0.00000  Uiso   1.00
H733   H     0.54617   0.71025   0.55511   0.00000  Uiso   1.00
H734   H     0.45383   0.95642   0.44489   0.00000  Uiso   1.00
N735   N     0.50000   0.95069   0.50000   0.00000  Uiso   1.00
N736   N     0.50000   0.71598   0.50000   0.00000  Uiso   1.00
N737   N     0.37739   0.77704   0.56826   0.00000  Uiso   1.00
O738   O     0.39672   0.79792   0.60407   0.00000  Uiso   1.00
O739   O     0.38275   0.73246   0.56131   0.00000  Uiso   1.00
N740   N     0.62261   0.88963   0.43174   0.00000  Uiso   1.00
O741   O     0.60327   0.86874   0.39594   0.00000  Uiso   1.00
O742   O     0.61726   0.93421   0.43868   0.00000  Uiso   1.00
N743   N     0.62374   0.77766   0.56989   0.00000  Uiso   1.00
O744   O     0.63035   0.73301   0.57435   0.00000  Uiso   1.00
O745   O     0.59801   0.79808   0.59945   0.00000  Uiso   1.00
N746   N     0.37626   0.88901   0.43011   0.00000  Uiso   1.00
O747   O     0.36966   0.93366   0.42565   0.00000  Uiso   1.00
O748   O     0.40199   0.86858   0.40055   0.00000  Uiso   1.00
O749   O     0.77321   0.87291   0.50000   0.00000  Uiso   1.00
O750   O     0.89345   0.79375   0.50000   0.00000  Uiso   1.00
O751   O     0.89345   0.87291   0.50000   0.00000  Uiso   1.00
O752   O     0.77321   0.79375   0.50000   0.00000  Uiso   1.00
C753   C     0.75414   0.83327   0.49974   0.00000  Uiso   1.00
C754   C     0.91253   0.83339   0.50026   0.00000  Uiso   1.00
O755   O     0.83333   0.87292   0.42946   0.00000  Uiso   1.00
O756   O     0.83333   0.79375   0.57054   0.00000  Uiso   1.00
O757   O     0.83333   0.87292   0.57054   0.00000  Uiso   1.00
O758   O     0.83333   0.79375   0.42946   0.00000  Uiso   1.00
C759   C     0.83337   0.83332   0.40687   0.00000  Uiso   1.00
C760   C     0.83330   0.83335   0.59313   0.00000  Uiso   1.00
Cu761  Cu    0.83333   0.88022   0.50000   0.00000  Uiso   1.00
Cu762  Cu    0.83333   0.78645   0.50000   0.00000  Uiso   1.00
C763   C     0.83335   0.83331   0.35518   0.00000  Uiso   1.00
C764   C     0.83332   0.83335   0.64482   0.00000  Uiso   1.00
C765   C     0.68840   0.80408   0.53270   0.00000  Uiso   1.00
C766   C     0.97826   0.86259   0.46730   0.00000  Uiso   1.00
C767   C     0.97870   0.80447   0.53353   0.00000  Uiso   1.00
C768   C     0.68797   0.86220   0.46647   0.00000  Uiso   1.00
C769   C     0.95718   0.83363   0.50059   0.00000  Uiso   1.00
C770   C     0.70949   0.83304   0.49941   0.00000  Uiso   1.00
C771   C     0.80765   0.69138   0.46947   0.00000  Uiso   1.00
C772   C     0.85902   0.97529   0.53053   0.00000  Uiso   1.00
C773   C     0.85899   0.69153   0.53056   0.00000  Uiso   1.00
C774   C     0.80767   0.97513   0.46944   0.00000  Uiso   1.00
H775   H     0.78705   0.70996   0.44500   0.00000  Uiso   1.00
H776   H     0.87961   0.95671   0.55500   0.00000  Uiso   1.00
H777   H     0.87950   0.71025   0.55511   0.00000  Uiso   1.00
H778   H     0.78717   0.95642   0.44489   0.00000  Uiso   1.00
N779   N     0.83333   0.95069   0.50000   0.00000  Uiso   1.00
N780   N     0.83333   0.71598   0.50000   0.00000  Uiso   1.00
N781   N     0.71072   0.77704   0.56826   0.00000  Uiso   1.00
O782   O     0.73005   0.79792   0.60407   0.00000  Uiso   1.00
O783   O     0.71609   0.73246   0.56131   0.00000  Uiso   1.00
N784   N     0.95595   0.88963   0.43174   0.00000  Uiso   1.00
O785   O     0.93660   0.86874   0.39594   0.00000  Uiso   1.00
O786   O     0.95059   0.93421   0.43868   0.00000  Uiso   1.00
N787   N     0.95707   0.77766   0.56989   0.00000  Uiso   1.00
O788   O     0.96368   0.73301   0.57435   0.00000  Uiso   1.00
O789   O     0.93134   0.79808   0.59945   0.00000  Uiso   1.00
N790   N     0.70960   0.88901   0.43011   0.00000  Uiso   1.00
O791   O     0.70299   0.93366   0.42565   0.00000  Uiso   1.00
O792   O     0.73532   0.86858   0.40055   0.00000  Uiso   1.00
O793   O     0.10655   0.20625   0.83333   0.00000  Uiso   1.00
O794   O     0.22679   0.12709   0.83334   0.00000  Uiso   1.00
O795   O     0.22679   0.20625   0.83334   0.00000  Uiso   1.00
O796   O     0.10655   0.12709   0.83333   0.00000  Uiso   1.00
C797   C     0.08747   0.16661   0.83308   0.00000  Uiso   1.00
C798   C     0.24586   0.16673   0.83359   0.00000  Uiso   1.00
O799   O     0.16667   0.20625   0.76280   0.00000  Uiso   1.00
O800   O     0.16667   0.12708   0.90387   0.00000  Uiso   1.00
O801   O     0.16667   0.20625   0.90387   0.00000  Uiso   1.00
O802   O     0.16667   0.12708   0.76280   0.00000  Uiso   1.00
C803   C     0.16670   0.16665   0.74021   0.00000  Uiso   1.00
C804   C     0.16663   0.16668   0.92646   0.00000  Uiso   1.00
Cu805  Cu    0.16667   0.21355   0.83333   0.00000  Uiso   1.00
Cu806  Cu    0.16667   0.11978   0.83333   0.00000  Uiso   1.00
C807   C     0.16668   0.16665   0.68851   0.00000  Uiso   1.00
C808   C     0.16665   0.16669   0.97816   0.00000  Uiso   1.00
C809   C     0.02174   0.13742   0.86603   0.00000  Uiso   1.00
C810   C     0.31160   0.19592   0.80064   0.00000  Uiso   1.00
C811   C     0.31203   0.13780   0.86686   0.00000  Uiso   1.00
C812   C     0.02130   0.19553   0.79981   0.00000  Uiso   1.00
C813   C     0.29051   0.16696   0.83392   0.00000  Uiso   1.00
C814   C     0.04282   0.16637   0.83274   0.00000  Uiso   1.00
C815   C     0.14098   0.02471   0.80280   0.00000  Uiso   1.00
C816   C     0.19235   0.30862   0.86386   0.00000  Uiso   1.00
C817   C     0.19232   0.02487   0.86389   0.00000  Uiso   1.00
C818   C     0.14101   0.30847   0.80278   0.00000  Uiso   1.00
H819   H     0.12039   0.04329   0.77833   0.00000  Uiso   1.00
H820   H     0.21295   0.29004   0.88834   0.00000  Uiso   1.00
H821   H     0.21283   0.04358   0.88844   0.00000  Uiso   1.00
H822   H     0.12050   0.28975   0.77823   0.00000  Uiso   1.00
N823   N     0.16667   0.28402   0.83333   0.00000  Uiso   1.00
N824   N     0.16667   0.04931   0.83333   0.00000  Uiso   1.00
N825   N     0.04405   0.11037   0.90159   0.00000  Uiso   1.00
O826   O     0.06338   0.13126   0.93740   0.00000  Uiso   1.00
O827   O     0.04942   0.06579   0.89464   0.00000  Uiso   1.00
N828   N     0.28928   0.22296   0.76507   0.00000  Uiso   1.00
O829   O     0.26994   0.20207   0.72927   0.00000  Uiso   1.00
O830   O     0.28393   0.26755   0.77201   0.00000  Uiso   1.00
N831   N     0.29040   0.11099   0.90322   0.00000  Uiso   1.00
O832   O     0.29702   0.06634   0.90769   0.00000  Uiso   1.00
O833   O     0.26468   0.13142   0.93278   0.00000  Uiso   1.00
N834   N     0.04293   0.22234   0.76344   0.00000  Uiso   1.00
O835   O     0.03632   0.26699   0.75898   0.00000  Uiso   1.00
O836   O     0.06865   0.20192   0.73388   0.00000  Uiso   1.00
O837   O     0.43988   0.20625   0.83333   0.00000  Uiso   1.00
O838   O     0.56012   0.12709   0.83334   0.00000  Uiso   1.00
O839   O     0.56012   0.20625   0.83334   0.00000  Uiso   1.00
O840   O     0.43988   0.12709   0.83333   0.00000  Uiso   1.00
C841   C     0.42080   0.16661   0.83308   0.00000  Uiso   1.00
C842   C     0.57920   0.16673   0.83359   0.00000  Uiso   1.00
O843   O     0.50000   0.20625   0.76280   0.00000  Uiso   1.00
O844   O     0.50000   0.12708   0.90387   0.00000  Uiso   1.00
O845   O     0.50000   0.20625   0.90387   0.00000  Uiso   1.00
O846   O     0.50000   0.12708   0.76280   0.00000  Uiso   1.00
C847   C     0.50004   0.16665   0.74021   0.00000  Uiso   1.00
C848   C     0.49996   0.16668   0.92646   0.00000  Uiso   1.00
Cu849  Cu    0.50000   0.21355   0.83333   0.00000  Uiso   1.00
Cu850  Cu    0.50000   0.11978   0.83333   0.00000  Uiso   1.00
C851   C     0.50001   0.16665   0.68851   0.00000  Uiso   1.00
C852   C     0.49998   0.16669   0.97816   0.00000  Uiso   1.00
C853   C     0.35507   0.13742   0.86603   0.00000  Uiso   1.00
C854   C     0.64493   0.19592   0.80064   0.00000  Uiso   1.00
C855   C     0.64537   0.13780   0.86686   0.00000  Uiso   1.00
C856   C     0.35463   0.19553   0.79981   0.00000  Uiso   1.00
C857   C     0.62384   0.16696   0.83392   0.00000  Uiso   1.00
C858   C     0.37616   0.16637   0.83274   0.00000  Uiso   1.00
C859   C     0.47432   0.02471   0.80280   0.00000  Uiso   1.00
C860   C     0.52568   0.30862   0.86386   0.00000  Uiso   1.00
C861   C     0.52566   0.02487   0.86389   0.00000  Uiso   1.00
C862   C     0.47434   0.30847   0.80278   0.00000  Uiso   1.00
H863   H     0.45372   0.04329   0.77833   0.00000  Uiso   1.00
H864   H     0.54628   0.29004   0.88834   0.00000  Uiso   1.00
H865   H     0.54617   0.04358   0.88844   0.00000  Uiso   1.00
H866   H     0.45383   0.28975   0.77823   0.00000  Uiso   1.00
N867   N     0.50000   0.28402   0.83333   0.00000  Uiso   1.00
N868   N     0.50000   0.04931   0.83333   0.00000  Uiso   1.00
N869   N     0.37739   0.11037   0.90159   0.00000  Uiso   1.00
O870   O     0.39672   0.13126   0.93740   0.00000  Uiso   1.00
O871   O     0.38275   0.06579   0.89464   0.00000  Uiso   1.00
N872   N     0.62261   0.22296   0.76507   0.00000  Uiso   1.00
O873   O     0.60327   0.20207   0.72927   0.00000  Uiso   1.00
O874   O     0.61726   0.26755   0.77201   0.00000  Uiso   1.00
N875   N     0.62374   0.11099   0.90322   0.00000  Uiso   1.00
O876   O     0.63035   0.06634   0.90769   0.00000  Uiso   1.00
O877   O     0.59801   0.13142   0.93278   0.00000  Uiso   1.00
N878   N     0.37626   0.22234   0.76344   0.00000  Uiso   1.00
O879   O     0.36966   0.26699   0.75898   0.00000  Uiso   1.00
O880   O     0.40199   0.20192   0.73388   0.00000  Uiso   1.00
O881   O     0.77321   0.20625   0.83333   0.00000  Uiso   1.00
O882   O     0.89345   0.12709   0.83334   0.00000  Uiso   1.00
O883   O     0.89345   0.20625   0.83334   0.00000  Uiso   1.00
O884   O     0.77321   0.12709   0.83333   0.00000  Uiso   1.00
C885   C     0.75414   0.16661   0.83308   0.00000  Uiso   1.00
C886   C     0.91253   0.16673   0.83359   0.00000  Uiso   1.00
O887   O     0.83333   0.20625   0.76280   0.00000  Uiso   1.00
O888   O     0.83333   0.12708   0.90387   0.00000  Uiso   1.00
O889   O     0.83333   0.20625   0.90387   0.00000  Uiso   1.00
O890   O     0.83333   0.12708   0.76280   0.00000  Uiso   1.00
C891   C     0.83337   0.16665   0.74021   0.00000  Uiso   1.00
C892   C     0.83330   0.16668   0.92646   0.00000  Uiso   1.00
Cu893  Cu    0.83333   0.21355   0.83333   0.00000  Uiso   1.00
Cu894  Cu    0.83333   0.11978   0.83333   0.00000  Uiso   1.00
C895   C     0.83335   0.16665   0.68851   0.00000  Uiso   1.00
C896   C     0.83332   0.16669   0.97816   0.00000  Uiso   1.00
C897   C     0.68840   0.13742   0.86603   0.00000  Uiso   1.00
C898   C     0.97826   0.19592   0.80064   0.00000  Uiso   1.00
C899   C     0.97870   0.13780   0.86686   0.00000  Uiso   1.00
C900   C     0.68797   0.19553   0.79981   0.00000  Uiso   1.00
C901   C     0.95718   0.16696   0.83392   0.00000  Uiso   1.00
C902   C     0.70949   0.16637   0.83274   0.00000  Uiso   1.00
C903   C     0.80765   0.02471   0.80280   0.00000  Uiso   1.00
C904   C     0.85902   0.30862   0.86386   0.00000  Uiso   1.00
C905   C     0.85899   0.02487   0.86389   0.00000  Uiso   1.00
C906   C     0.80767   0.30847   0.80278   0.00000  Uiso   1.00
H907   H     0.78705   0.04329   0.77833   0.00000  Uiso   1.00
H908   H     0.87961   0.29004   0.88834   0.00000  Uiso   1.00
H909   H     0.87950   0.04358   0.88844   0.00000  Uiso   1.00
H910   H     0.78717   0.28975   0.77823   0.00000  Uiso   1.00
N911   N     0.83333   0.28402   0.83333   0.00000  Uiso   1.00
N912   N     0.83333   0.04931   0.83333   0.00000  Uiso   1.00
N913   N     0.71072   0.11037   0.90159   0.00000  Uiso   1.00
O914   O     0.73005   0.13126   0.93740   0.00000  Uiso   1.00
O915   O     0.71609   0.06579   0.89464   0.00000  Uiso   1.00
N916   N     0.95595   0.22296   0.76507   0.00000  Uiso   1.00
O917   O     0.93660   0.20207   0.72927   0.00000  Uiso   1.00
O918   O     0.95059   0.26755   0.77201   0.00000  Uiso   1.00
N919   N     0.95707   0.11099   0.90322   0.00000  Uiso   1.00
O920   O     0.96368   0.06634   0.90769   0.00000  Uiso   1.00
O921   O     0.93134   0.13142   0.93278   0.00000  Uiso   1.00
N922   N     0.70960   0.22234   0.76344   0.00000  Uiso   1.00
O923   O     0.70299   0.26699   0.75898   0.00000  Uiso   1.00
O924   O     0.73532   0.20192   0.73388   0.00000  Uiso   1.00
O925   O     0.10655   0.53958   0.83333   0.00000  Uiso   1.00
O926   O     0.22679   0.46042   0.83334   0.00000  Uiso   1.00
O927   O     0.22679   0.53958   0.83334   0.00000  Uiso   1.00
O928   O     0.10655   0.46042   0.83333   0.00000  Uiso   1.00
C929   C     0.08747   0.49994   0.83308   0.00000  Uiso   1.00
C930   C     0.24586   0.50006   0.83359   0.00000  Uiso   1.00
O931   O     0.16667   0.53959   0.76280   0.00000  Uiso   1.00
O932   O     0.16667   0.46041   0.90387   0.00000  Uiso   1.00
O933   O     0.16667   0.53959   0.90387   0.00000  Uiso   1.00
O934   O     0.16667   0.46041   0.76280   0.00000  Uiso   1.00
C935   C     0.16670   0.49999   0.74021   0.00000  Uiso   1.00
C936   C     0.16663   0.50001   0.92646   0.00000  Uiso   1.00
Cu937  Cu    0.16667   0.54689   0.83333   0.00000  Uiso   1.00
Cu938  Cu    0.16667   0.45311   0.83333   0.00000  Uiso   1.00
C939   C     0.16668   0.49998   0.68851   0.00000  Uiso   1.00
C940   C     0.16665   0.50002   0.97816   0.00000  Uiso   1.00
C941   C     0.02174   0.47075   0.86603   0.00000  Uiso   1.00
C942   C     0.31160   0.52925   0.80064   0.00000  Uiso   1.00
C943   C     0.31203   0.47113   0.86686   0.00000  Uiso   1.00
C944   C     0.02130   0.52887   0.79981   0.00000  Uiso   1.00
C945   C     0.29051   0.50029   0.83392   0.00000  Uiso   1.00
C946   C     0.04282   0.49971   0.83274   0.00000  Uiso   1.00
C947   C     0.14098   0.35804   0.80280   0.00000  Uiso   1.00
C948   C     0.19235   0.64196   0.86386   0.00000  Uiso   1.00
C949   C     0.19232   0.35820   0.86389   0.00000  Uiso   1.00
C950   C     0.14101   0.64180   0.80278   0.00000  Uiso   1.00
H951   H     0.12039   0.37663   0.77833   0.00000  Uiso   1.00
H952   H     0.21295   0.62337   0.88834   0.00000  Uiso   1.00
H953   H     0.21283   0.37691   0.88844   0.00000  Uiso   1.00
H954   H     0.12050   0.62309   0.77823   0.00000  Uiso   1.00
N955   N     0.16667   0.61736   0.83333   0.00000  Uiso   1.00
N956   N     0.16667   0.38264   0.83333   0.00000  Uiso   1.00
N957   N     0.04405   0.44371   0.90159   0.00000  Uiso   1.00
O958   O     0.06338   0.46459   0.93740   0.00000  Uiso   1.00
O959   O     0.04942   0.39912   0.89464   0.00000  Uiso   1.00
N960   N     0.28928   0.55629   0.76507   0.00000  Uiso   1.00
O961   O     0.26994   0.53541   0.72927   0.00000  Uiso   1.00
O962   O     0.28393   0.60088   0.77201   0.00000  Uiso   1.00
N963   N     0.29040   0.44432   0.90322   0.00000  Uiso   1.00
O964   O     0.29702   0.39968   0.90769   0.00000  Uiso   1.00
O965   O     0.26468   0.46475   0.93278   0.00000  Uiso   1.00
N966   N     0.04293   0.55568   0.76344   0.00000  Uiso   1.00
O967   O     0.03632   0.60032   0.75898   0.00000  Uiso   1.00
O968   O     0.06865   0.53525   0.73388   0.00000  Uiso   1.00
O969   O     0.43988   0.53958   0.83333   0.00000  Uiso   1.00
O970   O     0.56012   0.46042   0.83334   0.00000  Uiso   1.00
O971   O     0.56012   0.53958   0.83334   0.00000  Uiso   1.00
O972   O     0.43988   0.46042   0.83333   0.00000  Uiso   1.00
C973   C     0.42080   0.49994   0.83308   0.00000  Uiso   1.00
C974   C     0.57920   0.50006   0.83359   0.00000  Uiso   1.00
O975   O     0.50000   0.53959   0.76280   0.00000  Uiso   1.00
O976   O     0.50000   0.46041   0.90387   0.00000  Uiso   1.00
O977   O     0.50000   0.53959   0.90387   0.00000  Uiso   1.00
O978   O     0.50000   0.46041   0.76280   0.00000  Uiso   1.00
C979   C     0.50004   0.49999   0.74021   0.00000  Uiso   1.00
C980   C     0.49996   0.50001   0.92646   0.00000  Uiso   1.00
Cu981  Cu    0.50000   0.54689   0.83333   0.00000  Uiso   1.00
Cu982  Cu    0.50000   0.45311   0.83333   0.00000  Uiso   1.00
C983   C     0.50001   0.49998   0.68851   0.00000  Uiso   1.00
C984   C     0.49998   0.50002   0.97816   0.00000  Uiso   1.00
C985   C     0.35507   0.47075   0.86603   0.00000  Uiso   1.00
C986   C     0.64493   0.52925   0.80064   0.00000  Uiso   1.00
C987   C     0.64537   0.47113   0.86686   0.00000  Uiso   1.00
C988   C     0.35463   0.52887   0.79981   0.00000  Uiso   1.00
C989   C     0.62384   0.50029   0.83392   0.00000  Uiso   1.00
C990   C     0.37616   0.49971   0.83274   0.00000  Uiso   1.00
C991   C     0.47432   0.35804   0.80280   0.00000  Uiso   1.00
C992   C     0.52568   0.64196   0.86386   0.00000  Uiso   1.00
C993   C     0.52566   0.35820   0.86389   0.00000  Uiso   1.00
C994   C     0.47434   0.64180   0.80278   0.00000  Uiso   1.00
H995   H     0.45372   0.37663   0.77833   0.00000  Uiso   1.00
H996   H     0.54628   0.62337   0.88834   0.00000  Uiso   1.00
H997   H     0.54617   0.37691   0.88844   0.00000  Uiso   1.00
H998   H     0.45383   0.62309   0.77823   0.00000  Uiso   1.00
N999   N     0.50000   0.61736   0.83333   0.00000  Uiso   1.00
N1000  N     0.50000   0.38264   0.83333   0.00000  Uiso   1.00
N1001  N     0.37739   0.44371   0.90159   0.00000  Uiso   1.00
O1002  O     0.39672   0.46459   0.93740   0.00000  Uiso   1.00
O1003  O     0.38275   0.39912   0.89464   0.00000  Uiso   1.00
N1004  N     0.62261   0.55629   0.76507   0.00000  Uiso   1.00
O1005  O     0.60327   0.53541   0.72927   0.00000  Uiso   1.00
O1006  O     0.61726   0.60088   0.77201   0.00000  Uiso   1.00
N1007  N     0.62374   0.44432   0.90322   0.00000  Uiso   1.00
O1008  O     0.63035   0.39968   0.90769   0.00000  Uiso   1.00
O1009  O     0.59801   0.46475   0.93278   0.00000  Uiso   1.00
N1010  N     0.37626   0.55568   0.76344   0.00000  Uiso   1.00
O1011  O     0.36966   0.60032   0.75898   0.00000  Uiso   1.00
O1012  O     0.40199   0.53525   0.73388   0.00000  Uiso   1.00
O1013  O     0.77321   0.53958   0.83333   0.00000  Uiso   1.00
O1014  O     0.89345   0.46042   0.83334   0.00000  Uiso   1.00
O1015  O     0.89345   0.53958   0.83334   0.00000  Uiso   1.00
O1016  O     0.77321   0.46042   0.83333   0.00000  Uiso   1.00
C1017  C     0.75414   0.49994   0.83308   0.00000  Uiso   1.00
C1018  C     0.91253   0.50006   0.83359   0.00000  Uiso   1.00
O1019  O     0.83333   0.53959   0.76280   0.00000  Uiso   1.00
O1020  O     0.83333   0.46041   0.90387   0.00000  Uiso   1.00
O1021  O     0.83333   0.53959   0.90387   0.00000  Uiso   1.00
O1022  O     0.83333   0.46041   0.76280   0.00000  Uiso   1.00
C1023  C     0.83337   0.49999   0.74021   0.00000  Uiso   1.00
C1024  C     0.83330   0.50001   0.92646   0.00000  Uiso   1.00
Cu1025 Cu    0.83333   0.54689   0.83333   0.00000  Uiso   1.00
Cu1026 Cu    0.83333   0.45311   0.83333   0.00000  Uiso   1.00
C1027  C     0.83335   0.49998   0.68851   0.00000  Uiso   1.00
C1028  C     0.83332   0.50002   0.97816   0.00000  Uiso   1.00
C1029  C     0.68840   0.47075   0.86603   0.00000  Uiso   1.00
C1030  C     0.97826   0.52925   0.80064   0.00000  Uiso   1.00
C1031  C     0.97870   0.47113   0.86686   0.00000  Uiso   1.00
C1032  C     0.68797   0.52887   0.79981   0.00000  Uiso   1.00
C1033  C     0.95718   0.50029   0.83392   0.00000  Uiso   1.00
C1034  C     0.70949   0.49971   0.83274   0.00000  Uiso   1.00
C1035  C     0.80765   0.35804   0.80280   0.00000  Uiso   1.00
C1036  C     0.85902   0.64196   0.86386   0.00000  Uiso   1.00
C1037  C     0.85899   0.35820   0.86389   0.00000  Uiso   1.00
C1038  C     0.80767   0.64180   0.80278   0.00000  Uiso   1.00
H1039  H     0.78705   0.37663   0.77833   0.00000  Uiso   1.00
H1040  H     0.87961   0.62337   0.88834   0.00000  Uiso   1.00
H1041  H     0.87950   0.37691   0.88844   0.00000  Uiso   1.00
H1042  H     0.78717   0.62309   0.77823   0.00000  Uiso   1.00
N1043  N     0.83333   0.61736   0.83333   0.00000  Uiso   1.00
N1044  N     0.83333   0.38264   0.83333   0.00000  Uiso   1.00
N1045  N     0.71072   0.44371   0.90159   0.00000  Uiso   1.00
O1046  O     0.73005   0.46459   0.93740   0.00000  Uiso   1.00
O1047  O     0.71609   0.39912   0.89464   0.00000  Uiso   1.00
N1048  N     0.95595   0.55629   0.76507   0.00000  Uiso   1.00
O1049  O     0.93660   0.53541   0.72927   0.00000  Uiso   1.00
O1050  O     0.95059   0.60088   0.77201   0.00000  Uiso   1.00
N1051  N     0.95707   0.44432   0.90322   0.00000  Uiso   1.00
O1052  O     0.96368   0.39968   0.90769   0.00000  Uiso   1.00
O1053  O     0.93134   0.46475   0.93278   0.00000  Uiso   1.00
N1054  N     0.70960   0.55568   0.76344   0.00000  Uiso   1.00
O1055  O     0.70299   0.60032   0.75898   0.00000  Uiso   1.00
O1056  O     0.73532   0.53525   0.73388   0.00000  Uiso   1.00
O1057  O     0.10655   0.87291   0.83333   0.00000  Uiso   1.00
O1058  O     0.22679   0.79375   0.83334   0.00000  Uiso   1.00
O1059  O     0.22679   0.87291   0.83334   0.00000  Uiso   1.00
O1060  O     0.10655   0.79375   0.83333   0.00000  Uiso   1.00
C1061  C     0.08747   0.83327   0.83308   0.00000  Uiso   1.00
C1062  C     0.24586   0.83339   0.83359   0.00000  Uiso   1.00
O1063  O     0.16667   0.87292   0.76280   0.00000  Uiso   1.00
O1064  O     0.16667   0.79375   0.90387   0.00000  Uiso   1.00
O1065  O     0.16667   0.87292   0.90387   0.00000  Uiso   1.00
O1066  O     0.16667   0.79375   0.76280   0.00000  Uiso   1.00
C1067  C     0.16670   0.83332   0.74021   0.00000  Uiso   1.00
C1068  C     0.16663   0.83335   0.92646   0.00000  Uiso   1.00
Cu1069 Cu    0.16667   0.88022   0.83333   0.00000  Uiso   1.00
Cu1070 Cu    0.16667   0.78645   0.83333   0.00000  Uiso   1.00
C1071  C     0.16668   0.83331   0.68851   0.00000  Uiso   1.00
C1072  C     0.16665   0.83335   0.97816   0.00000  Uiso   1.00
C1073  C     0.02174   0.80408   0.86603   0.00000  Uiso   1.00
C1074  C     0.31160   0.86259   0.80064   0.00000  Uiso   1.00
C1075  C     0.31203   0.80447   0.86686   0.00000  Uiso   1.00
C1076  C     0.02130   0.86220   0.79981   0.00000  Uiso   1.00
C1077  C     0.29051   0.83363   0.83392   0.00000  Uiso   1.00
C1078  C     0.04282   0.83304   0.83274   0.00000  Uiso   1.00
C1079  C     0.14098   0.69138   0.80280   0.00000  Uiso   1.00
C1080  C     0.19235   0.97529   0.86386   0.00000  Uiso   1.00
C1081  C     0.19232   0.69153   0.86389   0.00000  Uiso   1.00
C1082  C     0.14101   0.97513   0.80278   0.00000  Uiso   1.00
H1083  H     0.12039   0.70996   0.77833   0.00000  Uiso   1.00
H1084  H     0.21295   0.95671   0.88834   0.00000  Uiso   1.00
H1085  H     0.21283   0.71025   0.88844   0.00000  Uiso   1.00
H1086  H     0.12050   0.95642   0.77823   0.00000  Uiso   1.00
N1087  N     0.16667   0.95069   0.83333   0.00000  Uiso   1.00
N1088  N     0.16667   0.71598   0.83333   0.00000  Uiso   1.00
N1089  N     0.04405   0.77704   0.90159   0.00000  Uiso   1.00
O1090  O     0.06338   0.79792   0.93740   0.00000  Uiso   1.00
O1091  O     0.04942   0.73246   0.89464   0.00000  Uiso   1.00
N1092  N     0.28928   0.88963   0.76507   0.00000  Uiso   1.00
O1093  O     0.26994   0.86874   0.72927   0.00000  Uiso   1.00
O1094  O     0.28393   0.93421   0.77201   0.00000  Uiso   1.00
N1095  N     0.29040   0.77766   0.90322   0.00000  Uiso   1.00
O1096  O     0.29702   0.73301   0.90769   0.00000  Uiso   1.00
O1097  O     0.26468   0.79808   0.93278   0.00000  Uiso   1.00
N1098  N     0.04293   0.88901   0.76344   0.00000  Uiso   1.00
O1099  O     0.03632   0.93366   0.75898   0.00000  Uiso   1.00
O1100  O     0.06865   0.86858   0.73388   0.00000  Uiso   1.00
O1101  O     0.43988   0.87291   0.83333   0.00000  Uiso   1.00
O1102  O     0.56012   0.79375   0.83334   0.00000  Uiso   1.00
O1103  O     0.56012   0.87291   0.83334   0.00000  Uiso   1.00
O1104  O     0.43988   0.79375   0.83333   0.00000  Uiso   1.00
C1105  C     0.42080   0.83327   0.83308   0.00000  Uiso   1.00
C1106  C     0.57920   0.83339   0.83359   0.00000  Uiso   1.00
O1107  O     0.50000   0.87292   0.76280   0.00000  Uiso   1.00
O1108  O     0.50000   0.79375   0.90387   0.00000  Uiso   1.00
O1109  O     0.50000   0.87292   0.90387   0.00000  Uiso   1.00
O1110  O     0.50000   0.79375   0.76280   0.00000  Uiso   1.00
C1111  C     0.50004   0.83332   0.74021   0.00000  Uiso   1.00
C1112  C     0.49996   0.83335   0.92646   0.00000  Uiso   1.00
Cu1113 Cu    0.50000   0.88022   0.83333   0.00000  Uiso   1.00
Cu1114 Cu    0.50000   0.78645   0.83333   0.00000  Uiso   1.00
C1115  C     0.50001   0.83331   0.68851   0.00000  Uiso   1.00
C1116  C     0.49998   0.83335   0.97816   0.00000  Uiso   1.00
C1117  C     0.35507   0.80408   0.86603   0.00000  Uiso   1.00
C1118  C     0.64493   0.86259   0.80064   0.00000  Uiso   1.00
C1119  C     0.64537   0.80447   0.86686   0.00000  Uiso   1.00
C1120  C     0.35463   0.86220   0.79981   0.00000  Uiso   1.00
C1121  C     0.62384   0.83363   0.83392   0.00000  Uiso   1.00
C1122  C     0.37616   0.83304   0.83274   0.00000  Uiso   1.00
C1123  C     0.47432   0.69138   0.80280   0.00000  Uiso   1.00
C1124  C     0.52568   0.97529   0.86386   0.00000  Uiso   1.00
C1125  C     0.52566   0.69153   0.86389   0.00000  Uiso   1.00
C1126  C     0.47434   0.97513   0.80278   0.00000  Uiso   1.00
H1127  H     0.45372   0.70996   0.77833   0.00000  Uiso   1.00
H1128  H     0.54628   0.95671   0.88834   0.00000  Uiso   1.00
H1129  H     0.54617   0.71025   0.88844   0.00000  Uiso   1.00
H1130  H     0.45383   0.95642   0.77823   0.00000  Uiso   1.00
N1131  N     0.50000   0.95069   0.83333   0.00000  Uiso   1.00
N1132  N     0.50000   0.71598   0.83333   0.00000  Uiso   1.00
N1133  N     0.37739   0.77704   0.90159   0.00000  Uiso   1.00
O1134  O     0.39672   0.79792   0.93740   0.00000  Uiso   1.00
O1135  O     0.38275   0.73246   0.89464   0.00000  Uiso   1.00
N1136  N     0.62261   0.88963   0.76507   0.00000  Uiso   1.00
O1137  O     0.60327   0.86874   0.72927   0.00000  Uiso   1.00
O1138  O     0.61726   0.93421   0.77201   0.00000  Uiso   1.00
N1139  N     0.62374   0.77766   0.90322   0.00000  Uiso   1.00
O1140  O     0.63035   0.73301   0.90769   0.00000  Uiso   1.00
O1141  O     0.59801   0.79808   0.93278   0.00000  Uiso   1.00
N1142  N     0.37626   0.88901   0.76344   0.00000  Uiso   1.00
O1143  O     0.36966   0.93366   0.75898   0.00000  Uiso   1.00
O1144  O     0.40199   0.86858   0.73388   0.00000  Uiso   1.00
O1145  O     0.77321   0.87291   0.83333   0.00000  Uiso   1.00
O1146  O     0.89345   0.79375   0.83334   0.00000  Uiso   1.00
O1147  O     0.89345   0.87291   0.83334   0.00000  Uiso   1.00
O1148  O     0.77321   0.79375   0.83333   0.00000  Uiso   1.00
C1149  C     0.75414   0.83327   0.83308   0.00000  Uiso   1.00
C1150  C     0.91253   0.83339   0.83359   0.00000  Uiso   1.00
O1151  O     0.83333   0.87292   0.76280   0.00000  Uiso   1.00
O1152  O     0.83333   0.79375   0.90387   0.00000  Uiso   1.00
O1153  O     0.83333   0.87292   0.90387   0.00000  Uiso   1.00
O1154  O     0.83333   0.79375   0.76280   0.00000  Uiso   1.00
C1155  C     0.83337   0.83332   0.74021   0.00000  Uiso   1.00
C1156  C     0.83330   0.83335   0.92646   0.00000  Uiso   1.00
Cu1157 Cu    0.83333   0.88022   0.83333   0.00000  Uiso   1.00
Cu1158 Cu    0.83333   0.78645   0.83333   0.00000  Uiso   1.00
C1159  C     0.83335   0.83331   0.68851   0.00000  Uiso   1.00
C1160  C     0.83332   0.83335   0.97816   0.00000  Uiso   1.00
C1161  C     0.68840   0.80408   0.86603   0.00000  Uiso   1.00
C1162  C     0.97826   0.86259   0.80064   0.00000  Uiso   1.00
C1163  C     0.97870   0.80447   0.86686   0.00000  Uiso   1.00
C1164  C     0.68797   0.86220   0.79981   0.00000  Uiso   1.00
C1165  C     0.95718   0.83363   0.83392   0.00000  Uiso   1.00
C1166  C     0.70949   0.83304   0.83274   0.00000  Uiso   1.00
C1167  C     0.80765   0.69138   0.80280   0.00000  Uiso   1.00
C1168  C     0.85902   0.97529   0.86386   0.00000  Uiso   1.00
C1169  C     0.85899   0.69153   0.86389   0.00000  Uiso   1.00
C1170  C     0.80767   0.97513   0.80278   0.00000  Uiso   1.00
H1171  H     0.78705   0.70996   0.77833   0.00000  Uiso   1.00
H1172  H     0.87961   0.95671   0.88834   0.00000  Uiso   1.00
H1173  H     0.87950   0.71025   0.88844   0.00000  Uiso   1.00
H1174  H     0.78717   0.95642   0.77823   0.00000  Uiso   1.00
N1175  N     0.83333   0.95069   0.83333   0.00000  Uiso   1.00
N1176  N     0.83333   0.71598   0.83333   0.00000  Uiso   1.00
N1177  N     0.71072   0.77704   0.90159   0.00000  Uiso   1.00
O1178  O     0.73005   0.79792   0.93740   0.00000  Uiso   1.00
O1179  O     0.71609   0.73246   0.89464   0.00000  Uiso   1.00
N1180  N     0.95595   0.88963   0.76507   0.00000  Uiso   1.00
O1181  O     0.93660   0.86874   0.72927   0.00000  Uiso   1.00
O1182  O     0.95059   0.93421   0.77201   0.00000  Uiso   1.00
N1183  N     0.95707   0.77766   0.90322   0.00000  Uiso   1.00
O1184  O     0.96368   0.73301   0.90769   0.00000  Uiso   1.00
O1185  O     0.93134   0.79808   0.93278   0.00000  Uiso   1.00
N1186  N     0.70960   0.88901   0.76344   0.00000  Uiso   1.00
O1187  O     0.70299   0.93366   0.75898   0.00000  Uiso   1.00
O1188  O     0.73532   0.86858   0.73388   0.00000  Uiso   1.00
loop_
_geom_bond_atom_site_label_1
_geom_bond_atom_site_label_2
_geom_bond_distance
_geom_bond_site_symmetry_2
_ccdc_geom_bond_type
O1     C5      1.290   .     A
O1     Cu13    1.960   .     S
O2     C6      1.290   .     A
O2     Cu14    1.960   .     S
O3     Cu13    1.961   .     S
O3     C6      1.289   .     A
O4     Cu14    1.961   .     S
O4     C5      1.289   .     A
C5     C22     1.448   .     S
C6     C21     1.448   .     S
O7     C11     1.288   .     A
O7     Cu13    1.932   .     S
O8     C12     1.288   .     A
O8     Cu14    1.932   .     S
O9     C12     1.289   .     A
O9     Cu13    1.933   .     S
O10    C11     1.289   .     A
O10    Cu14    1.933   .     S
C11    C15     1.408   .     S
C12    C16     1.408   .     S
Cu13   Cu14    2.682   .     S
Cu13   N31     2.015   .     S
Cu14   N32     2.015   .     S
C15    C808    1.190   1_554 S
C16    C411    1.190   .     S
C17    C22     1.408   .     A
C17    N33     1.434   .     S
C17    C107    1.396   1_455 S
C18    C21     1.408   .     A
C18    N36     1.434   .     S
C18    C64     1.396   .     S
C19    N39     1.438   .     S
C19    C21     1.409   .     A
C19    C61     1.396   .     S
C20    N42     1.438   .     S
C20    C22     1.409   .     A
C20    C106    1.396   1_455 S
C23    H27     1.082   .     S
C23    N32     1.367   .     A
C23    C290    1.418   1_545 S
C24    N31     1.367   .     A
C24    H28     1.082   .     S
C24    C157    1.418   .     S
C25    N32     1.367   .     A
C25    H29     1.081   .     S
C25    C288    1.418   1_545 S
C26    N31     1.367   .     A
C26    H30     1.081   .     S
C26    C155    1.418   .     S
N33    O34     1.301   .     A
N33    O35     1.301   .     A
N36    O38     1.301   .     A
N36    O37     1.301   .     A
N39    O41     1.301   .     A
N39    O40     1.301   .     A
N42    O44     1.301   .     A
N42    O43     1.301   .     A
O45    C49     1.290   .     A
O45    Cu57    1.960   .     S
O46    C50     1.290   .     A
O46    Cu58    1.960   .     S
O47    Cu57    1.961   .     S
O47    C50     1.289   .     A
O48    Cu58    1.961   .     S
O48    C49     1.289   .     A
C49    C66     1.448   .     S
C50    C65     1.448   .     S
O51    C55     1.288   .     A
O51    Cu57    1.932   .     S
O52    C56     1.288   .     A
O52    Cu58    1.932   .     S
O53    C56     1.289   .     A
O53    Cu57    1.933   .     S
O54    C55     1.289   .     A
O54    Cu58    1.933   .     S
C55    C59     1.408   .     S
C56    C60     1.408   .     S
Cu57   Cu58    2.682   .     S
Cu57   N75     2.015   .     S
Cu58   N76     2.015   .     S
C59    C852    1.190   1_554 S
C60    C455    1.190   .     S
C61    C66     1.408   .     A
C61    N77     1.434   .     S
C62    C65     1.408   .     A
C62    N80     1.434   .     S
C62    C108    1.396   .     S
C63    N83     1.438   .     S
C63    C65     1.409   .     A
C63    C105    1.396   .     S
C64    N86     1.438   .     S
C64    C66     1.409   .     A
C67    H71     1.082   .     S
C67    N76     1.367   .     A
C67    C334    1.418   1_545 S
C68    N75     1.367   .     A
C68    H72     1.082   .     S
C68    C201    1.418   .     S
C69    N76     1.367   .     A
C69    H73     1.081   .     S
C69    C332    1.418   1_545 S
C70    N75     1.367   .     A
C70    H74     1.081   .     S
C70    C199    1.418   .     S
N77    O78     1.301   .     A
N77    O79     1.301   .     A
N80    O82     1.301   .     A
N80    O81     1.301   .     A
N83    O85     1.301   .     A
N83    O84     1.301   .     A
N86    O88     1.301   .     A
N86    O87     1.301   .     A
O89    C93     1.290   .     A
O89    Cu101   1.960   .     S
O90    C94     1.290   .     A
O90    Cu102   1.960   .     S
O91    Cu101   1.961   .     S
O91    C94     1.289   .     A
O92    Cu102   1.961   .     S
O92    C93     1.289   .     A
C93    C110    1.448   .     S
C94    C109    1.448   .     S
O95    C99     1.288   .     A
O95    Cu101   1.932   .     S
O96    C100    1.288   .     A
O96    Cu102   1.932   .     S
O97    C100    1.289   .     A
O97    Cu101   1.933   .     S
O98    C99     1.289   .     A
O98    Cu102   1.933   .     S
C99    C103    1.408   .     S
C100   C104    1.408   .     S
Cu101  Cu102   2.682   .     S
Cu101  N119    2.015   .     S
Cu102  N120    2.015   .     S
C103   C896    1.190   1_554 S
C104   C499    1.190   .     S
C105   C110    1.408   .     A
C105   N121    1.434   .     S
C106   C109    1.408   .     A
C106   N124    1.434   .     S
C106   C20     1.396   1_655 S
C107   N127    1.438   .     S
C107   C109    1.409   .     A
C107   C17     1.396   1_655 S
C108   N130    1.438   .     S
C108   C110    1.409   .     A
C111   H115    1.082   .     S
C111   N120    1.367   .     A
C111   C378    1.418   1_545 S
C112   N119    1.367   .     A
C112   H116    1.082   .     S
C112   C245    1.418   .     S
C113   N120    1.367   .     A
C113   H117    1.081   .     S
C113   C376    1.418   1_545 S
C114   N119    1.367   .     A
C114   H118    1.081   .     S
C114   C243    1.418   .     S
N121   O122    1.301   .     A
N121   O123    1.301   .     A
N124   O126    1.301   .     A
N124   O125    1.301   .     A
N127   O129    1.301   .     A
N127   O128    1.301   .     A
N130   O132    1.301   .     A
N130   O131    1.301   .     A
O133   C137    1.290   .     A
O133   Cu145   1.960   .     S
O134   C138    1.290   .     A
O134   Cu146   1.960   .     S
O135   Cu145   1.961   .     S
O135   C138    1.289   .     A
O136   Cu146   1.961   .     S
O136   C137    1.289   .     A
C137   C154    1.448   .     S
C138   C153    1.448   .     S
O139   C143    1.288   .     A
O139   Cu145   1.932   .     S
O140   C144    1.288   .     A
O140   Cu146   1.932   .     S
O141   C144    1.289   .     A
O141   Cu145   1.933   .     S
O142   C143    1.289   .     A
O142   Cu146   1.933   .     S
C143   C147    1.408   .     S
C144   C148    1.408   .     S
Cu145  Cu146   2.682   .     S
Cu145  N163    2.015   .     S
Cu146  N164    2.015   .     S
C147   C940    1.190   1_554 S
C148   C543    1.190   .     S
C149   C154    1.408   .     A
C149   N165    1.434   .     S
C149   C239    1.396   1_455 S
C150   C153    1.408   .     A
C150   N168    1.434   .     S
C150   C196    1.396   .     S
C151   N171    1.438   .     S
C151   C153    1.409   .     A
C151   C193    1.396   .     S
C152   N174    1.438   .     S
C152   C154    1.409   .     A
C152   C238    1.396   1_455 S
C155   H159    1.082   .     S
C155   N164    1.367   .     A
C156   N163    1.367   .     A
C156   H160    1.082   .     S
C156   C289    1.418   .     S
C157   N164    1.367   .     A
C157   H161    1.081   .     S
C158   N163    1.367   .     A
C158   H162    1.081   .     S
C158   C287    1.418   .     S
N165   O166    1.301   .     A
N165   O167    1.301   .     A
N168   O170    1.301   .     A
N168   O169    1.301   .     A
N171   O173    1.301   .     A
N171   O172    1.301   .     A
N174   O176    1.301   .     A
N174   O175    1.301   .     A
O177   C181    1.290   .     A
O177   Cu189   1.960   .     S
O178   C182    1.290   .     A
O178   Cu190   1.960   .     S
O179   Cu189   1.961   .     S
O179   C182    1.289   .     A
O180   Cu190   1.961   .     S
O180   C181    1.289   .     A
C181   C198    1.448   .     S
C182   C197    1.448   .     S
O183   C187    1.288   .     A
O183   Cu189   1.932   .     S
O184   C188    1.288   .     A
O184   Cu190   1.932   .     S
O185   C188    1.289   .     A
O185   Cu189   1.933   .     S
O186   C187    1.289   .     A
O186   Cu190   1.933   .     S
C187   C191    1.408   .     S
C188   C192    1.408   .     S
Cu189  Cu190   2.682   .     S
Cu189  N207    2.015   .     S
Cu190  N208    2.015   .     S
C191   C984    1.190   1_554 S
C192   C587    1.190   .     S
C193   C198    1.408   .     A
C193   N209    1.434   .     S
C194   C197    1.408   .     A
C194   N212    1.434   .     S
C194   C240    1.396   .     S
C195   N215    1.438   .     S
C195   C197    1.409   .     A
C195   C237    1.396   .     S
C196   N218    1.438   .     S
C196   C198    1.409   .     A
C199   H203    1.082   .     S
C199   N208    1.367   .     A
C200   N207    1.367   .     A
C200   H204    1.082   .     S
C200   C333    1.418   .     S
C201   N208    1.367   .     A
C201   H205    1.081   .     S
C202   N207    1.367   .     A
C202   H206    1.081   .     S
C202   C331    1.418   .     S
N209   O210    1.301   .     A
N209   O211    1.301   .     A
N212   O214    1.301   .     A
N212   O213    1.301   .     A
N215   O217    1.301   .     A
N215   O216    1.301   .     A
N218   O220    1.301   .     A
N218   O219    1.301   .     A
O221   C225    1.290   .     A
O221   Cu233   1.960   .     S
O222   C226    1.290   .     A
O222   Cu234   1.960   .     S
O223   Cu233   1.961   .     S
O223   C226    1.289   .     A
O224   Cu234   1.961   .     S
O224   C225    1.289   .     A
C225   C242    1.448   .     S
C226   C241    1.448   .     S
O227   C231    1.288   .     A
O227   Cu233   1.932   .     S
O228   C232    1.288   .     A
O228   Cu234   1.932   .     S
O229   C232    1.289   .     A
O229   Cu233   1.933   .     S
O230   C231    1.289   .     A
O230   Cu234   1.933   .     S
C231   C235    1.408   .     S
C232   C236    1.408   .     S
Cu233  Cu234   2.682   .     S
Cu233  N251    2.015   .     S
Cu234  N252    2.015   .     S
C235   C1028   1.190   1_554 S
C236   C631    1.190   .     S
C237   C242    1.408   .     A
C237   N253    1.434   .     S
C238   C241    1.408   .     A
C238   N256    1.434   .     S
C238   C152    1.396   1_655 S
C239   N259    1.438   .     S
C239   C241    1.409   .     A
C239   C149    1.396   1_655 S
C240   N262    1.438   .     S
C240   C242    1.409   .     A
C243   H247    1.082   .     S
C243   N252    1.367   .     A
C244   N251    1.367   .     A
C244   H248    1.082   .     S
C244   C377    1.418   .     S
C245   N252    1.367   .     A
C245   H249    1.081   .     S
C246   N251    1.367   .     A
C246   H250    1.081   .     S
C246   C375    1.418   .     S
N253   O254    1.301   .     A
N253   O255    1.301   .     A
N256   O258    1.301   .     A
N256   O257    1.301   .     A
N259   O261    1.301   .     A
N259   O260    1.301   .     A
N262   O264    1.301   .     A
N262   O263    1.301   .     A
O265   C269    1.290   .     A
O265   Cu277   1.960   .     S
O266   C270    1.290   .     A
O266   Cu278   1.960   .     S
O267   Cu277   1.961   .     S
O267   C270    1.289   .     A
O268   Cu278   1.961   .     S
O268   C269    1.289   .     A
C269   C286    1.448   .     S
C270   C285    1.448   .     S
O271   C275    1.288   .     A
O271   Cu277   1.932   .     S
O272   C276    1.288   .     A
O272   Cu278   1.932   .     S
O273   C276    1.289   .     A
O273   Cu277   1.933   .     S
O274   C275    1.289   .     A
O274   Cu278   1.933   .     S
C275   C279    1.408   .     S
C276   C280    1.408   .     S
Cu277  Cu278   2.682   .     S
Cu277  N295    2.015   .     S
Cu278  N296    2.015   .     S
C279   C1072   1.190   1_554 S
C280   C675    1.190   .     S
C281   C286    1.408   .     A
C281   N297    1.434   .     S
C281   C371    1.396   1_455 S
C282   C285    1.408   .     A
C282   N300    1.434   .     S
C282   C328    1.396   .     S
C283   N303    1.438   .     S
C283   C285    1.409   .     A
C283   C325    1.396   .     S
C284   N306    1.438   .     S
C284   C286    1.409   .     A
C284   C370    1.396   1_455 S
C287   H291    1.082   .     S
C287   N296    1.367   .     A
C288   N295    1.367   .     A
C288   H292    1.082   .     S
C288   C25     1.418   1_565 S
C289   N296    1.367   .     A
C289   H293    1.081   .     S
C290   N295    1.367   .     A
C290   H294    1.081   .     S
C290   C23     1.418   1_565 S
N297   O298    1.301   .     A
N297   O299    1.301   .     A
N300   O302    1.301   .     A
N300   O301    1.301   .     A
N303   O305    1.301   .     A
N303   O304    1.301   .     A
N306   O308    1.301   .     A
N306   O307    1.301   .     A
O309   C313    1.290   .     A
O309   Cu321   1.960   .     S
O310   C314    1.290   .     A
O310   Cu322   1.960   .     S
O311   Cu321   1.961   .     S
O311   C314    1.289   .     A
O312   Cu322   1.961   .     S
O312   C313    1.289   .     A
C313   C330    1.448   .     S
C314   C329    1.448   .     S
O315   C319    1.288   .     A
O315   Cu321   1.932   .     S
O316   C320    1.288   .     A
O316   Cu322   1.932   .     S
O317   C320    1.289   .     A
O317   Cu321   1.933   .     S
O318   C319    1.289   .     A
O318   Cu322   1.933   .     S
C319   C323    1.408   .     S
C320   C324    1.408   .     S
Cu321  Cu322   2.682   .     S
Cu321  N339    2.015   .     S
Cu322  N340    2.015   .     S
C323   C1116   1.190   1_554 S
C324   C719    1.190   .     S
C325   C330    1.408   .     A
C325   N341    1.434   .     S
C326   C329    1.408   .     A
C326   N344    1.434   .     S
C326   C372    1.396   .     S
C327   N347    1.438   .     S
C327   C329    1.409   .     A
C327   C369    1.396   .     S
C328   N350    1.438   .     S
C328   C330    1.409   .     A
C331   H335    1.082   .     S
C331   N340    1.367   .     A
C332   N339    1.367   .     A
C332   H336    1.082   .     S
C332   C69     1.418   1_565 S
C333   N340    1.367   .     A
C333   H337    1.081   .     S
C334   N339    1.367   .     A
C334   H338    1.081   .     S
C334   C67     1.418   1_565 S
N341   O342    1.301   .     A
N341   O343    1.301   .     A
N344   O346    1.301   .     A
N344   O345    1.301   .     A
N347   O349    1.301   .     A
N347   O348    1.301   .     A
N350   O352    1.301   .     A
N350   O351    1.301   .     A
O353   C357    1.290   .     A
O353   Cu365   1.960   .     S
O354   C358    1.290   .     A
O354   Cu366   1.960   .     S
O355   Cu365   1.961   .     S
O355   C358    1.289   .     A
O356   Cu366   1.961   .     S
O356   C357    1.289   .     A
C357   C374    1.448   .     S
C358   C373    1.448   .     S
O359   C363    1.288   .     A
O359   Cu365   1.932   .     S
O360   C364    1.288   .     A
O360   Cu366   1.932   .     S
O361   C364    1.289   .     A
O361   Cu365   1.933   .     S
O362   C363    1.289   .     A
O362   Cu366   1.933   .     S
C363   C367    1.408   .     S
C364   C368    1.408   .     S
Cu365  Cu366   2.682   .     S
Cu365  N383    2.015   .     S
Cu366  N384    2.015   .     S
C367   C1160   1.190   1_554 S
C368   C763    1.190   .     S
C369   C374    1.408   .     A
C369   N385    1.434   .     S
C370   C373    1.408   .     A
C370   N388    1.434   .     S
C370   C284    1.396   1_655 S
C371   N391    1.438   .     S
C371   C373    1.409   .     A
C371   C281    1.396   1_655 S
C372   N394    1.438   .     S
C372   C374    1.409   .     A
C375   H379    1.082   .     S
C375   N384    1.367   .     A
C376   N383    1.367   .     A
C376   H380    1.082   .     S
C376   C113    1.418   1_565 S
C377   N384    1.367   .     A
C377   H381    1.081   .     S
C378   N383    1.367   .     A
C378   H382    1.081   .     S
C378   C111    1.418   1_565 S
N385   O386    1.301   .     A
N385   O387    1.301   .     A
N388   O390    1.301   .     A
N388   O389    1.301   .     A
N391   O393    1.301   .     A
N391   O392    1.301   .     A
N394   O396    1.301   .     A
N394   O395    1.301   .     A
O397   C401    1.290   .     A
O397   Cu409   1.960   .     S
O398   C402    1.290   .     A
O398   Cu410   1.960   .     S
O399   Cu409   1.961   .     S
O399   C402    1.289   .     A
O400   Cu410   1.961   .     S
O400   C401    1.289   .     A
C401   C418    1.448   .     S
C402   C417    1.448   .     S
O403   C407    1.288   .     A
O403   Cu409   1.932   .     S
O404   C408    1.288   .     A
O404   Cu410   1.932   .     S
O405   C408    1.289   .     A
O405   Cu409   1.933   .     S
O406   C407    1.289   .     A
O406   Cu410   1.933   .     S
C407   C411    1.408   .     S
C408   C412    1.408   .     S
Cu409  Cu410   2.682   .     S
Cu409  N427    2.015   .     S
Cu410  N428    2.015   .     S
C412   C807    1.190   .     S
C413   C418    1.408   .     A
C413   N429    1.434   .     S
C413   C503    1.396   1_455 S
C414   C417    1.408   .     A
C414   N432    1.434   .     S
C414   C460    1.396   .     S
C415   N435    1.438   .     S
C415   C417    1.409   .     A
C415   C457    1.396   .     S
C416   N438    1.438   .     S
C416   C418    1.409   .     A
C416   C502    1.396   1_455 S
C419   H423    1.082   .     S
C419   N428    1.367   .     A
C419   C686    1.418   1_545 S
C420   N427    1.367   .     A
C420   H424    1.082   .     S
C420   C553    1.418   .     S
C421   N428    1.367   .     A
C421   H425    1.081   .     S
C421   C684    1.418   1_545 S
C422   N427    1.367   .     A
C422   H426    1.081   .     S
C422   C551    1.418   .     S
N429   O430    1.301   .     A
N429   O431    1.301   .     A
N432   O434    1.301   .     A
N432   O433    1.301   .     A
N435   O437    1.301   .     A
N435   O436    1.301   .     A
N438   O440    1.301   .     A
N438   O439    1.301   .     A
O441   C445    1.290   .     A
O441   Cu453   1.960   .     S
O442   C446    1.290   .     A
O442   Cu454   1.960   .     S
O443   Cu453   1.961   .     S
O443   C446    1.289   .     A
O444   Cu454   1.961   .     S
O444   C445    1.289   .     A
C445   C462    1.448   .     S
C446   C461    1.448   .     S
O447   C451    1.288   .     A
O447   Cu453   1.932   .     S
O448   C452    1.288   .     A
O448   Cu454   1.932   .     S
O449   C452    1.289   .     A
O449   Cu453   1.933   .     S
O450   C451    1.289   .     A
O450   Cu454   1.933   .     S
C451   C455    1.408   .     S
C452   C456    1.408   .     S
Cu453  Cu454   2.682   .     S
Cu453  N471    2.015   .     S
Cu454  N472    2.015   .     S
C456   C851    1.190   .     S
C457   C462    1.408   .     A
C457   N473    1.434   .     S
C458   C461    1.408   .     A
C458   N476    1.434   .     S
C458   C504    1.396   .     S
C459   N479    1.438   .     S
C459   C461    1.409   .     A
C459   C501    1.396   .     S
C460   N482    1.438   .     S
C460   C462    1.409   .     A
C463   H467    1.082   .     S
C463   N472    1.367   .     A
C463   C730    1.418   1_545 S
C464   N471    1.367   .     A
C464   H468    1.082   .     S
C464   C597    1.418   .     S
C465   N472    1.367   .     A
C465   H469    1.081   .     S
C465   C728    1.418   1_545 S
C466   N471    1.367   .     A
C466   H470    1.081   .     S
C466   C595    1.418   .     S
N473   O474    1.301   .     A
N473   O475    1.301   .     A
N476   O478    1.301   .     A
N476   O477    1.301   .     A
N479   O481    1.301   .     A
N479   O480    1.301   .     A
N482   O484    1.301   .     A
N482   O483    1.301   .     A
O485   C489    1.290   .     A
O485   Cu497   1.960   .     S
O486   C490    1.290   .     A
O486   Cu498   1.960   .     S
O487   Cu497   1.961   .     S
O487   C490    1.289   .     A
O488   Cu498   1.961   .     S
O488   C489    1.289   .     A
C489   C506    1.448   .     S
C490   C505    1.448   .     S
O491   C495    1.288   .     A
O491   Cu497   1.932   .     S
O492   C496    1.288   .     A
O492   Cu498   1.932   .     S
O493   C496    1.289   .     A
O493   Cu497   1.933   .     S
O494   C495    1.289   .     A
O494   Cu498   1.933   .     S
C495   C499    1.408   .     S
C496   C500    1.408   .     S
Cu497  Cu498   2.682   .     S
Cu497  N515    2.015   .     S
Cu498  N516    2.015   .     S
C500   C895    1.190   .     S
C501   C506    1.408   .     A
C501   N517    1.434   .     S
C502   C505    1.408   .     A
C502   N520    1.434   .     S
C502   C416    1.396   1_655 S
C503   N523    1.438   .     S
C503   C505    1.409   .     A
C503   C413    1.396   1_655 S
C504   N526    1.438   .     S
C504   C506    1.409   .     A
C507   H511    1.082   .     S
C507   N516    1.367   .     A
C507   C774    1.418   1_545 S
C508   N515    1.367   .     A
C508   H512    1.082   .     S
C508   C641    1.418   .     S
C509   N516    1.367   .     A
C509   H513    1.081   .     S
C509   C772    1.418   1_545 S
C510   N515    1.367   .     A
C510   H514    1.081   .     S
C510   C639    1.418   .     S
N517   O518    1.301   .     A
N517   O519    1.301   .     A
N520   O522    1.301   .     A
N520   O521    1.301   .     A
N523   O525    1.301   .     A
N523   O524    1.301   .     A
N526   O528    1.301   .     A
N526   O527    1.301   .     A
O529   C533    1.290   .     A
O529   Cu541   1.960   .     S
O530   C534    1.290   .     A
O530   Cu542   1.960   .     S
O531   Cu541   1.961   .     S
O531   C534    1.289   .     A
O532   Cu542   1.961   .     S
O532   C533    1.289   .     A
C533   C550    1.448   .     S
C534   C549    1.448   .     S
O535   C539    1.288   .     A
O535   Cu541   1.932   .     S
O536   C540    1.288   .     A
O536   Cu542   1.932   .     S
O537   C540    1.289   .     A
O537   Cu541   1.933   .     S
O538   C539    1.289   .     A
O538   Cu542   1.933   .     S
C539   C543    1.408   .     S
C540   C544    1.408   .     S
Cu541  Cu542   2.682   .     S
Cu541  N559    2.015   .     S
Cu542  N560    2.015   .     S
C544   C939    1.190   .     S
C545   C550    1.408   .     A
C545   N561    1.434   .     S
C545   C635    1.396   1_455 S
C546   C549    1.408   .     A
C546   N564    1.434   .     S
C546   C592    1.396   .     S
C547   N567    1.438   .     S
C547   C549    1.409   .     A
C547   C589    1.396   .     S
C548   N570    1.438   .     S
C548   C550    1.409   .     A
C548   C634    1.396   1_455 S
C551   H555    1.082   .     S
C551   N560    1.367   .     A
C552   N559    1.367   .     A
C552   H556    1.082   .     S
C552   C685    1.418   .     S
C553   N560    1.367   .     A
C553   H557    1.081   .     S
C554   N559    1.367   .     A
C554   H558    1.081   .     S
C554   C683    1.418   .     S
N561   O562    1.301   .     A
N561   O563    1.301   .     A
N564   O566    1.301   .     A
N564   O565    1.301   .     A
N567   O569    1.301   .     A
N567   O568    1.301   .     A
N570   O572    1.301   .     A
N570   O571    1.301   .     A
O573   C577    1.290   .     A
O573   Cu585   1.960   .     S
O574   C578    1.290   .     A
O574   Cu586   1.960   .     S
O575   Cu585   1.961   .     S
O575   C578    1.289   .     A
O576   Cu586   1.961   .     S
O576   C577    1.289   .     A
C577   C594    1.448   .     S
C578   C593    1.448   .     S
O579   C583    1.288   .     A
O579   Cu585   1.932   .     S
O580   C584    1.288   .     A
O580   Cu586   1.932   .     S
O581   C584    1.289   .     A
O581   Cu585   1.933   .     S
O582   C583    1.289   .     A
O582   Cu586   1.933   .     S
C583   C587    1.408   .     S
C584   C588    1.408   .     S
Cu585  Cu586   2.682   .     S
Cu585  N603    2.015   .     S
Cu586  N604    2.015   .     S
C588   C983    1.190   .     S
C589   C594    1.408   .     A
C589   N605    1.434   .     S
C590   C593    1.408   .     A
C590   N608    1.434   .     S
C590   C636    1.396   .     S
C591   N611    1.438   .     S
C591   C593    1.409   .     A
C591   C633    1.396   .     S
C592   N614    1.438   .     S
C592   C594    1.409   .     A
C595   H599    1.082   .     S
C595   N604    1.367   .     A
C596   N603    1.367   .     A
C596   H600    1.082   .     S
C596   C729    1.418   .     S
C597   N604    1.367   .     A
C597   H601    1.081   .     S
C598   N603    1.367   .     A
C598   H602    1.081   .     S
C598   C727    1.418   .     S
N605   O606    1.301   .     A
N605   O607    1.301   .     A
N608   O610    1.301   .     A
N608   O609    1.301   .     A
N611   O613    1.301   .     A
N611   O612    1.301   .     A
N614   O616    1.301   .     A
N614   O615    1.301   .     A
O617   C621    1.290   .     A
O617   Cu629   1.960   .     S
O618   C622    1.290   .     A
O618   Cu630   1.960   .     S
O619   Cu629   1.961   .     S
O619   C622    1.289   .     A
O620   Cu630   1.961   .     S
O620   C621    1.289   .     A
C621   C638    1.448   .     S
C622   C637    1.448   .     S
O623   C627    1.288   .     A
O623   Cu629   1.932   .     S
O624   C628    1.288   .     A
O624   Cu630   1.932   .     S
O625   C628    1.289   .     A
O625   Cu629   1.933   .     S
O626   C627    1.289   .     A
O626   Cu630   1.933   .     S
C627   C631    1.408   .     S
C628   C632    1.408   .     S
Cu629  Cu630   2.682   .     S
Cu629  N647    2.015   .     S
Cu630  N648    2.015   .     S
C632   C1027   1.190   .     S
C633   C638    1.408   .     A
C633   N649    1.434   .     S
C634   C637    1.408   .     A
C634   N652    1.434   .     S
C634   C548    1.396   1_655 S
C635   N655    1.438   .     S
C635   C637    1.409   .     A
C635   C545    1.396   1_655 S
C636   N658    1.438   .     S
C636   C638    1.409   .     A
C639   H643    1.082   .     S
C639   N648    1.367   .     A
C640   N647    1.367   .     A
C640   H644    1.082   .     S
C640   C773    1.418   .     S
C641   N648    1.367   .     A
C641   H645    1.081   .     S
C642   N647    1.367   .     A
C642   H646    1.081   .     S
C642   C771    1.418   .     S
N649   O650    1.301   .     A
N649   O651    1.301   .     A
N652   O654    1.301   .     A
N652   O653    1.301   .     A
N655   O657    1.301   .     A
N655   O656    1.301   .     A
N658   O660    1.301   .     A
N658   O659    1.301   .     A
O661   C665    1.290   .     A
O661   Cu673   1.960   .     S
O662   C666    1.290   .     A
O662   Cu674   1.960   .     S
O663   Cu673   1.961   .     S
O663   C666    1.289   .     A
O664   Cu674   1.961   .     S
O664   C665    1.289   .     A
C665   C682    1.448   .     S
C666   C681    1.448   .     S
O667   C671    1.288   .     A
O667   Cu673   1.932   .     S
O668   C672    1.288   .     A
O668   Cu674   1.932   .     S
O669   C672    1.289   .     A
O669   Cu673   1.933   .     S
O670   C671    1.289   .     A
O670   Cu674   1.933   .     S
C671   C675    1.408   .     S
C672   C676    1.408   .     S
Cu673  Cu674   2.682   .     S
Cu673  N691    2.015   .     S
Cu674  N692    2.015   .     S
C676   C1071   1.190   .     S
C677   C682    1.408   .     A
C677   N693    1.434   .     S
C677   C767    1.396   1_455 S
C678   C681    1.408   .     A
C678   N696    1.434   .     S
C678   C724    1.396   .     S
C679   N699    1.438   .     S
C679   C681    1.409   .     A
C679   C721    1.396   .     S
C680   N702    1.438   .     S
C680   C682    1.409   .     A
C680   C766    1.396   1_455 S
C683   H687    1.082   .     S
C683   N692    1.367   .     A
C684   N691    1.367   .     A
C684   H688    1.082   .     S
C684   C421    1.418   1_565 S
C685   N692    1.367   .     A
C685   H689    1.081   .     S
C686   N691    1.367   .     A
C686   H690    1.081   .     S
C686   C419    1.418   1_565 S
N693   O694    1.301   .     A
N693   O695    1.301   .     A
N696   O698    1.301   .     A
N696   O697    1.301   .     A
N699   O701    1.301   .     A
N699   O700    1.301   .     A
N702   O704    1.301   .     A
N702   O703    1.301   .     A
O705   C709    1.290   .     A
O705   Cu717   1.960   .     S
O706   C710    1.290   .     A
O706   Cu718   1.960   .     S
O707   Cu717   1.961   .     S
O707   C710    1.289   .     A
O708   Cu718   1.961   .     S
O708   C709    1.289   .     A
C709   C726    1.448   .     S
C710   C725    1.448   .     S
O711   C715    1.288   .     A
O711   Cu717   1.932   .     S
O712   C716    1.288   .     A
O712   Cu718   1.932   .     S
O713   C716    1.289   .     A
O713   Cu717   1.933   .     S
O714   C715    1.289   .     A
O714   Cu718   1.933   .     S
C715   C719    1.408   .     S
C716   C720    1.408   .     S
Cu717  Cu718   2.682   .     S
Cu717  N735    2.015   .     S
Cu718  N736    2.015   .     S
C720   C1115   1.190   .     S
C721   C726    1.408   .     A
C721   N737    1.434   .     S
C722   C725    1.408   .     A
C722   N740    1.434   .     S
C722   C768    1.396   .     S
C723   N743    1.438   .     S
C723   C725    1.409   .     A
C723   C765    1.396   .     S
C724   N746    1.438   .     S
C724   C726    1.409   .     A
C727   H731    1.082   .     S
C727   N736    1.367   .     A
C728   N735    1.367   .     A
C728   H732    1.082   .     S
C728   C465    1.418   1_565 S
C729   N736    1.367   .     A
C729   H733    1.081   .     S
C730   N735    1.367   .     A
C730   H734    1.081   .     S
C730   C463    1.418   1_565 S
N737   O738    1.301   .     A
N737   O739    1.301   .     A
N740   O742    1.301   .     A
N740   O741    1.301   .     A
N743   O745    1.301   .     A
N743   O744    1.301   .     A
N746   O748    1.301   .     A
N746   O747    1.301   .     A
O749   C753    1.290   .     A
O749   Cu761   1.960   .     S
O750   C754    1.290   .     A
O750   Cu762   1.960   .     S
O751   Cu761   1.961   .     S
O751   C754    1.289   .     A
O752   Cu762   1.961   .     S
O752   C753    1.289   .     A
C753   C770    1.448   .     S
C754   C769    1.448   .     S
O755   C759    1.288   .     A
O755   Cu761   1.932   .     S
O756   C760    1.288   .     A
O756   Cu762   1.932   .     S
O757   C760    1.289   .     A
O757   Cu761   1.933   .     S
O758   C759    1.289   .     A
O758   Cu762   1.933   .     S
C759   C763    1.408   .     S
C760   C764    1.408   .     S
Cu761  Cu762   2.682   .     S
Cu761  N779    2.015   .     S
Cu762  N780    2.015   .     S
C764   C1159   1.190   .     S
C765   C770    1.408   .     A
C765   N781    1.434   .     S
C766   C769    1.408   .     A
C766   N784    1.434   .     S
C766   C680    1.396   1_655 S
C767   N787    1.438   .     S
C767   C769    1.409   .     A
C767   C677    1.396   1_655 S
C768   N790    1.438   .     S
C768   C770    1.409   .     A
C771   H775    1.082   .     S
C771   N780    1.367   .     A
C772   N779    1.367   .     A
C772   H776    1.082   .     S
C772   C509    1.418   1_565 S
C773   N780    1.367   .     A
C773   H777    1.081   .     S
C774   N779    1.367   .     A
C774   H778    1.081   .     S
C774   C507    1.418   1_565 S
N781   O782    1.301   .     A
N781   O783    1.301   .     A
N784   O786    1.301   .     A
N784   O785    1.301   .     A
N787   O789    1.301   .     A
N787   O788    1.301   .     A
N790   O792    1.301   .     A
N790   O791    1.301   .     A
O793   C797    1.290   .     A
O793   Cu805   1.960   .     S
O794   C798    1.290   .     A
O794   Cu806   1.960   .     S
O795   Cu805   1.961   .     S
O795   C798    1.289   .     A
O796   Cu806   1.961   .     S
O796   C797    1.289   .     A
C797   C814    1.448   .     S
C798   C813    1.448   .     S
O799   C803    1.288   .     A
O799   Cu805   1.932   .     S
O800   C804    1.288   .     A
O800   Cu806   1.932   .     S
O801   C804    1.289   .     A
O801   Cu805   1.933   .     S
O802   C803    1.289   .     A
O802   Cu806   1.933   .     S
C803   C807    1.408   .     S
C804   C808    1.408   .     S
Cu805  Cu806   2.682   .     S
Cu805  N823    2.015   .     S
Cu806  N824    2.015   .     S
C808   C15     1.190   1_556 S
C809   C814    1.408   .     A
C809   N825    1.434   .     S
C809   C899    1.396   1_455 S
C810   C813    1.408   .     A
C810   N828    1.434   .     S
C810   C856    1.396   .     S
C811   N831    1.438   .     S
C811   C813    1.409   .     A
C811   C853    1.396   .     S
C812   N834    1.438   .     S
C812   C814    1.409   .     A
C812   C898    1.396   1_455 S
C815   H819    1.082   .     S
C815   N824    1.367   .     A
C815   C1082   1.418   1_545 S
C816   N823    1.367   .     A
C816   H820    1.082   .     S
C816   C949    1.418   .     S
C817   N824    1.367   .     A
C817   H821    1.081   .     S
C817   C1080   1.418   1_545 S
C818   N823    1.367   .     A
C818   H822    1.081   .     S
C818   C947    1.418   .     S
N825   O826    1.301   .     A
N825   O827    1.301   .     A
N828   O830    1.301   .     A
N828   O829    1.301   .     A
N831   O833    1.301   .     A
N831   O832    1.301   .     A
N834   O836    1.301   .     A
N834   O835    1.301   .     A
O837   C841    1.290   .     A
O837   Cu849   1.960   .     S
O838   C842    1.290   .     A
O838   Cu850   1.960   .     S
O839   Cu849   1.961   .     S
O839   C842    1.289   .     A
O840   Cu850   1.961   .     S
O840   C841    1.289   .     A
C841   C858    1.448   .     S
C842   C857    1.448   .     S
O843   C847    1.288   .     A
O843   Cu849   1.932   .     S
O844   C848    1.288   .     A
O844   Cu850   1.932   .     S
O845   C848    1.289   .     A
O845   Cu849   1.933   .     S
O846   C847    1.289   .     A
O846   Cu850   1.933   .     S
C847   C851    1.408   .     S
C848   C852    1.408   .     S
Cu849  Cu850   2.682   .     S
Cu849  N867    2.015   .     S
Cu850  N868    2.015   .     S
C852   C59     1.190   1_556 S
C853   C858    1.408   .     A
C853   N869    1.434   .     S
C854   C857    1.408   .     A
C854   N872    1.434   .     S
C854   C900    1.396   .     S
C855   N875    1.438   .     S
C855   C857    1.409   .     A
C855   C897    1.396   .     S
C856   N878    1.438   .     S
C856   C858    1.409   .     A
C859   H863    1.082   .     S
C859   N868    1.367   .     A
C859   C1126   1.418   1_545 S
C860   N867    1.367   .     A
C860   H864    1.082   .     S
C860   C993    1.418   .     S
C861   N868    1.367   .     A
C861   H865    1.081   .     S
C861   C1124   1.418   1_545 S
C862   N867    1.367   .     A
C862   H866    1.081   .     S
C862   C991    1.418   .     S
N869   O870    1.301   .     A
N869   O871    1.301   .     A
N872   O874    1.301   .     A
N872   O873    1.301   .     A
N875   O877    1.301   .     A
N875   O876    1.301   .     A
N878   O880    1.301   .     A
N878   O879    1.301   .     A
O881   C885    1.290   .     A
O881   Cu893   1.960   .     S
O882   C886    1.290   .     A
O882   Cu894   1.960   .     S
O883   Cu893   1.961   .     S
O883   C886    1.289   .     A
O884   Cu894   1.961   .     S
O884   C885    1.289   .     A
C885   C902    1.448   .     S
C886   C901    1.448   .     S
O887   C891    1.288   .     A
O887   Cu893   1.932   .     S
O888   C892    1.288   .     A
O888   Cu894   1.932   .     S
O889   C892    1.289   .     A
O889   Cu893   1.933   .     S
O890   C891    1.289   .     A
O890   Cu894   1.933   .     S
C891   C895    1.408   .     S
C892   C896    1.408   .     S
Cu893  Cu894   2.682   .     S
Cu893  N911    2.015   .     S
Cu894  N912    2.015   .     S
C896   C103    1.190   1_556 S
C897   C902    1.408   .     A
C897   N913    1.434   .     S
C898   C901    1.408   .     A
C898   N916    1.434   .     S
C898   C812    1.396   1_655 S
C899   N919    1.438   .     S
C899   C901    1.409   .     A
C899   C809    1.396   1_655 S
C900   N922    1.438   .     S
C900   C902    1.409   .     A
C903   H907    1.082   .     S
C903   N912    1.367   .     A
C903   C1170   1.418   1_545 S
C904   N911    1.367   .     A
C904   H908    1.082   .     S
C904   C1037   1.418   .     S
C905   N912    1.367   .     A
C905   H909    1.081   .     S
C905   C1168   1.418   1_545 S
C906   N911    1.367   .     A
C906   H910    1.081   .     S
C906   C1035   1.418   .     S
N913   O914    1.301   .     A
N913   O915    1.301   .     A
N916   O918    1.301   .     A
N916   O917    1.301   .     A
N919   O921    1.301   .     A
N919   O920    1.301   .     A
N922   O924    1.301   .     A
N922   O923    1.301   .     A
O925   C929    1.290   .     A
O925   Cu937   1.960   .     S
O926   C930    1.290   .     A
O926   Cu938   1.960   .     S
O927   Cu937   1.961   .     S
O927   C930    1.289   .     A
O928   Cu938   1.961   .     S
O928   C929    1.289   .     A
C929   C946    1.448   .     S
C930   C945    1.448   .     S
O931   C935    1.288   .     A
O931   Cu937   1.932   .     S
O932   C936    1.288   .     A
O932   Cu938   1.932   .     S
O933   C936    1.289   .     A
O933   Cu937   1.933   .     S
O934   C935    1.289   .     A
O934   Cu938   1.933   .     S
C935   C939    1.408   .     S
C936   C940    1.408   .     S
Cu937  Cu938   2.682   .     S
Cu937  N955    2.015   .     S
Cu938  N956    2.015   .     S
C940   C147    1.190   1_556 S
C941   C946    1.408   .     A
C941   N957    1.434   .     S
C941   C1031   1.396   1_455 S
C942   C945    1.408   .     A
C942   N960    1.434   .     S
C942   C988    1.396   .     S
C943   N963    1.438   .     S
C943   C945    1.409   .     A
C943   C985    1.396   .     S
C944   N966    1.438   .     S
C944   C946    1.409   .     A
C944   C1030   1.396   1_455 S
C947   H951    1.082   .     S
C947   N956    1.367   .     A
C948   N955    1.367   .     A
C948   H952    1.082   .     S
C948   C1081   1.418   .     S
C949   N956    1.367   .     A
C949   H953    1.081   .     S
C950   N955    1.367   .     A
C950   H954    1.081   .     S
C950   C1079   1.418   .     S
N957   O958    1.301   .     A
N957   O959    1.301   .     A
N960   O962    1.301   .     A
N960   O961    1.301   .     A
N963   O965    1.301   .     A
N963   O964    1.301   .     A
N966   O968    1.301   .     A
N966   O967    1.301   .     A
O969   C973    1.290   .     A
O969   Cu981   1.960   .     S
O970   C974    1.290   .     A
O970   Cu982   1.960   .     S
O971   Cu981   1.961   .     S
O971   C974    1.289   .     A
O972   Cu982   1.961   .     S
O972   C973    1.289   .     A
C973   C990    1.448   .     S
C974   C989    1.448   .     S
O975   C979    1.288   .     A
O975   Cu981   1.932   .     S
O976   C980    1.288   .     A
O976   Cu982   1.932   .     S
O977   C980    1.289   .     A
O977   Cu981   1.933   .     S
O978   C979    1.289   .     A
O978   Cu982   1.933   .     S
C979   C983    1.408   .     S
C980   C984    1.408   .     S
Cu981  Cu982   2.682   .     S
Cu981  N999    2.015   .     S
Cu982  N1000   2.015   .     S
C984   C191    1.190   1_556 S
C985   C990    1.408   .     A
C985   N1001   1.434   .     S
C986   C989    1.408   .     A
C986   N1004   1.434   .     S
C986   C1032   1.396   .     S
C987   N1007   1.438   .     S
C987   C989    1.409   .     A
C987   C1029   1.396   .     S
C988   N1010   1.438   .     S
C988   C990    1.409   .     A
C991   H995    1.082   .     S
C991   N1000   1.367   .     A
C992   N999    1.367   .     A
C992   H996    1.082   .     S
C992   C1125   1.418   .     S
C993   N1000   1.367   .     A
C993   H997    1.081   .     S
C994   N999    1.367   .     A
C994   H998    1.081   .     S
C994   C1123   1.418   .     S
N1001  O1002   1.301   .     A
N1001  O1003   1.301   .     A
N1004  O1006   1.301   .     A
N1004  O1005   1.301   .     A
N1007  O1009   1.301   .     A
N1007  O1008   1.301   .     A
N1010  O1012   1.301   .     A
N1010  O1011   1.301   .     A
O1013  C1017   1.290   .     A
O1013  Cu1025  1.960   .     S
O1014  C1018   1.290   .     A
O1014  Cu1026  1.960   .     S
O1015  Cu1025  1.961   .     S
O1015  C1018   1.289   .     A
O1016  Cu1026  1.961   .     S
O1016  C1017   1.289   .     A
C1017  C1034   1.448   .     S
C1018  C1033   1.448   .     S
O1019  C1023   1.288   .     A
O1019  Cu1025  1.932   .     S
O1020  C1024   1.288   .     A
O1020  Cu1026  1.932   .     S
O1021  C1024   1.289   .     A
O1021  Cu1025  1.933   .     S
O1022  C1023   1.289   .     A
O1022  Cu1026  1.933   .     S
C1023  C1027   1.408   .     S
C1024  C1028   1.408   .     S
Cu1025 Cu1026  2.682   .     S
Cu1025 N1043   2.015   .     S
Cu1026 N1044   2.015   .     S
C1028  C235    1.190   1_556 S
C1029  C1034   1.408   .     A
C1029  N1045   1.434   .     S
C1030  C1033   1.408   .     A
C1030  N1048   1.434   .     S
C1030  C944    1.396   1_655 S
C1031  N1051   1.438   .     S
C1031  C1033   1.409   .     A
C1031  C941    1.396   1_655 S
C1032  N1054   1.438   .     S
C1032  C1034   1.409   .     A
C1035  H1039   1.082   .     S
C1035  N1044   1.367   .     A
C1036  N1043   1.367   .     A
C1036  H1040   1.082   .     S
C1036  C1169   1.418   .     S
C1037  N1044   1.367   .     A
C1037  H1041   1.081   .     S
C1038  N1043   1.367   .     A
C1038  H1042   1.081   .     S
C1038  C1167   1.418   .     S
N1045  O1046   1.301   .     A
N1045  O1047   1.301   .     A
N1048  O1050   1.301   .     A
N1048  O1049   1.301   .     A
N1051  O1053   1.301   .     A
N1051  O1052   1.301   .     A
N1054  O1056   1.301   .     A
N1054  O1055   1.301   .     A
O1057  C1061   1.290   .     A
O1057  Cu1069  1.960   .     S
O1058  C1062   1.290   .     A
O1058  Cu1070  1.960   .     S
O1059  Cu1069  1.961   .     S
O1059  C1062   1.289   .     A
O1060  Cu1070  1.961   .     S
O1060  C1061   1.289   .     A
C1061  C1078   1.448   .     S
C1062  C1077   1.448   .     S
O1063  C1067   1.288   .     A
O1063  Cu1069  1.932   .     S
O1064  C1068   1.288   .     A
O1064  Cu1070  1.932   .     S
O1065  C1068   1.289   .     A
O1065  Cu1069  1.933   .     S
O1066  C1067   1.289   .     A
O1066  Cu1070  1.933   .     S
C1067  C1071   1.408   .     S
C1068  C1072   1.408   .     S
Cu1069 Cu1070  2.682   .     S
Cu1069 N1087   2.015   .     S
Cu1070 N1088   2.015   .     S
C1072  C279    1.190   1_556 S
C1073  C1078   1.408   .     A
C1073  N1089   1.434   .     S
C1073  C1163   1.396   1_455 S
C1074  C1077   1.408   .     A
C1074  N1092   1.434   .     S
C1074  C1120   1.396   .     S
C1075  N1095   1.438   .     S
C1075  C1077   1.409   .     A
C1075  C1117   1.396   .     S
C1076  N1098   1.438   .     S
C1076  C1078   1.409   .     A
C1076  C1162   1.396   1_455 S
C1079  H1083   1.082   .     S
C1079  N1088   1.367   .     A
C1080  N1087   1.367   .     A
C1080  H1084   1.082   .     S
C1080  C817    1.418   1_565 S
C1081  N1088   1.367   .     A
C1081  H1085   1.081   .     S
C1082  N1087   1.367   .     A
C1082  H1086   1.081   .     S
C1082  C815    1.418   1_565 S
N1089  O1090   1.301   .     A
N1089  O1091   1.301   .     A
N1092  O1094   1.301   .     A
N1092  O1093   1.301   .     A
N1095  O1097   1.301   .     A
N1095  O1096   1.301   .     A
N1098  O1100   1.301   .     A
N1098  O1099   1.301   .     A
O1101  C1105   1.290   .     A
O1101  Cu1113  1.960   .     S
O1102  C1106   1.290   .     A
O1102  Cu1114  1.960   .     S
O1103  Cu1113  1.961   .     S
O1103  C1106   1.289   .     A
O1104  Cu1114  1.961   .     S
O1104  C1105   1.289   .     A
C1105  C1122   1.448   .     S
C1106  C1121   1.448   .     S
O1107  C1111   1.288   .     A
O1107  Cu1113  1.932   .     S
O1108  C1112   1.288   .     A
O1108  Cu1114  1.932   .     S
O1109  C1112   1.289   .     A
O1109  Cu1113  1.933   .     S
O1110  C1111   1.289   .     A
O1110  Cu1114  1.933   .     S
C1111  C1115   1.408   .     S
C1112  C1116   1.408   .     S
Cu1113 Cu1114  2.682   .     S
Cu1113 N1131   2.015   .     S
Cu1114 N1132   2.015   .     S
C1116  C323    1.190   1_556 S
C1117  C1122   1.408   .     A
C1117  N1133   1.434   .     S
C1118  C1121   1.408   .     A
C1118  N1136   1.434   .     S
C1118  C1164   1.396   .     S
C1119  N1139   1.438   .     S
C1119  C1121   1.409   .     A
C1119  C1161   1.396   .     S
C1120  N1142   1.438   .     S
C1120  C1122   1.409   .     A
C1123  H1127   1.082   .     S
C1123  N1132   1.367   .     A
C1124  N1131   1.367   .     A
C1124  H1128   1.082   .     S
C1124  C861    1.418   1_565 S
C1125  N1132   1.367   .     A
C1125  H1129   1.081   .     S
C1126  N1131   1.367   .     A
C1126  H1130   1.081   .     S
C1126  C859    1.418   1_565 S
N1133  O1134   1.301   .     A
N1133  O1135   1.301   .     A
N1136  O1138   1.301   .     A
N1136  O1137   1.301   .     A
N1139  O1141   1.301   .     A
N1139  O1140   1.301   .     A
N1142  O1144   1.301   .     A
N1142  O1143   1.301   .     A
O1145  C1149   1.290   .     A
O1145  Cu1157  1.960   .     S
O1146  C1150   1.290   .     A
O1146  Cu1158  1.960   .     S
O1147  Cu1157  1.961   .     S
O1147  C1150   1.289   .     A
O1148  Cu1158  1.961   .     S
O1148  C1149   1.289   .     A
C1149  C1166   1.448   .     S
C1150  C1165   1.448   .     S
O1151  C1155   1.288   .     A
O1151  Cu1157  1.932   .     S
O1152  C1156   1.288   .     A
O1152  Cu1158  1.932   .     S
O1153  C1156   1.289   .     A
O1153  Cu1157  1.933   .     S
O1154  C1155   1.289   .     A
O1154  Cu1158  1.933   .     S
C1155  C1159   1.408   .     S
C1156  C1160   1.408   .     S
Cu1157 Cu1158  2.682   .     S
Cu1157 N1175   2.015   .     S
Cu1158 N1176   2.015   .     S
C1160  C367    1.190   1_556 S
C1161  C1166   1.408   .     A
C1161  N1177   1.434   .     S
C1162  C1165   1.408   .     A
C1162  N1180   1.434   .     S
C1162  C1076   1.396   1_655 S
C1163  N1183   1.438   .     S
C1163  C1165   1.409   .     A
C1163  C1073   1.396   1_655 S
C1164  N1186   1.438   .     S
C1164  C1166   1.409   .     A
C1167  H1171   1.082   .     S
C1167  N1176   1.367   .     A
C1168  N1175   1.367   .     A
C1168  H1172   1.082   .     S
C1168  C905    1.418   1_565 S
C1169  N1176   1.367   .     A
C1169  H1173   1.081   .     S
C1170  N1175   1.367   .     A
C1170  H1174   1.081   .     S
C1170  C903    1.418   1_565 S
N1177  O1178   1.301   .     A
N1177  O1179   1.301   .     A
N1180  O1182   1.301   .     A
N1180  O1181   1.301   .     A
N1183  O1185   1.301   .     A
N1183  O1184   1.301   .     A
N1186  O1188   1.301   .     A
N1186  O1187   1.301   .     A
