data_str_m2_o10_o16_pcu_sym.108
_audit_creation_date              2020-01-03
_audit_creation_method            'Materials Studio'
_symmetry_space_group_name_H-M    'P1'
_symmetry_Int_Tables_number       1
_symmetry_cell_setting            triclinic
loop_
_symmetry_equiv_pos_as_xyz
  x,y,z
_cell_length_a                    22.3152
_cell_length_b                    26.1395
_cell_length_c                    26.8197
_cell_angle_alpha                 94.0566
_cell_angle_beta                  77.2469
_cell_angle_gamma                 103.0599
loop_
_atom_site_label
_atom_site_type_symbol
_atom_site_fract_x
_atom_site_fract_y
_atom_site_fract_z
_atom_site_U_iso_or_equiv
_atom_site_adp_type
_atom_site_occupancy
C1     C     0.18017   0.26653   0.25458   0.00000  Uiso   1.00
C2     C     0.14200   0.16312   0.48634   0.00000  Uiso   1.00
C3     C     0.15478   0.18186   0.43579   0.00000  Uiso   1.00
C4     C     0.18841   0.17978   0.01669   0.00000  Uiso   1.00
C5     C     0.24463   0.21638   0.49682   0.00000  Uiso   1.00
C6     C     0.25419   0.23679   0.44846   0.00000  Uiso   1.00
C7     C     0.20944   0.22081   0.41893   0.00000  Uiso   1.00
C8     C     0.18014   0.16243   0.06667   0.00000  Uiso   1.00
C9     C     0.27911   0.22025   0.07731   0.00000  Uiso   1.00
C10    C     0.11230   0.16154   0.40322   0.00000  Uiso   1.00
C11    C     0.18654   0.32240   0.25676   0.00000  Uiso   1.00
C12    C     0.13300   0.16519   0.34723   0.00000  Uiso   1.00
C13    C     0.13691   0.01214   0.26618   0.00000  Uiso   1.00
C14    C     0.14977   0.06696   0.25342   0.00000  Uiso   1.00
C15    C     0.20112   0.17263   0.15305   0.00000  Uiso   1.00
C16    C     0.28991   0.23455   0.02629   0.00000  Uiso   1.00
C17    C     0.22273   0.18386   0.09800   0.00000  Uiso   1.00
C18    C     0.05309   0.13058   0.42362   0.00000  Uiso   1.00
C19    C     0.03833   0.11527   0.47416   0.00000  Uiso   1.00
C20    C     0.08277   0.12952   0.00466   0.00000  Uiso   1.00
Cu21   Cu    0.10710   0.16105   0.24436   0.00000  Uiso   1.00
Cu22   Cu    0.22623   0.17228   0.25564   0.00000  Uiso   1.00
H23    H     0.33220   0.19793   0.29562   0.00000  Uiso   1.00
H24    H     0.29604   0.26622   0.43374   0.00000  Uiso   1.00
H25    H     0.33271   0.26248   0.01024   0.00000  Uiso   1.00
H26    H     0.13933   0.13345   0.08323   0.00000  Uiso   1.00
H27    H     0.01928   0.11591   0.39978   0.00000  Uiso   1.00
H28    H     0.06861   0.11439   0.04266   0.00000  Uiso   1.00
H29    H     0.32624   0.09040   0.48931   0.00000  Uiso   1.00
H30    H     0.21768   0.24047   0.38312   0.00000  Uiso   1.00
H31    H     0.23406   0.01170   0.24490   0.00000  Uiso   1.00
N32    N     0.31574   0.18074   0.26416   0.00000  Uiso   1.00
N33    N     0.01759   0.15259   0.23584   0.00000  Uiso   1.00
O34    O     0.12797   0.23807   0.24633   0.00000  Uiso   1.00
O35    O     0.22858   0.24755   0.25586   0.00000  Uiso   1.00
O36    O     0.09181   0.15960   0.31840   0.00000  Uiso   1.00
O37    O     0.19242   0.16908   0.32793   0.00000  Uiso   1.00
O38    O     0.10476   0.08578   0.24413   0.00000  Uiso   1.00
O39    O     0.20536   0.09526   0.25367   0.00000  Uiso   1.00
O40    O     0.14092   0.16425   0.17207   0.00000  Uiso   1.00
O41    O     0.24152   0.17373   0.18160   0.00000  Uiso   1.00
C42    C     0.32685   0.24804   0.10809   0.00000  Uiso   1.00
C43    C     0.04744   0.21985   0.10232   0.00000  Uiso   1.00
H44    H     0.07607   0.23532   0.13130   0.00000  Uiso   1.00
H45    H     0.02920   0.17705   0.10718   0.00000  Uiso   1.00
H46    H     0.07808   0.22676   0.06371   0.00000  Uiso   1.00
H47    H     0.01410   0.28851   0.09393   0.00000  Uiso   1.00
H48    H     0.30528   0.25327   0.14890   0.00000  Uiso   1.00
C49    C     0.06979   0.31851   0.29178   0.00000  Uiso   1.00
C50    C     0.04048   0.01758   0.33647   0.00000  Uiso   1.00
H51    H     0.07293   0.03020   0.36319   0.00000  Uiso   1.00
H52    H     0.02889   0.05247   0.32284   0.00000  Uiso   1.00
H53    H     0.32917   0.32666   0.35767   0.00000  Uiso   1.00
H54    H     0.03967   0.31063   0.26297   0.00000  Uiso   1.00
H55    H     0.06856   0.28097   0.30903   0.00000  Uiso   1.00
O56    O     0.33248   0.13529   0.19212   0.00000  Uiso   1.00
C57    C     0.00931   0.08419   0.18143   0.00000  Uiso   1.00
H58    H     0.33154   0.06090   0.21674   0.00000  Uiso   1.00
H59    H     0.05874   0.08535   0.16159   0.00000  Uiso   1.00
C60    C     0.29982   0.05663   0.14616   0.00000  Uiso   1.00
H61    H     0.31656   0.07318   0.10734   0.00000  Uiso   1.00
H62    H     0.29916   0.01415   0.14388   0.00000  Uiso   1.00
H63    H     0.25093   0.06155   0.16100   0.00000  Uiso   1.00
C64    C     0.51350   0.26653   0.25458   0.00000  Uiso   1.00
C65    C     0.47533   0.16312   0.48634   0.00000  Uiso   1.00
C66    C     0.48811   0.18186   0.43579   0.00000  Uiso   1.00
C67    C     0.52174   0.17978   0.01669   0.00000  Uiso   1.00
C68    C     0.57796   0.21638   0.49682   0.00000  Uiso   1.00
C69    C     0.58752   0.23679   0.44846   0.00000  Uiso   1.00
C70    C     0.54277   0.22081   0.41893   0.00000  Uiso   1.00
C71    C     0.51348   0.16243   0.06667   0.00000  Uiso   1.00
C72    C     0.61245   0.22025   0.07731   0.00000  Uiso   1.00
C73    C     0.44563   0.16154   0.40322   0.00000  Uiso   1.00
C74    C     0.51987   0.32240   0.25676   0.00000  Uiso   1.00
C75    C     0.46633   0.16519   0.34723   0.00000  Uiso   1.00
C76    C     0.47024   0.01214   0.26618   0.00000  Uiso   1.00
C77    C     0.48310   0.06696   0.25342   0.00000  Uiso   1.00
C78    C     0.53445   0.17263   0.15305   0.00000  Uiso   1.00
C79    C     0.62325   0.23455   0.02629   0.00000  Uiso   1.00
C80    C     0.55607   0.18386   0.09800   0.00000  Uiso   1.00
C81    C     0.38642   0.13058   0.42362   0.00000  Uiso   1.00
C82    C     0.37166   0.11527   0.47416   0.00000  Uiso   1.00
C83    C     0.41610   0.12952   0.00466   0.00000  Uiso   1.00
Cu84   Cu    0.44043   0.16105   0.24436   0.00000  Uiso   1.00
Cu85   Cu    0.55957   0.17228   0.25564   0.00000  Uiso   1.00
H86    H     0.66554   0.19793   0.29562   0.00000  Uiso   1.00
H87    H     0.62937   0.26622   0.43374   0.00000  Uiso   1.00
H88    H     0.66604   0.26248   0.01024   0.00000  Uiso   1.00
H89    H     0.47266   0.13345   0.08323   0.00000  Uiso   1.00
H90    H     0.35261   0.11591   0.39978   0.00000  Uiso   1.00
H91    H     0.40194   0.11439   0.04266   0.00000  Uiso   1.00
H92    H     0.65958   0.09040   0.48931   0.00000  Uiso   1.00
H93    H     0.55101   0.24047   0.38312   0.00000  Uiso   1.00
H94    H     0.56739   0.01170   0.24490   0.00000  Uiso   1.00
N95    N     0.64908   0.18074   0.26416   0.00000  Uiso   1.00
N96    N     0.35092   0.15259   0.23584   0.00000  Uiso   1.00
O97    O     0.46131   0.23807   0.24633   0.00000  Uiso   1.00
O98    O     0.56191   0.24755   0.25586   0.00000  Uiso   1.00
O99    O     0.42515   0.15960   0.31840   0.00000  Uiso   1.00
O100   O     0.52575   0.16908   0.32793   0.00000  Uiso   1.00
O101   O     0.43809   0.08578   0.24413   0.00000  Uiso   1.00
O102   O     0.53869   0.09526   0.25367   0.00000  Uiso   1.00
O103   O     0.47425   0.16425   0.17207   0.00000  Uiso   1.00
O104   O     0.57485   0.17373   0.18160   0.00000  Uiso   1.00
C105   C     0.66018   0.24804   0.10809   0.00000  Uiso   1.00
C106   C     0.38077   0.21985   0.10232   0.00000  Uiso   1.00
H107   H     0.40941   0.23532   0.13130   0.00000  Uiso   1.00
H108   H     0.36253   0.17705   0.10718   0.00000  Uiso   1.00
H109   H     0.41142   0.22676   0.06371   0.00000  Uiso   1.00
H110   H     0.34743   0.28851   0.09393   0.00000  Uiso   1.00
H111   H     0.63861   0.25327   0.14890   0.00000  Uiso   1.00
C112   C     0.40312   0.31851   0.29178   0.00000  Uiso   1.00
C113   C     0.37381   0.01758   0.33647   0.00000  Uiso   1.00
H114   H     0.40626   0.03020   0.36319   0.00000  Uiso   1.00
H115   H     0.36222   0.05247   0.32284   0.00000  Uiso   1.00
H116   H     0.66250   0.32666   0.35767   0.00000  Uiso   1.00
H117   H     0.37301   0.31063   0.26297   0.00000  Uiso   1.00
H118   H     0.40190   0.28097   0.30903   0.00000  Uiso   1.00
O119   O     0.66581   0.13529   0.19212   0.00000  Uiso   1.00
C120   C     0.34264   0.08419   0.18143   0.00000  Uiso   1.00
H121   H     0.66487   0.06090   0.21674   0.00000  Uiso   1.00
H122   H     0.39207   0.08535   0.16159   0.00000  Uiso   1.00
C123   C     0.63315   0.05663   0.14616   0.00000  Uiso   1.00
H124   H     0.64989   0.07318   0.10734   0.00000  Uiso   1.00
H125   H     0.63249   0.01415   0.14388   0.00000  Uiso   1.00
H126   H     0.58427   0.06155   0.16100   0.00000  Uiso   1.00
C127   C     0.84684   0.26653   0.25458   0.00000  Uiso   1.00
C128   C     0.80866   0.16312   0.48634   0.00000  Uiso   1.00
C129   C     0.82145   0.18186   0.43579   0.00000  Uiso   1.00
C130   C     0.85508   0.17978   0.01669   0.00000  Uiso   1.00
C131   C     0.91130   0.21638   0.49682   0.00000  Uiso   1.00
C132   C     0.92086   0.23679   0.44846   0.00000  Uiso   1.00
C133   C     0.87610   0.22081   0.41893   0.00000  Uiso   1.00
C134   C     0.84681   0.16243   0.06667   0.00000  Uiso   1.00
C135   C     0.94578   0.22025   0.07731   0.00000  Uiso   1.00
C136   C     0.77897   0.16154   0.40322   0.00000  Uiso   1.00
C137   C     0.85320   0.32240   0.25676   0.00000  Uiso   1.00
C138   C     0.79967   0.16519   0.34723   0.00000  Uiso   1.00
C139   C     0.80358   0.01214   0.26618   0.00000  Uiso   1.00
C140   C     0.81643   0.06696   0.25342   0.00000  Uiso   1.00
C141   C     0.86779   0.17263   0.15305   0.00000  Uiso   1.00
C142   C     0.95658   0.23455   0.02629   0.00000  Uiso   1.00
C143   C     0.88940   0.18386   0.09800   0.00000  Uiso   1.00
C144   C     0.71976   0.13058   0.42362   0.00000  Uiso   1.00
C145   C     0.70500   0.11527   0.47416   0.00000  Uiso   1.00
C146   C     0.74943   0.12952   0.00466   0.00000  Uiso   1.00
Cu147  Cu    0.77377   0.16105   0.24436   0.00000  Uiso   1.00
Cu148  Cu    0.89290   0.17228   0.25564   0.00000  Uiso   1.00
H149   H     0.99887   0.19793   0.29562   0.00000  Uiso   1.00
H150   H     0.96271   0.26622   0.43374   0.00000  Uiso   1.00
H151   H     0.99937   0.26248   0.01024   0.00000  Uiso   1.00
H152   H     0.80599   0.13345   0.08323   0.00000  Uiso   1.00
H153   H     0.68595   0.11591   0.39978   0.00000  Uiso   1.00
H154   H     0.73527   0.11439   0.04266   0.00000  Uiso   1.00
H155   H     0.99291   0.09040   0.48931   0.00000  Uiso   1.00
H156   H     0.88435   0.24047   0.38312   0.00000  Uiso   1.00
H157   H     0.90072   0.01170   0.24490   0.00000  Uiso   1.00
N158   N     0.98241   0.18074   0.26416   0.00000  Uiso   1.00
N159   N     0.68426   0.15259   0.23584   0.00000  Uiso   1.00
O160   O     0.79464   0.23807   0.24633   0.00000  Uiso   1.00
O161   O     0.89524   0.24755   0.25586   0.00000  Uiso   1.00
O162   O     0.75848   0.15960   0.31840   0.00000  Uiso   1.00
O163   O     0.85908   0.16908   0.32793   0.00000  Uiso   1.00
O164   O     0.77142   0.08578   0.24413   0.00000  Uiso   1.00
O165   O     0.87203   0.09526   0.25367   0.00000  Uiso   1.00
O166   O     0.80758   0.16425   0.17207   0.00000  Uiso   1.00
O167   O     0.90819   0.17373   0.18160   0.00000  Uiso   1.00
C168   C     0.99351   0.24804   0.10809   0.00000  Uiso   1.00
C169   C     0.71410   0.21985   0.10232   0.00000  Uiso   1.00
H170   H     0.74274   0.23532   0.13130   0.00000  Uiso   1.00
H171   H     0.69587   0.17705   0.10718   0.00000  Uiso   1.00
H172   H     0.74475   0.22676   0.06371   0.00000  Uiso   1.00
H173   H     0.68076   0.28851   0.09393   0.00000  Uiso   1.00
H174   H     0.97195   0.25327   0.14890   0.00000  Uiso   1.00
C175   C     0.73646   0.31851   0.29178   0.00000  Uiso   1.00
C176   C     0.70715   0.01758   0.33647   0.00000  Uiso   1.00
H177   H     0.73960   0.03020   0.36319   0.00000  Uiso   1.00
H178   H     0.69556   0.05247   0.32284   0.00000  Uiso   1.00
H179   H     0.99583   0.32666   0.35767   0.00000  Uiso   1.00
H180   H     0.70634   0.31063   0.26297   0.00000  Uiso   1.00
H181   H     0.73523   0.28097   0.30903   0.00000  Uiso   1.00
O182   O     0.99914   0.13529   0.19212   0.00000  Uiso   1.00
C183   C     0.67597   0.08419   0.18143   0.00000  Uiso   1.00
H184   H     0.99821   0.06090   0.21674   0.00000  Uiso   1.00
H185   H     0.72541   0.08535   0.16159   0.00000  Uiso   1.00
C186   C     0.96649   0.05663   0.14616   0.00000  Uiso   1.00
H187   H     0.98322   0.07318   0.10734   0.00000  Uiso   1.00
H188   H     0.96582   0.01415   0.14388   0.00000  Uiso   1.00
H189   H     0.91760   0.06155   0.16100   0.00000  Uiso   1.00
C190   C     0.18017   0.59987   0.25458   0.00000  Uiso   1.00
C191   C     0.14200   0.49645   0.48634   0.00000  Uiso   1.00
C192   C     0.15478   0.51519   0.43579   0.00000  Uiso   1.00
C193   C     0.18841   0.51311   0.01669   0.00000  Uiso   1.00
C194   C     0.24463   0.54972   0.49682   0.00000  Uiso   1.00
C195   C     0.25419   0.57012   0.44846   0.00000  Uiso   1.00
C196   C     0.20944   0.55414   0.41893   0.00000  Uiso   1.00
C197   C     0.18014   0.49576   0.06667   0.00000  Uiso   1.00
C198   C     0.27911   0.55358   0.07731   0.00000  Uiso   1.00
C199   C     0.11230   0.49487   0.40322   0.00000  Uiso   1.00
C200   C     0.18654   0.65574   0.25676   0.00000  Uiso   1.00
C201   C     0.13300   0.49852   0.34723   0.00000  Uiso   1.00
C202   C     0.13691   0.34548   0.26618   0.00000  Uiso   1.00
C203   C     0.14977   0.40029   0.25342   0.00000  Uiso   1.00
C204   C     0.20112   0.50597   0.15305   0.00000  Uiso   1.00
C205   C     0.28991   0.56788   0.02629   0.00000  Uiso   1.00
C206   C     0.22273   0.51720   0.09800   0.00000  Uiso   1.00
C207   C     0.05309   0.46391   0.42362   0.00000  Uiso   1.00
C208   C     0.03833   0.44860   0.47416   0.00000  Uiso   1.00
C209   C     0.08277   0.46285   0.00466   0.00000  Uiso   1.00
Cu210  Cu    0.10710   0.49439   0.24436   0.00000  Uiso   1.00
Cu211  Cu    0.22623   0.50561   0.25564   0.00000  Uiso   1.00
H212   H     0.33220   0.53127   0.29562   0.00000  Uiso   1.00
H213   H     0.29604   0.59955   0.43374   0.00000  Uiso   1.00
H214   H     0.33271   0.59581   0.01024   0.00000  Uiso   1.00
H215   H     0.13933   0.46678   0.08323   0.00000  Uiso   1.00
H216   H     0.01928   0.44925   0.39978   0.00000  Uiso   1.00
H217   H     0.06861   0.44772   0.04266   0.00000  Uiso   1.00
H218   H     0.32624   0.42373   0.48931   0.00000  Uiso   1.00
H219   H     0.21768   0.57380   0.38312   0.00000  Uiso   1.00
H220   H     0.23406   0.34504   0.24490   0.00000  Uiso   1.00
N221   N     0.31574   0.51407   0.26416   0.00000  Uiso   1.00
N222   N     0.01759   0.48593   0.23584   0.00000  Uiso   1.00
O223   O     0.12797   0.57141   0.24633   0.00000  Uiso   1.00
O224   O     0.22858   0.58089   0.25586   0.00000  Uiso   1.00
O225   O     0.09181   0.49293   0.31840   0.00000  Uiso   1.00
O226   O     0.19242   0.50241   0.32793   0.00000  Uiso   1.00
O227   O     0.10476   0.41911   0.24413   0.00000  Uiso   1.00
O228   O     0.20536   0.42859   0.25367   0.00000  Uiso   1.00
O229   O     0.14092   0.49759   0.17207   0.00000  Uiso   1.00
O230   O     0.24152   0.50707   0.18160   0.00000  Uiso   1.00
C231   C     0.32685   0.58137   0.10809   0.00000  Uiso   1.00
C232   C     0.04744   0.55319   0.10232   0.00000  Uiso   1.00
H233   H     0.07607   0.56865   0.13130   0.00000  Uiso   1.00
H234   H     0.02920   0.51038   0.10718   0.00000  Uiso   1.00
H235   H     0.07808   0.56009   0.06371   0.00000  Uiso   1.00
H236   H     0.01410   0.62185   0.09393   0.00000  Uiso   1.00
H237   H     0.30528   0.58661   0.14890   0.00000  Uiso   1.00
C238   C     0.06979   0.65184   0.29178   0.00000  Uiso   1.00
C239   C     0.04048   0.35092   0.33647   0.00000  Uiso   1.00
H240   H     0.07293   0.36353   0.36319   0.00000  Uiso   1.00
H241   H     0.02889   0.38580   0.32284   0.00000  Uiso   1.00
H242   H     0.32917   0.65999   0.35767   0.00000  Uiso   1.00
H243   H     0.03967   0.64396   0.26297   0.00000  Uiso   1.00
H244   H     0.06856   0.61430   0.30903   0.00000  Uiso   1.00
O245   O     0.33248   0.46862   0.19212   0.00000  Uiso   1.00
C246   C     0.00931   0.41753   0.18143   0.00000  Uiso   1.00
H247   H     0.33154   0.39423   0.21674   0.00000  Uiso   1.00
H248   H     0.05874   0.41869   0.16159   0.00000  Uiso   1.00
C249   C     0.29982   0.38996   0.14616   0.00000  Uiso   1.00
H250   H     0.31656   0.40652   0.10734   0.00000  Uiso   1.00
H251   H     0.29916   0.34749   0.14388   0.00000  Uiso   1.00
H252   H     0.25093   0.39489   0.16100   0.00000  Uiso   1.00
C253   C     0.51350   0.59987   0.25458   0.00000  Uiso   1.00
C254   C     0.47533   0.49645   0.48634   0.00000  Uiso   1.00
C255   C     0.48811   0.51519   0.43579   0.00000  Uiso   1.00
C256   C     0.52174   0.51311   0.01669   0.00000  Uiso   1.00
C257   C     0.57796   0.54972   0.49682   0.00000  Uiso   1.00
C258   C     0.58752   0.57012   0.44846   0.00000  Uiso   1.00
C259   C     0.54277   0.55414   0.41893   0.00000  Uiso   1.00
C260   C     0.51348   0.49576   0.06667   0.00000  Uiso   1.00
C261   C     0.61245   0.55358   0.07731   0.00000  Uiso   1.00
C262   C     0.44563   0.49487   0.40322   0.00000  Uiso   1.00
C263   C     0.51987   0.65574   0.25676   0.00000  Uiso   1.00
C264   C     0.46633   0.49852   0.34723   0.00000  Uiso   1.00
C265   C     0.47024   0.34548   0.26618   0.00000  Uiso   1.00
C266   C     0.48310   0.40029   0.25342   0.00000  Uiso   1.00
C267   C     0.53445   0.50597   0.15305   0.00000  Uiso   1.00
C268   C     0.62325   0.56788   0.02629   0.00000  Uiso   1.00
C269   C     0.55607   0.51720   0.09800   0.00000  Uiso   1.00
C270   C     0.38642   0.46391   0.42362   0.00000  Uiso   1.00
C271   C     0.37166   0.44860   0.47416   0.00000  Uiso   1.00
C272   C     0.41610   0.46285   0.00466   0.00000  Uiso   1.00
Cu273  Cu    0.44043   0.49439   0.24436   0.00000  Uiso   1.00
Cu274  Cu    0.55957   0.50561   0.25564   0.00000  Uiso   1.00
H275   H     0.66554   0.53127   0.29562   0.00000  Uiso   1.00
H276   H     0.62937   0.59955   0.43374   0.00000  Uiso   1.00
H277   H     0.66604   0.59581   0.01024   0.00000  Uiso   1.00
H278   H     0.47266   0.46678   0.08323   0.00000  Uiso   1.00
H279   H     0.35261   0.44925   0.39978   0.00000  Uiso   1.00
H280   H     0.40194   0.44772   0.04266   0.00000  Uiso   1.00
H281   H     0.65958   0.42373   0.48931   0.00000  Uiso   1.00
H282   H     0.55101   0.57380   0.38312   0.00000  Uiso   1.00
H283   H     0.56739   0.34504   0.24490   0.00000  Uiso   1.00
N284   N     0.64908   0.51407   0.26416   0.00000  Uiso   1.00
N285   N     0.35092   0.48593   0.23584   0.00000  Uiso   1.00
O286   O     0.46131   0.57141   0.24633   0.00000  Uiso   1.00
O287   O     0.56191   0.58089   0.25586   0.00000  Uiso   1.00
O288   O     0.42515   0.49293   0.31840   0.00000  Uiso   1.00
O289   O     0.52575   0.50241   0.32793   0.00000  Uiso   1.00
O290   O     0.43809   0.41911   0.24413   0.00000  Uiso   1.00
O291   O     0.53869   0.42859   0.25367   0.00000  Uiso   1.00
O292   O     0.47425   0.49759   0.17207   0.00000  Uiso   1.00
O293   O     0.57485   0.50707   0.18160   0.00000  Uiso   1.00
C294   C     0.66018   0.58137   0.10809   0.00000  Uiso   1.00
C295   C     0.38077   0.55319   0.10232   0.00000  Uiso   1.00
H296   H     0.40941   0.56865   0.13130   0.00000  Uiso   1.00
H297   H     0.36253   0.51038   0.10718   0.00000  Uiso   1.00
H298   H     0.41142   0.56009   0.06371   0.00000  Uiso   1.00
H299   H     0.34743   0.62185   0.09393   0.00000  Uiso   1.00
H300   H     0.63861   0.58661   0.14890   0.00000  Uiso   1.00
C301   C     0.40312   0.65184   0.29178   0.00000  Uiso   1.00
C302   C     0.37381   0.35092   0.33647   0.00000  Uiso   1.00
H303   H     0.40626   0.36353   0.36319   0.00000  Uiso   1.00
H304   H     0.36222   0.38580   0.32284   0.00000  Uiso   1.00
H305   H     0.66250   0.65999   0.35767   0.00000  Uiso   1.00
H306   H     0.37301   0.64396   0.26297   0.00000  Uiso   1.00
H307   H     0.40190   0.61430   0.30903   0.00000  Uiso   1.00
O308   O     0.66581   0.46862   0.19212   0.00000  Uiso   1.00
C309   C     0.34264   0.41753   0.18143   0.00000  Uiso   1.00
H310   H     0.66487   0.39423   0.21674   0.00000  Uiso   1.00
H311   H     0.39207   0.41869   0.16159   0.00000  Uiso   1.00
C312   C     0.63315   0.38996   0.14616   0.00000  Uiso   1.00
H313   H     0.64989   0.40652   0.10734   0.00000  Uiso   1.00
H314   H     0.63249   0.34749   0.14388   0.00000  Uiso   1.00
H315   H     0.58427   0.39489   0.16100   0.00000  Uiso   1.00
C316   C     0.84684   0.59987   0.25458   0.00000  Uiso   1.00
C317   C     0.80866   0.49645   0.48634   0.00000  Uiso   1.00
C318   C     0.82145   0.51519   0.43579   0.00000  Uiso   1.00
C319   C     0.85508   0.51311   0.01669   0.00000  Uiso   1.00
C320   C     0.91130   0.54972   0.49682   0.00000  Uiso   1.00
C321   C     0.92086   0.57012   0.44846   0.00000  Uiso   1.00
C322   C     0.87610   0.55414   0.41893   0.00000  Uiso   1.00
C323   C     0.84681   0.49576   0.06667   0.00000  Uiso   1.00
C324   C     0.94578   0.55358   0.07731   0.00000  Uiso   1.00
C325   C     0.77897   0.49487   0.40322   0.00000  Uiso   1.00
C326   C     0.85320   0.65574   0.25676   0.00000  Uiso   1.00
C327   C     0.79967   0.49852   0.34723   0.00000  Uiso   1.00
C328   C     0.80358   0.34548   0.26618   0.00000  Uiso   1.00
C329   C     0.81643   0.40029   0.25342   0.00000  Uiso   1.00
C330   C     0.86779   0.50597   0.15305   0.00000  Uiso   1.00
C331   C     0.95658   0.56788   0.02629   0.00000  Uiso   1.00
C332   C     0.88940   0.51720   0.09800   0.00000  Uiso   1.00
C333   C     0.71976   0.46391   0.42362   0.00000  Uiso   1.00
C334   C     0.70500   0.44860   0.47416   0.00000  Uiso   1.00
C335   C     0.74943   0.46285   0.00466   0.00000  Uiso   1.00
Cu336  Cu    0.77377   0.49439   0.24436   0.00000  Uiso   1.00
Cu337  Cu    0.89290   0.50561   0.25564   0.00000  Uiso   1.00
H338   H     0.99887   0.53127   0.29562   0.00000  Uiso   1.00
H339   H     0.96271   0.59955   0.43374   0.00000  Uiso   1.00
H340   H     0.99937   0.59581   0.01024   0.00000  Uiso   1.00
H341   H     0.80599   0.46678   0.08323   0.00000  Uiso   1.00
H342   H     0.68595   0.44925   0.39978   0.00000  Uiso   1.00
H343   H     0.73527   0.44772   0.04266   0.00000  Uiso   1.00
H344   H     0.99291   0.42373   0.48931   0.00000  Uiso   1.00
H345   H     0.88435   0.57380   0.38312   0.00000  Uiso   1.00
H346   H     0.90072   0.34504   0.24490   0.00000  Uiso   1.00
N347   N     0.98241   0.51407   0.26416   0.00000  Uiso   1.00
N348   N     0.68426   0.48593   0.23584   0.00000  Uiso   1.00
O349   O     0.79464   0.57141   0.24633   0.00000  Uiso   1.00
O350   O     0.89524   0.58089   0.25586   0.00000  Uiso   1.00
O351   O     0.75848   0.49293   0.31840   0.00000  Uiso   1.00
O352   O     0.85908   0.50241   0.32793   0.00000  Uiso   1.00
O353   O     0.77142   0.41911   0.24413   0.00000  Uiso   1.00
O354   O     0.87203   0.42859   0.25367   0.00000  Uiso   1.00
O355   O     0.80758   0.49759   0.17207   0.00000  Uiso   1.00
O356   O     0.90819   0.50707   0.18160   0.00000  Uiso   1.00
C357   C     0.99351   0.58137   0.10809   0.00000  Uiso   1.00
C358   C     0.71410   0.55319   0.10232   0.00000  Uiso   1.00
H359   H     0.74274   0.56865   0.13130   0.00000  Uiso   1.00
H360   H     0.69587   0.51038   0.10718   0.00000  Uiso   1.00
H361   H     0.74475   0.56009   0.06371   0.00000  Uiso   1.00
H362   H     0.68076   0.62185   0.09393   0.00000  Uiso   1.00
H363   H     0.97195   0.58661   0.14890   0.00000  Uiso   1.00
C364   C     0.73646   0.65184   0.29178   0.00000  Uiso   1.00
C365   C     0.70715   0.35092   0.33647   0.00000  Uiso   1.00
H366   H     0.73960   0.36353   0.36319   0.00000  Uiso   1.00
H367   H     0.69556   0.38580   0.32284   0.00000  Uiso   1.00
H368   H     0.99583   0.65999   0.35767   0.00000  Uiso   1.00
H369   H     0.70634   0.64396   0.26297   0.00000  Uiso   1.00
H370   H     0.73523   0.61430   0.30903   0.00000  Uiso   1.00
O371   O     0.99914   0.46862   0.19212   0.00000  Uiso   1.00
C372   C     0.67597   0.41753   0.18143   0.00000  Uiso   1.00
H373   H     0.99821   0.39423   0.21674   0.00000  Uiso   1.00
H374   H     0.72541   0.41869   0.16159   0.00000  Uiso   1.00
C375   C     0.96649   0.38996   0.14616   0.00000  Uiso   1.00
H376   H     0.98322   0.40652   0.10734   0.00000  Uiso   1.00
H377   H     0.96582   0.34749   0.14388   0.00000  Uiso   1.00
H378   H     0.91760   0.39489   0.16100   0.00000  Uiso   1.00
C379   C     0.18017   0.93320   0.25458   0.00000  Uiso   1.00
C380   C     0.14200   0.82979   0.48634   0.00000  Uiso   1.00
C381   C     0.15478   0.84853   0.43579   0.00000  Uiso   1.00
C382   C     0.18841   0.84645   0.01669   0.00000  Uiso   1.00
C383   C     0.24463   0.88305   0.49682   0.00000  Uiso   1.00
C384   C     0.25419   0.90346   0.44846   0.00000  Uiso   1.00
C385   C     0.20944   0.88748   0.41893   0.00000  Uiso   1.00
C386   C     0.18014   0.82910   0.06667   0.00000  Uiso   1.00
C387   C     0.27911   0.88692   0.07731   0.00000  Uiso   1.00
C388   C     0.11230   0.82821   0.40322   0.00000  Uiso   1.00
C389   C     0.18654   0.98907   0.25676   0.00000  Uiso   1.00
C390   C     0.13300   0.83185   0.34723   0.00000  Uiso   1.00
C391   C     0.13691   0.67881   0.26618   0.00000  Uiso   1.00
C392   C     0.14977   0.73363   0.25342   0.00000  Uiso   1.00
C393   C     0.20112   0.83930   0.15305   0.00000  Uiso   1.00
C394   C     0.28991   0.90121   0.02629   0.00000  Uiso   1.00
C395   C     0.22273   0.85053   0.09800   0.00000  Uiso   1.00
C396   C     0.05309   0.79724   0.42362   0.00000  Uiso   1.00
C397   C     0.03833   0.78193   0.47416   0.00000  Uiso   1.00
C398   C     0.08277   0.79619   0.00466   0.00000  Uiso   1.00
Cu399  Cu    0.10710   0.82772   0.24436   0.00000  Uiso   1.00
Cu400  Cu    0.22623   0.83895   0.25564   0.00000  Uiso   1.00
H401   H     0.33220   0.86460   0.29562   0.00000  Uiso   1.00
H402   H     0.29604   0.93288   0.43374   0.00000  Uiso   1.00
H403   H     0.33271   0.92915   0.01024   0.00000  Uiso   1.00
H404   H     0.13933   0.80011   0.08323   0.00000  Uiso   1.00
H405   H     0.01928   0.78258   0.39978   0.00000  Uiso   1.00
H406   H     0.06861   0.78106   0.04266   0.00000  Uiso   1.00
H407   H     0.32624   0.75707   0.48931   0.00000  Uiso   1.00
H408   H     0.21768   0.90714   0.38312   0.00000  Uiso   1.00
H409   H     0.23406   0.67837   0.24490   0.00000  Uiso   1.00
N410   N     0.31574   0.84741   0.26416   0.00000  Uiso   1.00
N411   N     0.01759   0.81926   0.23584   0.00000  Uiso   1.00
O412   O     0.12797   0.90474   0.24633   0.00000  Uiso   1.00
O413   O     0.22858   0.91422   0.25586   0.00000  Uiso   1.00
O414   O     0.09181   0.82627   0.31840   0.00000  Uiso   1.00
O415   O     0.19242   0.83575   0.32793   0.00000  Uiso   1.00
O416   O     0.10476   0.75245   0.24413   0.00000  Uiso   1.00
O417   O     0.20536   0.76193   0.25367   0.00000  Uiso   1.00
O418   O     0.14092   0.83092   0.17207   0.00000  Uiso   1.00
O419   O     0.24152   0.84040   0.18160   0.00000  Uiso   1.00
C420   C     0.32685   0.91470   0.10809   0.00000  Uiso   1.00
C421   C     0.04744   0.88652   0.10232   0.00000  Uiso   1.00
H422   H     0.07607   0.90198   0.13130   0.00000  Uiso   1.00
H423   H     0.02920   0.84372   0.10718   0.00000  Uiso   1.00
H424   H     0.07808   0.89342   0.06371   0.00000  Uiso   1.00
H425   H     0.01410   0.95518   0.09393   0.00000  Uiso   1.00
H426   H     0.30528   0.91994   0.14890   0.00000  Uiso   1.00
C427   C     0.06979   0.98518   0.29178   0.00000  Uiso   1.00
C428   C     0.04048   0.68425   0.33647   0.00000  Uiso   1.00
H429   H     0.07293   0.69687   0.36319   0.00000  Uiso   1.00
H430   H     0.02889   0.71914   0.32284   0.00000  Uiso   1.00
H431   H     0.32917   0.99333   0.35767   0.00000  Uiso   1.00
H432   H     0.03967   0.97729   0.26297   0.00000  Uiso   1.00
H433   H     0.06856   0.94763   0.30903   0.00000  Uiso   1.00
O434   O     0.33248   0.80196   0.19212   0.00000  Uiso   1.00
C435   C     0.00931   0.75086   0.18143   0.00000  Uiso   1.00
H436   H     0.33154   0.72756   0.21674   0.00000  Uiso   1.00
H437   H     0.05874   0.75202   0.16159   0.00000  Uiso   1.00
C438   C     0.29982   0.72330   0.14616   0.00000  Uiso   1.00
H439   H     0.31656   0.73985   0.10734   0.00000  Uiso   1.00
H440   H     0.29916   0.68082   0.14388   0.00000  Uiso   1.00
H441   H     0.25093   0.72822   0.16100   0.00000  Uiso   1.00
C442   C     0.51350   0.93320   0.25458   0.00000  Uiso   1.00
C443   C     0.47533   0.82979   0.48634   0.00000  Uiso   1.00
C444   C     0.48811   0.84853   0.43579   0.00000  Uiso   1.00
C445   C     0.52174   0.84645   0.01669   0.00000  Uiso   1.00
C446   C     0.57796   0.88305   0.49682   0.00000  Uiso   1.00
C447   C     0.58752   0.90346   0.44846   0.00000  Uiso   1.00
C448   C     0.54277   0.88748   0.41893   0.00000  Uiso   1.00
C449   C     0.51348   0.82910   0.06667   0.00000  Uiso   1.00
C450   C     0.61245   0.88692   0.07731   0.00000  Uiso   1.00
C451   C     0.44563   0.82821   0.40322   0.00000  Uiso   1.00
C452   C     0.51987   0.98907   0.25676   0.00000  Uiso   1.00
C453   C     0.46633   0.83185   0.34723   0.00000  Uiso   1.00
C454   C     0.47024   0.67881   0.26618   0.00000  Uiso   1.00
C455   C     0.48310   0.73363   0.25342   0.00000  Uiso   1.00
C456   C     0.53445   0.83930   0.15305   0.00000  Uiso   1.00
C457   C     0.62325   0.90121   0.02629   0.00000  Uiso   1.00
C458   C     0.55607   0.85053   0.09800   0.00000  Uiso   1.00
C459   C     0.38642   0.79724   0.42362   0.00000  Uiso   1.00
C460   C     0.37166   0.78193   0.47416   0.00000  Uiso   1.00
C461   C     0.41610   0.79619   0.00466   0.00000  Uiso   1.00
Cu462  Cu    0.44043   0.82772   0.24436   0.00000  Uiso   1.00
Cu463  Cu    0.55957   0.83895   0.25564   0.00000  Uiso   1.00
H464   H     0.66554   0.86460   0.29562   0.00000  Uiso   1.00
H465   H     0.62937   0.93288   0.43374   0.00000  Uiso   1.00
H466   H     0.66604   0.92915   0.01024   0.00000  Uiso   1.00
H467   H     0.47266   0.80011   0.08323   0.00000  Uiso   1.00
H468   H     0.35261   0.78258   0.39978   0.00000  Uiso   1.00
H469   H     0.40194   0.78106   0.04266   0.00000  Uiso   1.00
H470   H     0.65958   0.75707   0.48931   0.00000  Uiso   1.00
H471   H     0.55101   0.90714   0.38312   0.00000  Uiso   1.00
H472   H     0.56739   0.67837   0.24490   0.00000  Uiso   1.00
N473   N     0.64908   0.84741   0.26416   0.00000  Uiso   1.00
N474   N     0.35092   0.81926   0.23584   0.00000  Uiso   1.00
O475   O     0.46131   0.90474   0.24633   0.00000  Uiso   1.00
O476   O     0.56191   0.91422   0.25586   0.00000  Uiso   1.00
O477   O     0.42515   0.82627   0.31840   0.00000  Uiso   1.00
O478   O     0.52575   0.83575   0.32793   0.00000  Uiso   1.00
O479   O     0.43809   0.75245   0.24413   0.00000  Uiso   1.00
O480   O     0.53869   0.76193   0.25367   0.00000  Uiso   1.00
O481   O     0.47425   0.83092   0.17207   0.00000  Uiso   1.00
O482   O     0.57485   0.84040   0.18160   0.00000  Uiso   1.00
C483   C     0.66018   0.91470   0.10809   0.00000  Uiso   1.00
C484   C     0.38077   0.88652   0.10232   0.00000  Uiso   1.00
H485   H     0.40941   0.90198   0.13130   0.00000  Uiso   1.00
H486   H     0.36253   0.84372   0.10718   0.00000  Uiso   1.00
H487   H     0.41142   0.89342   0.06371   0.00000  Uiso   1.00
H488   H     0.34743   0.95518   0.09393   0.00000  Uiso   1.00
H489   H     0.63861   0.91994   0.14890   0.00000  Uiso   1.00
C490   C     0.40312   0.98518   0.29178   0.00000  Uiso   1.00
C491   C     0.37381   0.68425   0.33647   0.00000  Uiso   1.00
H492   H     0.40626   0.69687   0.36319   0.00000  Uiso   1.00
H493   H     0.36222   0.71914   0.32284   0.00000  Uiso   1.00
H494   H     0.66250   0.99333   0.35767   0.00000  Uiso   1.00
H495   H     0.37301   0.97729   0.26297   0.00000  Uiso   1.00
H496   H     0.40190   0.94763   0.30903   0.00000  Uiso   1.00
O497   O     0.66581   0.80196   0.19212   0.00000  Uiso   1.00
C498   C     0.34264   0.75086   0.18143   0.00000  Uiso   1.00
H499   H     0.66487   0.72756   0.21674   0.00000  Uiso   1.00
H500   H     0.39207   0.75202   0.16159   0.00000  Uiso   1.00
C501   C     0.63315   0.72330   0.14616   0.00000  Uiso   1.00
H502   H     0.64989   0.73985   0.10734   0.00000  Uiso   1.00
H503   H     0.63249   0.68082   0.14388   0.00000  Uiso   1.00
H504   H     0.58427   0.72822   0.16100   0.00000  Uiso   1.00
C505   C     0.84684   0.93320   0.25458   0.00000  Uiso   1.00
C506   C     0.80866   0.82979   0.48634   0.00000  Uiso   1.00
C507   C     0.82145   0.84853   0.43579   0.00000  Uiso   1.00
C508   C     0.85508   0.84645   0.01669   0.00000  Uiso   1.00
C509   C     0.91130   0.88305   0.49682   0.00000  Uiso   1.00
C510   C     0.92086   0.90346   0.44846   0.00000  Uiso   1.00
C511   C     0.87610   0.88748   0.41893   0.00000  Uiso   1.00
C512   C     0.84681   0.82910   0.06667   0.00000  Uiso   1.00
C513   C     0.94578   0.88692   0.07731   0.00000  Uiso   1.00
C514   C     0.77897   0.82821   0.40322   0.00000  Uiso   1.00
C515   C     0.85320   0.98907   0.25676   0.00000  Uiso   1.00
C516   C     0.79967   0.83185   0.34723   0.00000  Uiso   1.00
C517   C     0.80358   0.67881   0.26618   0.00000  Uiso   1.00
C518   C     0.81643   0.73363   0.25342   0.00000  Uiso   1.00
C519   C     0.86779   0.83930   0.15305   0.00000  Uiso   1.00
C520   C     0.95658   0.90121   0.02629   0.00000  Uiso   1.00
C521   C     0.88940   0.85053   0.09800   0.00000  Uiso   1.00
C522   C     0.71976   0.79724   0.42362   0.00000  Uiso   1.00
C523   C     0.70500   0.78193   0.47416   0.00000  Uiso   1.00
C524   C     0.74943   0.79619   0.00466   0.00000  Uiso   1.00
Cu525  Cu    0.77377   0.82772   0.24436   0.00000  Uiso   1.00
Cu526  Cu    0.89290   0.83895   0.25564   0.00000  Uiso   1.00
H527   H     0.99887   0.86460   0.29562   0.00000  Uiso   1.00
H528   H     0.96271   0.93288   0.43374   0.00000  Uiso   1.00
H529   H     0.99937   0.92915   0.01024   0.00000  Uiso   1.00
H530   H     0.80599   0.80011   0.08323   0.00000  Uiso   1.00
H531   H     0.68595   0.78258   0.39978   0.00000  Uiso   1.00
H532   H     0.73527   0.78106   0.04266   0.00000  Uiso   1.00
H533   H     0.99291   0.75707   0.48931   0.00000  Uiso   1.00
H534   H     0.88435   0.90714   0.38312   0.00000  Uiso   1.00
H535   H     0.90072   0.67837   0.24490   0.00000  Uiso   1.00
N536   N     0.98241   0.84741   0.26416   0.00000  Uiso   1.00
N537   N     0.68426   0.81926   0.23584   0.00000  Uiso   1.00
O538   O     0.79464   0.90474   0.24633   0.00000  Uiso   1.00
O539   O     0.89524   0.91422   0.25586   0.00000  Uiso   1.00
O540   O     0.75848   0.82627   0.31840   0.00000  Uiso   1.00
O541   O     0.85908   0.83575   0.32793   0.00000  Uiso   1.00
O542   O     0.77142   0.75245   0.24413   0.00000  Uiso   1.00
O543   O     0.87203   0.76193   0.25367   0.00000  Uiso   1.00
O544   O     0.80758   0.83092   0.17207   0.00000  Uiso   1.00
O545   O     0.90819   0.84040   0.18160   0.00000  Uiso   1.00
C546   C     0.99351   0.91470   0.10809   0.00000  Uiso   1.00
C547   C     0.71410   0.88652   0.10232   0.00000  Uiso   1.00
H548   H     0.74274   0.90198   0.13130   0.00000  Uiso   1.00
H549   H     0.69587   0.84372   0.10718   0.00000  Uiso   1.00
H550   H     0.74475   0.89342   0.06371   0.00000  Uiso   1.00
H551   H     0.68076   0.95518   0.09393   0.00000  Uiso   1.00
H552   H     0.97195   0.91994   0.14890   0.00000  Uiso   1.00
C553   C     0.73646   0.98518   0.29178   0.00000  Uiso   1.00
C554   C     0.70715   0.68425   0.33647   0.00000  Uiso   1.00
H555   H     0.73960   0.69687   0.36319   0.00000  Uiso   1.00
H556   H     0.69556   0.71914   0.32284   0.00000  Uiso   1.00
H557   H     0.99583   0.99333   0.35767   0.00000  Uiso   1.00
H558   H     0.70634   0.97729   0.26297   0.00000  Uiso   1.00
H559   H     0.73523   0.94763   0.30903   0.00000  Uiso   1.00
O560   O     0.99914   0.80196   0.19212   0.00000  Uiso   1.00
C561   C     0.67597   0.75086   0.18143   0.00000  Uiso   1.00
H562   H     0.99821   0.72756   0.21674   0.00000  Uiso   1.00
H563   H     0.72541   0.75202   0.16159   0.00000  Uiso   1.00
C564   C     0.96649   0.72330   0.14616   0.00000  Uiso   1.00
H565   H     0.98322   0.73985   0.10734   0.00000  Uiso   1.00
H566   H     0.96582   0.68082   0.14388   0.00000  Uiso   1.00
H567   H     0.91760   0.72822   0.16100   0.00000  Uiso   1.00
C568   C     0.18017   0.26653   0.75458   0.00000  Uiso   1.00
C569   C     0.14200   0.16312   0.98634   0.00000  Uiso   1.00
C570   C     0.15478   0.18186   0.93579   0.00000  Uiso   1.00
C571   C     0.18841   0.17978   0.51669   0.00000  Uiso   1.00
C572   C     0.24463   0.21638   0.99682   0.00000  Uiso   1.00
C573   C     0.25419   0.23679   0.94846   0.00000  Uiso   1.00
C574   C     0.20944   0.22081   0.91893   0.00000  Uiso   1.00
C575   C     0.18014   0.16243   0.56667   0.00000  Uiso   1.00
C576   C     0.27911   0.22025   0.57731   0.00000  Uiso   1.00
C577   C     0.11230   0.16154   0.90322   0.00000  Uiso   1.00
C578   C     0.18654   0.32240   0.75676   0.00000  Uiso   1.00
C579   C     0.13300   0.16519   0.84723   0.00000  Uiso   1.00
C580   C     0.13691   0.01214   0.76618   0.00000  Uiso   1.00
C581   C     0.14977   0.06696   0.75342   0.00000  Uiso   1.00
C582   C     0.20112   0.17263   0.65305   0.00000  Uiso   1.00
C583   C     0.28991   0.23455   0.52629   0.00000  Uiso   1.00
C584   C     0.22273   0.18386   0.59800   0.00000  Uiso   1.00
C585   C     0.05309   0.13058   0.92362   0.00000  Uiso   1.00
C586   C     0.03833   0.11527   0.97416   0.00000  Uiso   1.00
C587   C     0.08277   0.12952   0.50466   0.00000  Uiso   1.00
Cu588  Cu    0.10710   0.16105   0.74436   0.00000  Uiso   1.00
Cu589  Cu    0.22623   0.17228   0.75564   0.00000  Uiso   1.00
H590   H     0.33220   0.19793   0.79562   0.00000  Uiso   1.00
H591   H     0.29604   0.26622   0.93374   0.00000  Uiso   1.00
H592   H     0.33271   0.26248   0.51024   0.00000  Uiso   1.00
H593   H     0.13933   0.13345   0.58323   0.00000  Uiso   1.00
H594   H     0.01928   0.11591   0.89978   0.00000  Uiso   1.00
H595   H     0.06861   0.11439   0.54266   0.00000  Uiso   1.00
H596   H     0.32624   0.09040   0.98931   0.00000  Uiso   1.00
H597   H     0.21768   0.24047   0.88312   0.00000  Uiso   1.00
H598   H     0.23406   0.01170   0.74490   0.00000  Uiso   1.00
N599   N     0.31574   0.18074   0.76416   0.00000  Uiso   1.00
N600   N     0.01759   0.15259   0.73584   0.00000  Uiso   1.00
O601   O     0.12797   0.23807   0.74633   0.00000  Uiso   1.00
O602   O     0.22858   0.24755   0.75586   0.00000  Uiso   1.00
O603   O     0.09181   0.15960   0.81840   0.00000  Uiso   1.00
O604   O     0.19242   0.16908   0.82793   0.00000  Uiso   1.00
O605   O     0.10476   0.08578   0.74413   0.00000  Uiso   1.00
O606   O     0.20536   0.09526   0.75367   0.00000  Uiso   1.00
O607   O     0.14092   0.16425   0.67207   0.00000  Uiso   1.00
O608   O     0.24152   0.17373   0.68160   0.00000  Uiso   1.00
C609   C     0.32685   0.24804   0.60809   0.00000  Uiso   1.00
C610   C     0.04744   0.21985   0.60232   0.00000  Uiso   1.00
H611   H     0.07607   0.23532   0.63130   0.00000  Uiso   1.00
H612   H     0.02920   0.17705   0.60718   0.00000  Uiso   1.00
H613   H     0.07808   0.22676   0.56371   0.00000  Uiso   1.00
H614   H     0.01410   0.28851   0.59393   0.00000  Uiso   1.00
H615   H     0.30528   0.25327   0.64890   0.00000  Uiso   1.00
C616   C     0.06979   0.31851   0.79178   0.00000  Uiso   1.00
C617   C     0.04048   0.01758   0.83647   0.00000  Uiso   1.00
H618   H     0.07293   0.03020   0.86319   0.00000  Uiso   1.00
H619   H     0.02889   0.05247   0.82284   0.00000  Uiso   1.00
H620   H     0.32917   0.32666   0.85767   0.00000  Uiso   1.00
H621   H     0.03967   0.31063   0.76297   0.00000  Uiso   1.00
H622   H     0.06856   0.28097   0.80903   0.00000  Uiso   1.00
O623   O     0.33248   0.13529   0.69212   0.00000  Uiso   1.00
C624   C     0.00931   0.08419   0.68143   0.00000  Uiso   1.00
H625   H     0.33154   0.06090   0.71674   0.00000  Uiso   1.00
H626   H     0.05874   0.08535   0.66159   0.00000  Uiso   1.00
C627   C     0.29982   0.05663   0.64616   0.00000  Uiso   1.00
H628   H     0.31656   0.07318   0.60734   0.00000  Uiso   1.00
H629   H     0.29916   0.01415   0.64388   0.00000  Uiso   1.00
H630   H     0.25093   0.06155   0.66100   0.00000  Uiso   1.00
C631   C     0.51350   0.26653   0.75458   0.00000  Uiso   1.00
C632   C     0.47533   0.16312   0.98634   0.00000  Uiso   1.00
C633   C     0.48811   0.18186   0.93579   0.00000  Uiso   1.00
C634   C     0.52174   0.17978   0.51669   0.00000  Uiso   1.00
C635   C     0.57796   0.21638   0.99682   0.00000  Uiso   1.00
C636   C     0.58752   0.23679   0.94846   0.00000  Uiso   1.00
C637   C     0.54277   0.22081   0.91893   0.00000  Uiso   1.00
C638   C     0.51348   0.16243   0.56667   0.00000  Uiso   1.00
C639   C     0.61245   0.22025   0.57731   0.00000  Uiso   1.00
C640   C     0.44563   0.16154   0.90322   0.00000  Uiso   1.00
C641   C     0.51987   0.32240   0.75676   0.00000  Uiso   1.00
C642   C     0.46633   0.16519   0.84723   0.00000  Uiso   1.00
C643   C     0.47024   0.01214   0.76618   0.00000  Uiso   1.00
C644   C     0.48310   0.06696   0.75342   0.00000  Uiso   1.00
C645   C     0.53445   0.17263   0.65305   0.00000  Uiso   1.00
C646   C     0.62325   0.23455   0.52629   0.00000  Uiso   1.00
C647   C     0.55607   0.18386   0.59800   0.00000  Uiso   1.00
C648   C     0.38642   0.13058   0.92362   0.00000  Uiso   1.00
C649   C     0.37166   0.11527   0.97416   0.00000  Uiso   1.00
C650   C     0.41610   0.12952   0.50466   0.00000  Uiso   1.00
Cu651  Cu    0.44043   0.16105   0.74436   0.00000  Uiso   1.00
Cu652  Cu    0.55957   0.17228   0.75564   0.00000  Uiso   1.00
H653   H     0.66554   0.19793   0.79562   0.00000  Uiso   1.00
H654   H     0.62937   0.26622   0.93374   0.00000  Uiso   1.00
H655   H     0.66604   0.26248   0.51024   0.00000  Uiso   1.00
H656   H     0.47266   0.13345   0.58323   0.00000  Uiso   1.00
H657   H     0.35261   0.11591   0.89978   0.00000  Uiso   1.00
H658   H     0.40194   0.11439   0.54266   0.00000  Uiso   1.00
H659   H     0.65958   0.09040   0.98931   0.00000  Uiso   1.00
H660   H     0.55101   0.24047   0.88312   0.00000  Uiso   1.00
H661   H     0.56739   0.01170   0.74490   0.00000  Uiso   1.00
N662   N     0.64908   0.18074   0.76416   0.00000  Uiso   1.00
N663   N     0.35092   0.15259   0.73584   0.00000  Uiso   1.00
O664   O     0.46131   0.23807   0.74633   0.00000  Uiso   1.00
O665   O     0.56191   0.24755   0.75586   0.00000  Uiso   1.00
O666   O     0.42515   0.15960   0.81840   0.00000  Uiso   1.00
O667   O     0.52575   0.16908   0.82793   0.00000  Uiso   1.00
O668   O     0.43809   0.08578   0.74413   0.00000  Uiso   1.00
O669   O     0.53869   0.09526   0.75367   0.00000  Uiso   1.00
O670   O     0.47425   0.16425   0.67207   0.00000  Uiso   1.00
O671   O     0.57485   0.17373   0.68160   0.00000  Uiso   1.00
C672   C     0.66018   0.24804   0.60809   0.00000  Uiso   1.00
C673   C     0.38077   0.21985   0.60232   0.00000  Uiso   1.00
H674   H     0.40941   0.23532   0.63130   0.00000  Uiso   1.00
H675   H     0.36253   0.17705   0.60718   0.00000  Uiso   1.00
H676   H     0.41142   0.22676   0.56371   0.00000  Uiso   1.00
H677   H     0.34743   0.28851   0.59393   0.00000  Uiso   1.00
H678   H     0.63861   0.25327   0.64890   0.00000  Uiso   1.00
C679   C     0.40312   0.31851   0.79178   0.00000  Uiso   1.00
C680   C     0.37381   0.01758   0.83647   0.00000  Uiso   1.00
H681   H     0.40626   0.03020   0.86319   0.00000  Uiso   1.00
H682   H     0.36222   0.05247   0.82284   0.00000  Uiso   1.00
H683   H     0.66250   0.32666   0.85767   0.00000  Uiso   1.00
H684   H     0.37301   0.31063   0.76297   0.00000  Uiso   1.00
H685   H     0.40190   0.28097   0.80903   0.00000  Uiso   1.00
O686   O     0.66581   0.13529   0.69212   0.00000  Uiso   1.00
C687   C     0.34264   0.08419   0.68143   0.00000  Uiso   1.00
H688   H     0.66487   0.06090   0.71674   0.00000  Uiso   1.00
H689   H     0.39207   0.08535   0.66159   0.00000  Uiso   1.00
C690   C     0.63315   0.05663   0.64616   0.00000  Uiso   1.00
H691   H     0.64989   0.07318   0.60734   0.00000  Uiso   1.00
H692   H     0.63249   0.01415   0.64388   0.00000  Uiso   1.00
H693   H     0.58427   0.06155   0.66100   0.00000  Uiso   1.00
C694   C     0.84684   0.26653   0.75458   0.00000  Uiso   1.00
C695   C     0.80866   0.16312   0.98634   0.00000  Uiso   1.00
C696   C     0.82145   0.18186   0.93579   0.00000  Uiso   1.00
C697   C     0.85508   0.17978   0.51669   0.00000  Uiso   1.00
C698   C     0.91130   0.21638   0.99682   0.00000  Uiso   1.00
C699   C     0.92086   0.23679   0.94846   0.00000  Uiso   1.00
C700   C     0.87610   0.22081   0.91893   0.00000  Uiso   1.00
C701   C     0.84681   0.16243   0.56667   0.00000  Uiso   1.00
C702   C     0.94578   0.22025   0.57731   0.00000  Uiso   1.00
C703   C     0.77897   0.16154   0.90322   0.00000  Uiso   1.00
C704   C     0.85320   0.32240   0.75676   0.00000  Uiso   1.00
C705   C     0.79967   0.16519   0.84723   0.00000  Uiso   1.00
C706   C     0.80358   0.01214   0.76618   0.00000  Uiso   1.00
C707   C     0.81643   0.06696   0.75342   0.00000  Uiso   1.00
C708   C     0.86779   0.17263   0.65305   0.00000  Uiso   1.00
C709   C     0.95658   0.23455   0.52629   0.00000  Uiso   1.00
C710   C     0.88940   0.18386   0.59800   0.00000  Uiso   1.00
C711   C     0.71976   0.13058   0.92362   0.00000  Uiso   1.00
C712   C     0.70500   0.11527   0.97416   0.00000  Uiso   1.00
C713   C     0.74943   0.12952   0.50466   0.00000  Uiso   1.00
Cu714  Cu    0.77377   0.16105   0.74436   0.00000  Uiso   1.00
Cu715  Cu    0.89290   0.17228   0.75564   0.00000  Uiso   1.00
H716   H     0.99887   0.19793   0.79562   0.00000  Uiso   1.00
H717   H     0.96271   0.26622   0.93374   0.00000  Uiso   1.00
H718   H     0.99937   0.26248   0.51024   0.00000  Uiso   1.00
H719   H     0.80599   0.13345   0.58323   0.00000  Uiso   1.00
H720   H     0.68595   0.11591   0.89978   0.00000  Uiso   1.00
H721   H     0.73527   0.11439   0.54266   0.00000  Uiso   1.00
H722   H     0.99291   0.09040   0.98931   0.00000  Uiso   1.00
H723   H     0.88435   0.24047   0.88312   0.00000  Uiso   1.00
H724   H     0.90072   0.01170   0.74490   0.00000  Uiso   1.00
N725   N     0.98241   0.18074   0.76416   0.00000  Uiso   1.00
N726   N     0.68426   0.15259   0.73584   0.00000  Uiso   1.00
O727   O     0.79464   0.23807   0.74633   0.00000  Uiso   1.00
O728   O     0.89524   0.24755   0.75586   0.00000  Uiso   1.00
O729   O     0.75848   0.15960   0.81840   0.00000  Uiso   1.00
O730   O     0.85908   0.16908   0.82793   0.00000  Uiso   1.00
O731   O     0.77142   0.08578   0.74413   0.00000  Uiso   1.00
O732   O     0.87203   0.09526   0.75367   0.00000  Uiso   1.00
O733   O     0.80758   0.16425   0.67207   0.00000  Uiso   1.00
O734   O     0.90819   0.17373   0.68160   0.00000  Uiso   1.00
C735   C     0.99351   0.24804   0.60809   0.00000  Uiso   1.00
C736   C     0.71410   0.21985   0.60232   0.00000  Uiso   1.00
H737   H     0.74274   0.23532   0.63130   0.00000  Uiso   1.00
H738   H     0.69587   0.17705   0.60718   0.00000  Uiso   1.00
H739   H     0.74475   0.22676   0.56371   0.00000  Uiso   1.00
H740   H     0.68076   0.28851   0.59393   0.00000  Uiso   1.00
H741   H     0.97195   0.25327   0.64890   0.00000  Uiso   1.00
C742   C     0.73646   0.31851   0.79178   0.00000  Uiso   1.00
C743   C     0.70715   0.01758   0.83647   0.00000  Uiso   1.00
H744   H     0.73960   0.03020   0.86319   0.00000  Uiso   1.00
H745   H     0.69556   0.05247   0.82284   0.00000  Uiso   1.00
H746   H     0.99583   0.32666   0.85767   0.00000  Uiso   1.00
H747   H     0.70634   0.31063   0.76297   0.00000  Uiso   1.00
H748   H     0.73523   0.28097   0.80903   0.00000  Uiso   1.00
O749   O     0.99914   0.13529   0.69212   0.00000  Uiso   1.00
C750   C     0.67597   0.08419   0.68143   0.00000  Uiso   1.00
H751   H     0.99821   0.06090   0.71674   0.00000  Uiso   1.00
H752   H     0.72541   0.08535   0.66159   0.00000  Uiso   1.00
C753   C     0.96649   0.05663   0.64616   0.00000  Uiso   1.00
H754   H     0.98322   0.07318   0.60734   0.00000  Uiso   1.00
H755   H     0.96582   0.01415   0.64388   0.00000  Uiso   1.00
H756   H     0.91760   0.06155   0.66100   0.00000  Uiso   1.00
C757   C     0.18017   0.59987   0.75458   0.00000  Uiso   1.00
C758   C     0.14200   0.49645   0.98634   0.00000  Uiso   1.00
C759   C     0.15478   0.51519   0.93579   0.00000  Uiso   1.00
C760   C     0.18841   0.51311   0.51669   0.00000  Uiso   1.00
C761   C     0.24463   0.54972   0.99682   0.00000  Uiso   1.00
C762   C     0.25419   0.57012   0.94846   0.00000  Uiso   1.00
C763   C     0.20944   0.55414   0.91893   0.00000  Uiso   1.00
C764   C     0.18014   0.49576   0.56667   0.00000  Uiso   1.00
C765   C     0.27911   0.55358   0.57731   0.00000  Uiso   1.00
C766   C     0.11230   0.49487   0.90322   0.00000  Uiso   1.00
C767   C     0.18654   0.65574   0.75676   0.00000  Uiso   1.00
C768   C     0.13300   0.49852   0.84723   0.00000  Uiso   1.00
C769   C     0.13691   0.34548   0.76618   0.00000  Uiso   1.00
C770   C     0.14977   0.40029   0.75342   0.00000  Uiso   1.00
C771   C     0.20112   0.50597   0.65305   0.00000  Uiso   1.00
C772   C     0.28991   0.56788   0.52629   0.00000  Uiso   1.00
C773   C     0.22273   0.51720   0.59800   0.00000  Uiso   1.00
C774   C     0.05309   0.46391   0.92362   0.00000  Uiso   1.00
C775   C     0.03833   0.44860   0.97416   0.00000  Uiso   1.00
C776   C     0.08277   0.46285   0.50466   0.00000  Uiso   1.00
Cu777  Cu    0.10710   0.49439   0.74436   0.00000  Uiso   1.00
Cu778  Cu    0.22623   0.50561   0.75564   0.00000  Uiso   1.00
H779   H     0.33220   0.53127   0.79562   0.00000  Uiso   1.00
H780   H     0.29604   0.59955   0.93374   0.00000  Uiso   1.00
H781   H     0.33271   0.59581   0.51024   0.00000  Uiso   1.00
H782   H     0.13933   0.46678   0.58323   0.00000  Uiso   1.00
H783   H     0.01928   0.44925   0.89978   0.00000  Uiso   1.00
H784   H     0.06861   0.44772   0.54266   0.00000  Uiso   1.00
H785   H     0.32624   0.42373   0.98931   0.00000  Uiso   1.00
H786   H     0.21768   0.57380   0.88312   0.00000  Uiso   1.00
H787   H     0.23406   0.34504   0.74490   0.00000  Uiso   1.00
N788   N     0.31574   0.51407   0.76416   0.00000  Uiso   1.00
N789   N     0.01759   0.48593   0.73584   0.00000  Uiso   1.00
O790   O     0.12797   0.57141   0.74633   0.00000  Uiso   1.00
O791   O     0.22858   0.58089   0.75586   0.00000  Uiso   1.00
O792   O     0.09181   0.49293   0.81840   0.00000  Uiso   1.00
O793   O     0.19242   0.50241   0.82793   0.00000  Uiso   1.00
O794   O     0.10476   0.41911   0.74413   0.00000  Uiso   1.00
O795   O     0.20536   0.42859   0.75367   0.00000  Uiso   1.00
O796   O     0.14092   0.49759   0.67207   0.00000  Uiso   1.00
O797   O     0.24152   0.50707   0.68160   0.00000  Uiso   1.00
C798   C     0.32685   0.58137   0.60809   0.00000  Uiso   1.00
C799   C     0.04744   0.55319   0.60232   0.00000  Uiso   1.00
H800   H     0.07607   0.56865   0.63130   0.00000  Uiso   1.00
H801   H     0.02920   0.51038   0.60718   0.00000  Uiso   1.00
H802   H     0.07808   0.56009   0.56371   0.00000  Uiso   1.00
H803   H     0.01410   0.62185   0.59393   0.00000  Uiso   1.00
H804   H     0.30528   0.58661   0.64890   0.00000  Uiso   1.00
C805   C     0.06979   0.65184   0.79178   0.00000  Uiso   1.00
C806   C     0.04048   0.35092   0.83647   0.00000  Uiso   1.00
H807   H     0.07293   0.36353   0.86319   0.00000  Uiso   1.00
H808   H     0.02889   0.38580   0.82284   0.00000  Uiso   1.00
H809   H     0.32917   0.65999   0.85767   0.00000  Uiso   1.00
H810   H     0.03967   0.64396   0.76297   0.00000  Uiso   1.00
H811   H     0.06856   0.61430   0.80903   0.00000  Uiso   1.00
O812   O     0.33248   0.46862   0.69212   0.00000  Uiso   1.00
C813   C     0.00931   0.41753   0.68143   0.00000  Uiso   1.00
H814   H     0.33154   0.39423   0.71674   0.00000  Uiso   1.00
H815   H     0.05874   0.41869   0.66159   0.00000  Uiso   1.00
C816   C     0.29982   0.38996   0.64616   0.00000  Uiso   1.00
H817   H     0.31656   0.40652   0.60734   0.00000  Uiso   1.00
H818   H     0.29916   0.34749   0.64388   0.00000  Uiso   1.00
H819   H     0.25093   0.39489   0.66100   0.00000  Uiso   1.00
C820   C     0.51350   0.59987   0.75458   0.00000  Uiso   1.00
C821   C     0.47533   0.49645   0.98634   0.00000  Uiso   1.00
C822   C     0.48811   0.51519   0.93579   0.00000  Uiso   1.00
C823   C     0.52174   0.51311   0.51669   0.00000  Uiso   1.00
C824   C     0.57796   0.54972   0.99682   0.00000  Uiso   1.00
C825   C     0.58752   0.57012   0.94846   0.00000  Uiso   1.00
C826   C     0.54277   0.55414   0.91893   0.00000  Uiso   1.00
C827   C     0.51348   0.49576   0.56667   0.00000  Uiso   1.00
C828   C     0.61245   0.55358   0.57731   0.00000  Uiso   1.00
C829   C     0.44563   0.49487   0.90322   0.00000  Uiso   1.00
C830   C     0.51987   0.65574   0.75676   0.00000  Uiso   1.00
C831   C     0.46633   0.49852   0.84723   0.00000  Uiso   1.00
C832   C     0.47024   0.34548   0.76618   0.00000  Uiso   1.00
C833   C     0.48310   0.40029   0.75342   0.00000  Uiso   1.00
C834   C     0.53445   0.50597   0.65305   0.00000  Uiso   1.00
C835   C     0.62325   0.56788   0.52629   0.00000  Uiso   1.00
C836   C     0.55607   0.51720   0.59800   0.00000  Uiso   1.00
C837   C     0.38642   0.46391   0.92362   0.00000  Uiso   1.00
C838   C     0.37166   0.44860   0.97416   0.00000  Uiso   1.00
C839   C     0.41610   0.46285   0.50466   0.00000  Uiso   1.00
Cu840  Cu    0.44043   0.49439   0.74436   0.00000  Uiso   1.00
Cu841  Cu    0.55957   0.50561   0.75564   0.00000  Uiso   1.00
H842   H     0.66554   0.53127   0.79562   0.00000  Uiso   1.00
H843   H     0.62937   0.59955   0.93374   0.00000  Uiso   1.00
H844   H     0.66604   0.59581   0.51024   0.00000  Uiso   1.00
H845   H     0.47266   0.46678   0.58323   0.00000  Uiso   1.00
H846   H     0.35261   0.44925   0.89978   0.00000  Uiso   1.00
H847   H     0.40194   0.44772   0.54266   0.00000  Uiso   1.00
H848   H     0.65958   0.42373   0.98931   0.00000  Uiso   1.00
H849   H     0.55101   0.57380   0.88312   0.00000  Uiso   1.00
H850   H     0.56739   0.34504   0.74490   0.00000  Uiso   1.00
N851   N     0.64908   0.51407   0.76416   0.00000  Uiso   1.00
N852   N     0.35092   0.48593   0.73584   0.00000  Uiso   1.00
O853   O     0.46131   0.57141   0.74633   0.00000  Uiso   1.00
O854   O     0.56191   0.58089   0.75586   0.00000  Uiso   1.00
O855   O     0.42515   0.49293   0.81840   0.00000  Uiso   1.00
O856   O     0.52575   0.50241   0.82793   0.00000  Uiso   1.00
O857   O     0.43809   0.41911   0.74413   0.00000  Uiso   1.00
O858   O     0.53869   0.42859   0.75367   0.00000  Uiso   1.00
O859   O     0.47425   0.49759   0.67207   0.00000  Uiso   1.00
O860   O     0.57485   0.50707   0.68160   0.00000  Uiso   1.00
C861   C     0.66018   0.58137   0.60809   0.00000  Uiso   1.00
C862   C     0.38077   0.55319   0.60232   0.00000  Uiso   1.00
H863   H     0.40941   0.56865   0.63130   0.00000  Uiso   1.00
H864   H     0.36253   0.51038   0.60718   0.00000  Uiso   1.00
H865   H     0.41142   0.56009   0.56371   0.00000  Uiso   1.00
H866   H     0.34743   0.62185   0.59393   0.00000  Uiso   1.00
H867   H     0.63861   0.58661   0.64890   0.00000  Uiso   1.00
C868   C     0.40312   0.65184   0.79178   0.00000  Uiso   1.00
C869   C     0.37381   0.35092   0.83647   0.00000  Uiso   1.00
H870   H     0.40626   0.36353   0.86319   0.00000  Uiso   1.00
H871   H     0.36222   0.38580   0.82284   0.00000  Uiso   1.00
H872   H     0.66250   0.65999   0.85767   0.00000  Uiso   1.00
H873   H     0.37301   0.64396   0.76297   0.00000  Uiso   1.00
H874   H     0.40190   0.61430   0.80903   0.00000  Uiso   1.00
O875   O     0.66581   0.46862   0.69212   0.00000  Uiso   1.00
C876   C     0.34264   0.41753   0.68143   0.00000  Uiso   1.00
H877   H     0.66487   0.39423   0.71674   0.00000  Uiso   1.00
H878   H     0.39207   0.41869   0.66159   0.00000  Uiso   1.00
C879   C     0.63315   0.38996   0.64616   0.00000  Uiso   1.00
H880   H     0.64989   0.40652   0.60734   0.00000  Uiso   1.00
H881   H     0.63249   0.34749   0.64388   0.00000  Uiso   1.00
H882   H     0.58427   0.39489   0.66100   0.00000  Uiso   1.00
C883   C     0.84684   0.59987   0.75458   0.00000  Uiso   1.00
C884   C     0.80866   0.49645   0.98634   0.00000  Uiso   1.00
C885   C     0.82145   0.51519   0.93579   0.00000  Uiso   1.00
C886   C     0.85508   0.51311   0.51669   0.00000  Uiso   1.00
C887   C     0.91130   0.54972   0.99682   0.00000  Uiso   1.00
C888   C     0.92086   0.57012   0.94846   0.00000  Uiso   1.00
C889   C     0.87610   0.55414   0.91893   0.00000  Uiso   1.00
C890   C     0.84681   0.49576   0.56667   0.00000  Uiso   1.00
C891   C     0.94578   0.55358   0.57731   0.00000  Uiso   1.00
C892   C     0.77897   0.49487   0.90322   0.00000  Uiso   1.00
C893   C     0.85320   0.65574   0.75676   0.00000  Uiso   1.00
C894   C     0.79967   0.49852   0.84723   0.00000  Uiso   1.00
C895   C     0.80358   0.34548   0.76618   0.00000  Uiso   1.00
C896   C     0.81643   0.40029   0.75342   0.00000  Uiso   1.00
C897   C     0.86779   0.50597   0.65305   0.00000  Uiso   1.00
C898   C     0.95658   0.56788   0.52629   0.00000  Uiso   1.00
C899   C     0.88940   0.51720   0.59800   0.00000  Uiso   1.00
C900   C     0.71976   0.46391   0.92362   0.00000  Uiso   1.00
C901   C     0.70500   0.44860   0.97416   0.00000  Uiso   1.00
C902   C     0.74943   0.46285   0.50466   0.00000  Uiso   1.00
Cu903  Cu    0.77377   0.49439   0.74436   0.00000  Uiso   1.00
Cu904  Cu    0.89290   0.50561   0.75564   0.00000  Uiso   1.00
H905   H     0.99887   0.53127   0.79562   0.00000  Uiso   1.00
H906   H     0.96271   0.59955   0.93374   0.00000  Uiso   1.00
H907   H     0.99937   0.59581   0.51024   0.00000  Uiso   1.00
H908   H     0.80599   0.46678   0.58323   0.00000  Uiso   1.00
H909   H     0.68595   0.44925   0.89978   0.00000  Uiso   1.00
H910   H     0.73527   0.44772   0.54266   0.00000  Uiso   1.00
H911   H     0.99291   0.42373   0.98931   0.00000  Uiso   1.00
H912   H     0.88435   0.57380   0.88312   0.00000  Uiso   1.00
H913   H     0.90072   0.34504   0.74490   0.00000  Uiso   1.00
N914   N     0.98241   0.51407   0.76416   0.00000  Uiso   1.00
N915   N     0.68426   0.48593   0.73584   0.00000  Uiso   1.00
O916   O     0.79464   0.57141   0.74633   0.00000  Uiso   1.00
O917   O     0.89524   0.58089   0.75586   0.00000  Uiso   1.00
O918   O     0.75848   0.49293   0.81840   0.00000  Uiso   1.00
O919   O     0.85908   0.50241   0.82793   0.00000  Uiso   1.00
O920   O     0.77142   0.41911   0.74413   0.00000  Uiso   1.00
O921   O     0.87203   0.42859   0.75367   0.00000  Uiso   1.00
O922   O     0.80758   0.49759   0.67207   0.00000  Uiso   1.00
O923   O     0.90819   0.50707   0.68160   0.00000  Uiso   1.00
C924   C     0.99351   0.58137   0.60809   0.00000  Uiso   1.00
C925   C     0.71410   0.55319   0.60232   0.00000  Uiso   1.00
H926   H     0.74274   0.56865   0.63130   0.00000  Uiso   1.00
H927   H     0.69587   0.51038   0.60718   0.00000  Uiso   1.00
H928   H     0.74475   0.56009   0.56371   0.00000  Uiso   1.00
H929   H     0.68076   0.62185   0.59393   0.00000  Uiso   1.00
H930   H     0.97195   0.58661   0.64890   0.00000  Uiso   1.00
C931   C     0.73646   0.65184   0.79178   0.00000  Uiso   1.00
C932   C     0.70715   0.35092   0.83647   0.00000  Uiso   1.00
H933   H     0.73960   0.36353   0.86319   0.00000  Uiso   1.00
H934   H     0.69556   0.38580   0.82284   0.00000  Uiso   1.00
H935   H     0.99583   0.65999   0.85767   0.00000  Uiso   1.00
H936   H     0.70634   0.64396   0.76297   0.00000  Uiso   1.00
H937   H     0.73523   0.61430   0.80903   0.00000  Uiso   1.00
O938   O     0.99914   0.46862   0.69212   0.00000  Uiso   1.00
C939   C     0.67597   0.41753   0.68143   0.00000  Uiso   1.00
H940   H     0.99821   0.39423   0.71674   0.00000  Uiso   1.00
H941   H     0.72541   0.41869   0.66159   0.00000  Uiso   1.00
C942   C     0.96649   0.38996   0.64616   0.00000  Uiso   1.00
H943   H     0.98322   0.40652   0.60734   0.00000  Uiso   1.00
H944   H     0.96582   0.34749   0.64388   0.00000  Uiso   1.00
H945   H     0.91760   0.39489   0.66100   0.00000  Uiso   1.00
C946   C     0.18017   0.93320   0.75458   0.00000  Uiso   1.00
C947   C     0.14200   0.82979   0.98634   0.00000  Uiso   1.00
C948   C     0.15478   0.84853   0.93579   0.00000  Uiso   1.00
C949   C     0.18841   0.84645   0.51669   0.00000  Uiso   1.00
C950   C     0.24463   0.88305   0.99682   0.00000  Uiso   1.00
C951   C     0.25419   0.90346   0.94846   0.00000  Uiso   1.00
C952   C     0.20944   0.88748   0.91893   0.00000  Uiso   1.00
C953   C     0.18014   0.82910   0.56667   0.00000  Uiso   1.00
C954   C     0.27911   0.88692   0.57731   0.00000  Uiso   1.00
C955   C     0.11230   0.82821   0.90322   0.00000  Uiso   1.00
C956   C     0.18654   0.98907   0.75676   0.00000  Uiso   1.00
C957   C     0.13300   0.83185   0.84723   0.00000  Uiso   1.00
C958   C     0.13691   0.67881   0.76618   0.00000  Uiso   1.00
C959   C     0.14977   0.73363   0.75342   0.00000  Uiso   1.00
C960   C     0.20112   0.83930   0.65305   0.00000  Uiso   1.00
C961   C     0.28991   0.90121   0.52629   0.00000  Uiso   1.00
C962   C     0.22273   0.85053   0.59800   0.00000  Uiso   1.00
C963   C     0.05309   0.79724   0.92362   0.00000  Uiso   1.00
C964   C     0.03833   0.78193   0.97416   0.00000  Uiso   1.00
C965   C     0.08277   0.79619   0.50466   0.00000  Uiso   1.00
Cu966  Cu    0.10710   0.82772   0.74436   0.00000  Uiso   1.00
Cu967  Cu    0.22623   0.83895   0.75564   0.00000  Uiso   1.00
H968   H     0.33220   0.86460   0.79562   0.00000  Uiso   1.00
H969   H     0.29604   0.93288   0.93374   0.00000  Uiso   1.00
H970   H     0.33271   0.92915   0.51024   0.00000  Uiso   1.00
H971   H     0.13933   0.80011   0.58323   0.00000  Uiso   1.00
H972   H     0.01928   0.78258   0.89978   0.00000  Uiso   1.00
H973   H     0.06861   0.78106   0.54266   0.00000  Uiso   1.00
H974   H     0.32624   0.75707   0.98931   0.00000  Uiso   1.00
H975   H     0.21768   0.90714   0.88312   0.00000  Uiso   1.00
H976   H     0.23406   0.67837   0.74490   0.00000  Uiso   1.00
N977   N     0.31574   0.84741   0.76416   0.00000  Uiso   1.00
N978   N     0.01759   0.81926   0.73584   0.00000  Uiso   1.00
O979   O     0.12797   0.90474   0.74633   0.00000  Uiso   1.00
O980   O     0.22858   0.91422   0.75586   0.00000  Uiso   1.00
O981   O     0.09181   0.82627   0.81840   0.00000  Uiso   1.00
O982   O     0.19242   0.83575   0.82793   0.00000  Uiso   1.00
O983   O     0.10476   0.75245   0.74413   0.00000  Uiso   1.00
O984   O     0.20536   0.76193   0.75367   0.00000  Uiso   1.00
O985   O     0.14092   0.83092   0.67207   0.00000  Uiso   1.00
O986   O     0.24152   0.84040   0.68160   0.00000  Uiso   1.00
C987   C     0.32685   0.91470   0.60809   0.00000  Uiso   1.00
C988   C     0.04744   0.88652   0.60232   0.00000  Uiso   1.00
H989   H     0.07607   0.90198   0.63130   0.00000  Uiso   1.00
H990   H     0.02920   0.84372   0.60718   0.00000  Uiso   1.00
H991   H     0.07808   0.89342   0.56371   0.00000  Uiso   1.00
H992   H     0.01410   0.95518   0.59393   0.00000  Uiso   1.00
H993   H     0.30528   0.91994   0.64890   0.00000  Uiso   1.00
C994   C     0.06979   0.98518   0.79178   0.00000  Uiso   1.00
C995   C     0.04048   0.68425   0.83647   0.00000  Uiso   1.00
H996   H     0.07293   0.69687   0.86319   0.00000  Uiso   1.00
H997   H     0.02889   0.71914   0.82284   0.00000  Uiso   1.00
H998   H     0.32917   0.99333   0.85767   0.00000  Uiso   1.00
H999   H     0.03967   0.97729   0.76297   0.00000  Uiso   1.00
H1000  H     0.06856   0.94763   0.80903   0.00000  Uiso   1.00
O1001  O     0.33248   0.80196   0.69212   0.00000  Uiso   1.00
C1002  C     0.00931   0.75086   0.68143   0.00000  Uiso   1.00
H1003  H     0.33154   0.72756   0.71674   0.00000  Uiso   1.00
H1004  H     0.05874   0.75202   0.66159   0.00000  Uiso   1.00
C1005  C     0.29982   0.72330   0.64616   0.00000  Uiso   1.00
H1006  H     0.31656   0.73985   0.60734   0.00000  Uiso   1.00
H1007  H     0.29916   0.68082   0.64388   0.00000  Uiso   1.00
H1008  H     0.25093   0.72822   0.66100   0.00000  Uiso   1.00
C1009  C     0.51350   0.93320   0.75458   0.00000  Uiso   1.00
C1010  C     0.47533   0.82979   0.98634   0.00000  Uiso   1.00
C1011  C     0.48811   0.84853   0.93579   0.00000  Uiso   1.00
C1012  C     0.52174   0.84645   0.51669   0.00000  Uiso   1.00
C1013  C     0.57796   0.88305   0.99682   0.00000  Uiso   1.00
C1014  C     0.58752   0.90346   0.94846   0.00000  Uiso   1.00
C1015  C     0.54277   0.88748   0.91893   0.00000  Uiso   1.00
C1016  C     0.51348   0.82910   0.56667   0.00000  Uiso   1.00
C1017  C     0.61245   0.88692   0.57731   0.00000  Uiso   1.00
C1018  C     0.44563   0.82821   0.90322   0.00000  Uiso   1.00
C1019  C     0.51987   0.98907   0.75676   0.00000  Uiso   1.00
C1020  C     0.46633   0.83185   0.84723   0.00000  Uiso   1.00
C1021  C     0.47024   0.67881   0.76618   0.00000  Uiso   1.00
C1022  C     0.48310   0.73363   0.75342   0.00000  Uiso   1.00
C1023  C     0.53445   0.83930   0.65305   0.00000  Uiso   1.00
C1024  C     0.62325   0.90121   0.52629   0.00000  Uiso   1.00
C1025  C     0.55607   0.85053   0.59800   0.00000  Uiso   1.00
C1026  C     0.38642   0.79724   0.92362   0.00000  Uiso   1.00
C1027  C     0.37166   0.78193   0.97416   0.00000  Uiso   1.00
C1028  C     0.41610   0.79619   0.50466   0.00000  Uiso   1.00
Cu1029 Cu    0.44043   0.82772   0.74436   0.00000  Uiso   1.00
Cu1030 Cu    0.55957   0.83895   0.75564   0.00000  Uiso   1.00
H1031  H     0.66554   0.86460   0.79562   0.00000  Uiso   1.00
H1032  H     0.62937   0.93288   0.93374   0.00000  Uiso   1.00
H1033  H     0.66604   0.92915   0.51024   0.00000  Uiso   1.00
H1034  H     0.47266   0.80011   0.58323   0.00000  Uiso   1.00
H1035  H     0.35261   0.78258   0.89978   0.00000  Uiso   1.00
H1036  H     0.40194   0.78106   0.54266   0.00000  Uiso   1.00
H1037  H     0.65958   0.75707   0.98931   0.00000  Uiso   1.00
H1038  H     0.55101   0.90714   0.88312   0.00000  Uiso   1.00
H1039  H     0.56739   0.67837   0.74490   0.00000  Uiso   1.00
N1040  N     0.64908   0.84741   0.76416   0.00000  Uiso   1.00
N1041  N     0.35092   0.81926   0.73584   0.00000  Uiso   1.00
O1042  O     0.46131   0.90474   0.74633   0.00000  Uiso   1.00
O1043  O     0.56191   0.91422   0.75586   0.00000  Uiso   1.00
O1044  O     0.42515   0.82627   0.81840   0.00000  Uiso   1.00
O1045  O     0.52575   0.83575   0.82793   0.00000  Uiso   1.00
O1046  O     0.43809   0.75245   0.74413   0.00000  Uiso   1.00
O1047  O     0.53869   0.76193   0.75367   0.00000  Uiso   1.00
O1048  O     0.47425   0.83092   0.67207   0.00000  Uiso   1.00
O1049  O     0.57485   0.84040   0.68160   0.00000  Uiso   1.00
C1050  C     0.66018   0.91470   0.60809   0.00000  Uiso   1.00
C1051  C     0.38077   0.88652   0.60232   0.00000  Uiso   1.00
H1052  H     0.40941   0.90198   0.63130   0.00000  Uiso   1.00
H1053  H     0.36253   0.84372   0.60718   0.00000  Uiso   1.00
H1054  H     0.41142   0.89342   0.56371   0.00000  Uiso   1.00
H1055  H     0.34743   0.95518   0.59393   0.00000  Uiso   1.00
H1056  H     0.63861   0.91994   0.64890   0.00000  Uiso   1.00
C1057  C     0.40312   0.98518   0.79178   0.00000  Uiso   1.00
C1058  C     0.37381   0.68425   0.83647   0.00000  Uiso   1.00
H1059  H     0.40626   0.69687   0.86319   0.00000  Uiso   1.00
H1060  H     0.36222   0.71914   0.82284   0.00000  Uiso   1.00
H1061  H     0.66250   0.99333   0.85767   0.00000  Uiso   1.00
H1062  H     0.37301   0.97729   0.76297   0.00000  Uiso   1.00
H1063  H     0.40190   0.94763   0.80903   0.00000  Uiso   1.00
O1064  O     0.66581   0.80196   0.69212   0.00000  Uiso   1.00
C1065  C     0.34264   0.75086   0.68143   0.00000  Uiso   1.00
H1066  H     0.66487   0.72756   0.71674   0.00000  Uiso   1.00
H1067  H     0.39207   0.75202   0.66159   0.00000  Uiso   1.00
C1068  C     0.63315   0.72330   0.64616   0.00000  Uiso   1.00
H1069  H     0.64989   0.73985   0.60734   0.00000  Uiso   1.00
H1070  H     0.63249   0.68082   0.64388   0.00000  Uiso   1.00
H1071  H     0.58427   0.72822   0.66100   0.00000  Uiso   1.00
C1072  C     0.84684   0.93320   0.75458   0.00000  Uiso   1.00
C1073  C     0.80866   0.82979   0.98634   0.00000  Uiso   1.00
C1074  C     0.82145   0.84853   0.93579   0.00000  Uiso   1.00
C1075  C     0.85508   0.84645   0.51669   0.00000  Uiso   1.00
C1076  C     0.91130   0.88305   0.99682   0.00000  Uiso   1.00
C1077  C     0.92086   0.90346   0.94846   0.00000  Uiso   1.00
C1078  C     0.87610   0.88748   0.91893   0.00000  Uiso   1.00
C1079  C     0.84681   0.82910   0.56667   0.00000  Uiso   1.00
C1080  C     0.94578   0.88692   0.57731   0.00000  Uiso   1.00
C1081  C     0.77897   0.82821   0.90322   0.00000  Uiso   1.00
C1082  C     0.85320   0.98907   0.75676   0.00000  Uiso   1.00
C1083  C     0.79967   0.83185   0.84723   0.00000  Uiso   1.00
C1084  C     0.80358   0.67881   0.76618   0.00000  Uiso   1.00
C1085  C     0.81643   0.73363   0.75342   0.00000  Uiso   1.00
C1086  C     0.86779   0.83930   0.65305   0.00000  Uiso   1.00
C1087  C     0.95658   0.90121   0.52629   0.00000  Uiso   1.00
C1088  C     0.88940   0.85053   0.59800   0.00000  Uiso   1.00
C1089  C     0.71976   0.79724   0.92362   0.00000  Uiso   1.00
C1090  C     0.70500   0.78193   0.97416   0.00000  Uiso   1.00
C1091  C     0.74943   0.79619   0.50466   0.00000  Uiso   1.00
Cu1092 Cu    0.77377   0.82772   0.74436   0.00000  Uiso   1.00
Cu1093 Cu    0.89290   0.83895   0.75564   0.00000  Uiso   1.00
H1094  H     0.99887   0.86460   0.79562   0.00000  Uiso   1.00
H1095  H     0.96271   0.93288   0.93374   0.00000  Uiso   1.00
H1096  H     0.99937   0.92915   0.51024   0.00000  Uiso   1.00
H1097  H     0.80599   0.80011   0.58323   0.00000  Uiso   1.00
H1098  H     0.68595   0.78258   0.89978   0.00000  Uiso   1.00
H1099  H     0.73527   0.78106   0.54266   0.00000  Uiso   1.00
H1100  H     0.99291   0.75707   0.98931   0.00000  Uiso   1.00
H1101  H     0.88435   0.90714   0.88312   0.00000  Uiso   1.00
H1102  H     0.90072   0.67837   0.74490   0.00000  Uiso   1.00
N1103  N     0.98241   0.84741   0.76416   0.00000  Uiso   1.00
N1104  N     0.68426   0.81926   0.73584   0.00000  Uiso   1.00
O1105  O     0.79464   0.90474   0.74633   0.00000  Uiso   1.00
O1106  O     0.89524   0.91422   0.75586   0.00000  Uiso   1.00
O1107  O     0.75848   0.82627   0.81840   0.00000  Uiso   1.00
O1108  O     0.85908   0.83575   0.82793   0.00000  Uiso   1.00
O1109  O     0.77142   0.75245   0.74413   0.00000  Uiso   1.00
O1110  O     0.87203   0.76193   0.75367   0.00000  Uiso   1.00
O1111  O     0.80758   0.83092   0.67207   0.00000  Uiso   1.00
O1112  O     0.90819   0.84040   0.68160   0.00000  Uiso   1.00
C1113  C     0.99351   0.91470   0.60809   0.00000  Uiso   1.00
C1114  C     0.71410   0.88652   0.60232   0.00000  Uiso   1.00
H1115  H     0.74274   0.90198   0.63130   0.00000  Uiso   1.00
H1116  H     0.69587   0.84372   0.60718   0.00000  Uiso   1.00
H1117  H     0.74475   0.89342   0.56371   0.00000  Uiso   1.00
H1118  H     0.68076   0.95518   0.59393   0.00000  Uiso   1.00
H1119  H     0.97195   0.91994   0.64890   0.00000  Uiso   1.00
C1120  C     0.73646   0.98518   0.79178   0.00000  Uiso   1.00
C1121  C     0.70715   0.68425   0.83647   0.00000  Uiso   1.00
H1122  H     0.73960   0.69687   0.86319   0.00000  Uiso   1.00
H1123  H     0.69556   0.71914   0.82284   0.00000  Uiso   1.00
H1124  H     0.99583   0.99333   0.85767   0.00000  Uiso   1.00
H1125  H     0.70634   0.97729   0.76297   0.00000  Uiso   1.00
H1126  H     0.73523   0.94763   0.80903   0.00000  Uiso   1.00
O1127  O     0.99914   0.80196   0.69212   0.00000  Uiso   1.00
C1128  C     0.67597   0.75086   0.68143   0.00000  Uiso   1.00
H1129  H     0.99821   0.72756   0.71674   0.00000  Uiso   1.00
H1130  H     0.72541   0.75202   0.66159   0.00000  Uiso   1.00
C1131  C     0.96649   0.72330   0.64616   0.00000  Uiso   1.00
H1132  H     0.98322   0.73985   0.60734   0.00000  Uiso   1.00
H1133  H     0.96582   0.68082   0.64388   0.00000  Uiso   1.00
H1134  H     0.91760   0.72822   0.66100   0.00000  Uiso   1.00
loop_
_geom_bond_atom_site_label_1
_geom_bond_atom_site_label_2
_geom_bond_distance
_geom_bond_site_symmetry_2
_ccdc_geom_bond_type
C1     C11     1.433   .     S
C1     O34     1.288   .     A
C1     O35     1.294   .     A
C2     C3      1.421   .     A
C2     C571    1.429   .     S
C2     C587    1.418   .     S
C3     C10     1.420   .     A
C3     C7      1.410   .     A
C4     C8      1.405   .     A
C4     C569    1.429   1_554 S
C4     C572    1.417   1_554 S
C5     C6      1.392   .     A
C5     C571    1.417   .     S
C5     C583    1.398   .     S
C6     C7      1.383   .     A
C6     H24     1.084   .     S
C7     H30     1.081   .     S
C8     H26     1.076   .     S
C8     C17     1.403   .     A
C9     C42     1.516   .     S
C9     C17     1.422   .     A
C9     C16     1.399   .     A
C10    C18     1.400   .     A
C10    C12     1.474   .     S
C11    C202    1.346   .     S
C11    H220    1.082   .     S
C12    O36     1.304   .     A
C12    O37     1.296   .     A
C13    C14     1.447   .     S
C13    C389    1.346   1_545 S
C13    C427    1.533   1_545 S
C14    O38     1.290   .     A
C14    O39     1.294   .     A
C15    O41     1.300   .     A
C15    O40     1.301   .     A
C15    C17     1.477   .     S
C16    H25     1.085   .     S
C16    C572    1.398   1_554 S
C18    C19     1.388   .     A
C18    H27     1.083   .     S
C19    C587    1.393   .     S
C19    H155    1.083   1_455 S
C20    H28     1.074   .     S
C20    C569    1.418   1_554 S
C20    C586    1.393   1_554 S
Cu21   O36     1.941   .     S
Cu21   Cu22    2.690   .     S
Cu21   O40     1.919   .     S
Cu21   N33     2.021   .     S
Cu21   O38     1.956   .     S
Cu21   O34     1.961   .     S
Cu22   O35     1.956   .     S
Cu22   N32     2.021   .     S
Cu22   O39     1.961   .     S
Cu22   O41     1.941   .     S
Cu22   O37     1.919   .     S
H23    N32     1.028   .     S
H29    C82     1.083   .     S
H31    C389    1.082   1_545 S
N32    N96     1.286   .     S
N33    N158    1.286   1_455 S
N33    O182    1.343   1_455 S
C42    H48     1.107   .     S
C42    C106    1.522   .     S
C42    H110    1.111   .     S
C43    H44     1.111   .     S
C43    H45     1.107   .     S
C43    H46     1.109   .     S
C43    C168    1.522   1_455 S
H47    C168    1.111   1_455 S
C49    H54     1.111   .     S
C49    H55     1.107   .     S
C49    C202    1.533   .     S
C49    C239    1.531   .     S
C50    H52     1.108   .     S
C50    H51     1.111   .     S
C50    C427    1.531   1_545 S
C50    H557    1.110   1_445 S
H53    C302    1.110   .     S
O56    N96     1.343   .     S
O56    C120    1.404   .     S
C57    H59     1.109   .     S
C57    O182    1.404   1_455 S
C57    H184    1.113   1_455 S
C57    C186    1.523   1_455 S
H58    C120    1.113   .     S
C60    H63     1.109   .     S
C60    H62     1.105   .     S
C60    H61     1.109   .     S
C60    C120    1.523   .     S
C64    C74     1.433   .     S
C64    O97     1.288   .     A
C64    O98     1.294   .     A
C65    C66     1.421   .     A
C65    C634    1.429   .     S
C65    C650    1.418   .     S
C66    C73     1.420   .     A
C66    C70     1.410   .     A
C67    C71     1.405   .     A
C67    C632    1.429   1_554 S
C67    C635    1.417   1_554 S
C68    C69     1.392   .     A
C68    C634    1.417   .     S
C68    C646    1.398   .     S
C69    C70     1.383   .     A
C69    H87     1.084   .     S
C70    H93     1.081   .     S
C71    H89     1.076   .     S
C71    C80     1.403   .     A
C72    C105    1.516   .     S
C72    C80     1.422   .     A
C72    C79     1.399   .     A
C73    C81     1.400   .     A
C73    C75     1.474   .     S
C74    C265    1.346   .     S
C74    H283    1.082   .     S
C75    O99     1.304   .     A
C75    O100    1.296   .     A
C76    C77     1.447   .     S
C76    C452    1.346   1_545 S
C76    C490    1.533   1_545 S
C77    O101    1.290   .     A
C77    O102    1.294   .     A
C78    O104    1.300   .     A
C78    O103    1.301   .     A
C78    C80     1.477   .     S
C79    H88     1.085   .     S
C79    C635    1.398   1_554 S
C81    C82     1.388   .     A
C81    H90     1.083   .     S
C82    C650    1.393   .     S
C83    H91     1.074   .     S
C83    C632    1.418   1_554 S
C83    C649    1.393   1_554 S
Cu84   O99     1.941   .     S
Cu84   Cu85    2.690   .     S
Cu84   O103    1.919   .     S
Cu84   N96     2.021   .     S
Cu84   O101    1.956   .     S
Cu84   O97     1.961   .     S
Cu85   O98     1.956   .     S
Cu85   N95     2.021   .     S
Cu85   O102    1.961   .     S
Cu85   O104    1.941   .     S
Cu85   O100    1.919   .     S
H86    N95     1.028   .     S
H92    C145    1.083   .     S
H94    C452    1.082   1_545 S
N95    N159    1.286   .     S
C105   H111    1.107   .     S
C105   C169    1.522   .     S
C105   H173    1.111   .     S
C106   H107    1.111   .     S
C106   H108    1.107   .     S
C106   H109    1.109   .     S
C112   H117    1.111   .     S
C112   H118    1.107   .     S
C112   C265    1.533   .     S
C112   C302    1.531   .     S
C113   H115    1.108   .     S
C113   H114    1.111   .     S
C113   C490    1.531   1_545 S
C113   H431    1.110   1_545 S
H116   C365    1.110   .     S
O119   N159    1.343   .     S
O119   C183    1.404   .     S
C120   H122    1.109   .     S
H121   C183    1.113   .     S
C123   H126    1.109   .     S
C123   H125    1.105   .     S
C123   H124    1.109   .     S
C123   C183    1.523   .     S
C127   C137    1.433   .     S
C127   O160    1.288   .     A
C127   O161    1.294   .     A
C128   C129    1.421   .     A
C128   C697    1.429   .     S
C128   C713    1.418   .     S
C129   C136    1.420   .     A
C129   C133    1.410   .     A
C130   C134    1.405   .     A
C130   C695    1.429   1_554 S
C130   C698    1.417   1_554 S
C131   C132    1.392   .     A
C131   C697    1.417   .     S
C131   C709    1.398   .     S
C132   C133    1.383   .     A
C132   H150    1.084   .     S
C133   H156    1.081   .     S
C134   H152    1.076   .     S
C134   C143    1.403   .     A
C135   C168    1.516   .     S
C135   C143    1.422   .     A
C135   C142    1.399   .     A
C136   C144    1.400   .     A
C136   C138    1.474   .     S
C137   C328    1.346   .     S
C137   H346    1.082   .     S
C138   O162    1.304   .     A
C138   O163    1.296   .     A
C139   C140    1.447   .     S
C139   C515    1.346   1_545 S
C139   C553    1.533   1_545 S
C140   O164    1.290   .     A
C140   O165    1.294   .     A
C141   O167    1.300   .     A
C141   O166    1.301   .     A
C141   C143    1.477   .     S
C142   H151    1.085   .     S
C142   C698    1.398   1_554 S
C144   C145    1.388   .     A
C144   H153    1.083   .     S
C145   C713    1.393   .     S
C146   H154    1.074   .     S
C146   C695    1.418   1_554 S
C146   C712    1.393   1_554 S
Cu147  O162    1.941   .     S
Cu147  Cu148   2.690   .     S
Cu147  O166    1.919   .     S
Cu147  N159    2.021   .     S
Cu147  O164    1.956   .     S
Cu147  O160    1.961   .     S
Cu148  O161    1.956   .     S
Cu148  N158    2.021   .     S
Cu148  O165    1.961   .     S
Cu148  O167    1.941   .     S
Cu148  O163    1.919   .     S
H149   N158    1.028   .     S
H155   C19     1.083   1_655 S
H157   C515    1.082   1_545 S
N158   N33     1.286   1_655 S
C168   H174    1.107   .     S
C168   C43     1.522   1_655 S
C168   H47     1.111   1_655 S
C169   H170    1.111   .     S
C169   H171    1.107   .     S
C169   H172    1.109   .     S
C175   H180    1.111   .     S
C175   H181    1.107   .     S
C175   C328    1.533   .     S
C175   C365    1.531   .     S
C176   H178    1.108   .     S
C176   H177    1.111   .     S
C176   C553    1.531   1_545 S
C176   H494    1.110   1_545 S
H179   C239    1.110   1_655 S
O182   N33     1.343   1_655 S
O182   C57     1.404   1_655 S
C183   H185    1.109   .     S
H184   C57     1.113   1_655 S
C186   H189    1.109   .     S
C186   H188    1.105   .     S
C186   H187    1.109   .     S
C186   C57     1.523   1_655 S
C190   C200    1.433   .     S
C190   O223    1.288   .     A
C190   O224    1.294   .     A
C191   C192    1.421   .     A
C191   C760    1.429   .     S
C191   C776    1.418   .     S
C192   C199    1.420   .     A
C192   C196    1.410   .     A
C193   C197    1.405   .     A
C193   C758    1.429   1_554 S
C193   C761    1.417   1_554 S
C194   C195    1.392   .     A
C194   C760    1.417   .     S
C194   C772    1.398   .     S
C195   C196    1.383   .     A
C195   H213    1.084   .     S
C196   H219    1.081   .     S
C197   H215    1.076   .     S
C197   C206    1.403   .     A
C198   C231    1.516   .     S
C198   C206    1.422   .     A
C198   C205    1.399   .     A
C199   C207    1.400   .     A
C199   C201    1.474   .     S
C200   C391    1.346   .     S
C200   H409    1.082   .     S
C201   O225    1.304   .     A
C201   O226    1.296   .     A
C202   C203    1.447   .     S
C203   O227    1.290   .     A
C203   O228    1.294   .     A
C204   O230    1.300   .     A
C204   O229    1.301   .     A
C204   C206    1.477   .     S
C205   H214    1.085   .     S
C205   C761    1.398   1_554 S
C207   C208    1.388   .     A
C207   H216    1.083   .     S
C208   C776    1.393   .     S
C208   H344    1.083   1_455 S
C209   H217    1.074   .     S
C209   C758    1.418   1_554 S
C209   C775    1.393   1_554 S
Cu210  O225    1.941   .     S
Cu210  Cu211   2.690   .     S
Cu210  O229    1.919   .     S
Cu210  N222    2.021   .     S
Cu210  O227    1.956   .     S
Cu210  O223    1.961   .     S
Cu211  O224    1.956   .     S
Cu211  N221    2.021   .     S
Cu211  O228    1.961   .     S
Cu211  O230    1.941   .     S
Cu211  O226    1.919   .     S
H212   N221    1.028   .     S
H218   C271    1.083   .     S
N221   N285    1.286   .     S
N222   N347    1.286   1_455 S
N222   O371    1.343   1_455 S
C231   H237    1.107   .     S
C231   C295    1.522   .     S
C231   H299    1.111   .     S
C232   H233    1.111   .     S
C232   H234    1.107   .     S
C232   H235    1.109   .     S
C232   C357    1.522   1_455 S
H236   C357    1.111   1_455 S
C238   H243    1.111   .     S
C238   H244    1.107   .     S
C238   C391    1.533   .     S
C238   C428    1.531   .     S
C239   H241    1.108   .     S
C239   H240    1.111   .     S
C239   H179    1.110   1_455 S
H242   C491    1.110   .     S
O245   N285    1.343   .     S
O245   C309    1.404   .     S
C246   H248    1.109   .     S
C246   O371    1.404   1_455 S
C246   H373    1.113   1_455 S
C246   C375    1.523   1_455 S
H247   C309    1.113   .     S
C249   H252    1.109   .     S
C249   H251    1.105   .     S
C249   H250    1.109   .     S
C249   C309    1.523   .     S
C253   C263    1.433   .     S
C253   O286    1.288   .     A
C253   O287    1.294   .     A
C254   C255    1.421   .     A
C254   C823    1.429   .     S
C254   C839    1.418   .     S
C255   C262    1.420   .     A
C255   C259    1.410   .     A
C256   C260    1.405   .     A
C256   C821    1.429   1_554 S
C256   C824    1.417   1_554 S
C257   C258    1.392   .     A
C257   C823    1.417   .     S
C257   C835    1.398   .     S
C258   C259    1.383   .     A
C258   H276    1.084   .     S
C259   H282    1.081   .     S
C260   H278    1.076   .     S
C260   C269    1.403   .     A
C261   C294    1.516   .     S
C261   C269    1.422   .     A
C261   C268    1.399   .     A
C262   C270    1.400   .     A
C262   C264    1.474   .     S
C263   C454    1.346   .     S
C263   H472    1.082   .     S
C264   O288    1.304   .     A
C264   O289    1.296   .     A
C265   C266    1.447   .     S
C266   O290    1.290   .     A
C266   O291    1.294   .     A
C267   O293    1.300   .     A
C267   O292    1.301   .     A
C267   C269    1.477   .     S
C268   H277    1.085   .     S
C268   C824    1.398   1_554 S
C270   C271    1.388   .     A
C270   H279    1.083   .     S
C271   C839    1.393   .     S
C272   H280    1.074   .     S
C272   C821    1.418   1_554 S
C272   C838    1.393   1_554 S
Cu273  O288    1.941   .     S
Cu273  Cu274   2.690   .     S
Cu273  O292    1.919   .     S
Cu273  N285    2.021   .     S
Cu273  O290    1.956   .     S
Cu273  O286    1.961   .     S
Cu274  O287    1.956   .     S
Cu274  N284    2.021   .     S
Cu274  O291    1.961   .     S
Cu274  O293    1.941   .     S
Cu274  O289    1.919   .     S
H275   N284    1.028   .     S
H281   C334    1.083   .     S
N284   N348    1.286   .     S
C294   H300    1.107   .     S
C294   C358    1.522   .     S
C294   H362    1.111   .     S
C295   H296    1.111   .     S
C295   H297    1.107   .     S
C295   H298    1.109   .     S
C301   H306    1.111   .     S
C301   H307    1.107   .     S
C301   C454    1.533   .     S
C301   C491    1.531   .     S
C302   H304    1.108   .     S
C302   H303    1.111   .     S
H305   C554    1.110   .     S
O308   N348    1.343   .     S
O308   C372    1.404   .     S
C309   H311    1.109   .     S
H310   C372    1.113   .     S
C312   H315    1.109   .     S
C312   H314    1.105   .     S
C312   H313    1.109   .     S
C312   C372    1.523   .     S
C316   C326    1.433   .     S
C316   O349    1.288   .     A
C316   O350    1.294   .     A
C317   C318    1.421   .     A
C317   C886    1.429   .     S
C317   C902    1.418   .     S
C318   C325    1.420   .     A
C318   C322    1.410   .     A
C319   C323    1.405   .     A
C319   C884    1.429   1_554 S
C319   C887    1.417   1_554 S
C320   C321    1.392   .     A
C320   C886    1.417   .     S
C320   C898    1.398   .     S
C321   C322    1.383   .     A
C321   H339    1.084   .     S
C322   H345    1.081   .     S
C323   H341    1.076   .     S
C323   C332    1.403   .     A
C324   C357    1.516   .     S
C324   C332    1.422   .     A
C324   C331    1.399   .     A
C325   C333    1.400   .     A
C325   C327    1.474   .     S
C326   C517    1.346   .     S
C326   H535    1.082   .     S
C327   O351    1.304   .     A
C327   O352    1.296   .     A
C328   C329    1.447   .     S
C329   O353    1.290   .     A
C329   O354    1.294   .     A
C330   O356    1.300   .     A
C330   O355    1.301   .     A
C330   C332    1.477   .     S
C331   H340    1.085   .     S
C331   C887    1.398   1_554 S
C333   C334    1.388   .     A
C333   H342    1.083   .     S
C334   C902    1.393   .     S
C335   H343    1.074   .     S
C335   C884    1.418   1_554 S
C335   C901    1.393   1_554 S
Cu336  O351    1.941   .     S
Cu336  Cu337   2.690   .     S
Cu336  O355    1.919   .     S
Cu336  N348    2.021   .     S
Cu336  O353    1.956   .     S
Cu336  O349    1.961   .     S
Cu337  O350    1.956   .     S
Cu337  N347    2.021   .     S
Cu337  O354    1.961   .     S
Cu337  O356    1.941   .     S
Cu337  O352    1.919   .     S
H338   N347    1.028   .     S
H344   C208    1.083   1_655 S
N347   N222    1.286   1_655 S
C357   H363    1.107   .     S
C357   C232    1.522   1_655 S
C357   H236    1.111   1_655 S
C358   H359    1.111   .     S
C358   H360    1.107   .     S
C358   H361    1.109   .     S
C364   H369    1.111   .     S
C364   H370    1.107   .     S
C364   C517    1.533   .     S
C364   C554    1.531   .     S
C365   H367    1.108   .     S
C365   H366    1.111   .     S
H368   C428    1.110   1_655 S
O371   N222    1.343   1_655 S
O371   C246    1.404   1_655 S
C372   H374    1.109   .     S
H373   C246    1.113   1_655 S
C375   H378    1.109   .     S
C375   H377    1.105   .     S
C375   H376    1.109   .     S
C375   C246    1.523   1_655 S
C379   C389    1.433   .     S
C379   O412    1.288   .     A
C379   O413    1.294   .     A
C380   C381    1.421   .     A
C380   C949    1.429   .     S
C380   C965    1.418   .     S
C381   C388    1.420   .     A
C381   C385    1.410   .     A
C382   C386    1.405   .     A
C382   C947    1.429   1_554 S
C382   C950    1.417   1_554 S
C383   C384    1.392   .     A
C383   C949    1.417   .     S
C383   C961    1.398   .     S
C384   C385    1.383   .     A
C384   H402    1.084   .     S
C385   H408    1.081   .     S
C386   H404    1.076   .     S
C386   C395    1.403   .     A
C387   C420    1.516   .     S
C387   C395    1.422   .     A
C387   C394    1.399   .     A
C388   C396    1.400   .     A
C388   C390    1.474   .     S
C389   C13     1.346   1_565 S
C389   H31     1.082   1_565 S
C390   O414    1.304   .     A
C390   O415    1.296   .     A
C391   C392    1.447   .     S
C392   O416    1.290   .     A
C392   O417    1.294   .     A
C393   O419    1.300   .     A
C393   O418    1.301   .     A
C393   C395    1.477   .     S
C394   H403    1.085   .     S
C394   C950    1.398   1_554 S
C396   C397    1.388   .     A
C396   H405    1.083   .     S
C397   C965    1.393   .     S
C397   H533    1.083   1_455 S
C398   H406    1.074   .     S
C398   C947    1.418   1_554 S
C398   C964    1.393   1_554 S
Cu399  O414    1.941   .     S
Cu399  Cu400   2.690   .     S
Cu399  O418    1.919   .     S
Cu399  N411    2.021   .     S
Cu399  O416    1.956   .     S
Cu399  O412    1.961   .     S
Cu400  O413    1.956   .     S
Cu400  N410    2.021   .     S
Cu400  O417    1.961   .     S
Cu400  O419    1.941   .     S
Cu400  O415    1.919   .     S
H401   N410    1.028   .     S
H407   C460    1.083   .     S
N410   N474    1.286   .     S
N411   N536    1.286   1_455 S
N411   O560    1.343   1_455 S
C420   H426    1.107   .     S
C420   C484    1.522   .     S
C420   H488    1.111   .     S
C421   H422    1.111   .     S
C421   H423    1.107   .     S
C421   H424    1.109   .     S
C421   C546    1.522   1_455 S
H425   C546    1.111   1_455 S
C427   H432    1.111   .     S
C427   H433    1.107   .     S
C427   C13     1.533   1_565 S
C427   C50     1.531   1_565 S
C428   H430    1.108   .     S
C428   H429    1.111   .     S
C428   H368    1.110   1_455 S
H431   C113    1.110   1_565 S
O434   N474    1.343   .     S
O434   C498    1.404   .     S
C435   H437    1.109   .     S
C435   O560    1.404   1_455 S
C435   H562    1.113   1_455 S
C435   C564    1.523   1_455 S
H436   C498    1.113   .     S
C438   H441    1.109   .     S
C438   H440    1.105   .     S
C438   H439    1.109   .     S
C438   C498    1.523   .     S
C442   C452    1.433   .     S
C442   O475    1.288   .     A
C442   O476    1.294   .     A
C443   C444    1.421   .     A
C443   C1012   1.429   .     S
C443   C1028   1.418   .     S
C444   C451    1.420   .     A
C444   C448    1.410   .     A
C445   C449    1.405   .     A
C445   C1010   1.429   1_554 S
C445   C1013   1.417   1_554 S
C446   C447    1.392   .     A
C446   C1012   1.417   .     S
C446   C1024   1.398   .     S
C447   C448    1.383   .     A
C447   H465    1.084   .     S
C448   H471    1.081   .     S
C449   H467    1.076   .     S
C449   C458    1.403   .     A
C450   C483    1.516   .     S
C450   C458    1.422   .     A
C450   C457    1.399   .     A
C451   C459    1.400   .     A
C451   C453    1.474   .     S
C452   C76     1.346   1_565 S
C452   H94     1.082   1_565 S
C453   O477    1.304   .     A
C453   O478    1.296   .     A
C454   C455    1.447   .     S
C455   O479    1.290   .     A
C455   O480    1.294   .     A
C456   O482    1.300   .     A
C456   O481    1.301   .     A
C456   C458    1.477   .     S
C457   H466    1.085   .     S
C457   C1013   1.398   1_554 S
C459   C460    1.388   .     A
C459   H468    1.083   .     S
C460   C1028   1.393   .     S
C461   H469    1.074   .     S
C461   C1010   1.418   1_554 S
C461   C1027   1.393   1_554 S
Cu462  O477    1.941   .     S
Cu462  Cu463   2.690   .     S
Cu462  O481    1.919   .     S
Cu462  N474    2.021   .     S
Cu462  O479    1.956   .     S
Cu462  O475    1.961   .     S
Cu463  O476    1.956   .     S
Cu463  N473    2.021   .     S
Cu463  O480    1.961   .     S
Cu463  O482    1.941   .     S
Cu463  O478    1.919   .     S
H464   N473    1.028   .     S
H470   C523    1.083   .     S
N473   N537    1.286   .     S
C483   H489    1.107   .     S
C483   C547    1.522   .     S
C483   H551    1.111   .     S
C484   H485    1.111   .     S
C484   H486    1.107   .     S
C484   H487    1.109   .     S
C490   H495    1.111   .     S
C490   H496    1.107   .     S
C490   C76     1.533   1_565 S
C490   C113    1.531   1_565 S
C491   H493    1.108   .     S
C491   H492    1.111   .     S
H494   C176    1.110   1_565 S
O497   N537    1.343   .     S
O497   C561    1.404   .     S
C498   H500    1.109   .     S
H499   C561    1.113   .     S
C501   H504    1.109   .     S
C501   H503    1.105   .     S
C501   H502    1.109   .     S
C501   C561    1.523   .     S
C505   C515    1.433   .     S
C505   O538    1.288   .     A
C505   O539    1.294   .     A
C506   C507    1.421   .     A
C506   C1075   1.429   .     S
C506   C1091   1.418   .     S
C507   C514    1.420   .     A
C507   C511    1.410   .     A
C508   C512    1.405   .     A
C508   C1073   1.429   1_554 S
C508   C1076   1.417   1_554 S
C509   C510    1.392   .     A
C509   C1075   1.417   .     S
C509   C1087   1.398   .     S
C510   C511    1.383   .     A
C510   H528    1.084   .     S
C511   H534    1.081   .     S
C512   H530    1.076   .     S
C512   C521    1.403   .     A
C513   C546    1.516   .     S
C513   C521    1.422   .     A
C513   C520    1.399   .     A
C514   C522    1.400   .     A
C514   C516    1.474   .     S
C515   C139    1.346   1_565 S
C515   H157    1.082   1_565 S
C516   O540    1.304   .     A
C516   O541    1.296   .     A
C517   C518    1.447   .     S
C518   O542    1.290   .     A
C518   O543    1.294   .     A
C519   O545    1.300   .     A
C519   O544    1.301   .     A
C519   C521    1.477   .     S
C520   H529    1.085   .     S
C520   C1076   1.398   1_554 S
C522   C523    1.388   .     A
C522   H531    1.083   .     S
C523   C1091   1.393   .     S
C524   H532    1.074   .     S
C524   C1073   1.418   1_554 S
C524   C1090   1.393   1_554 S
Cu525  O540    1.941   .     S
Cu525  Cu526   2.690   .     S
Cu525  O544    1.919   .     S
Cu525  N537    2.021   .     S
Cu525  O542    1.956   .     S
Cu525  O538    1.961   .     S
Cu526  O539    1.956   .     S
Cu526  N536    2.021   .     S
Cu526  O543    1.961   .     S
Cu526  O545    1.941   .     S
Cu526  O541    1.919   .     S
H527   N536    1.028   .     S
H533   C397    1.083   1_655 S
N536   N411    1.286   1_655 S
C546   H552    1.107   .     S
C546   C421    1.522   1_655 S
C546   H425    1.111   1_655 S
C547   H548    1.111   .     S
C547   H549    1.107   .     S
C547   H550    1.109   .     S
C553   H558    1.111   .     S
C553   H559    1.107   .     S
C553   C139    1.533   1_565 S
C553   C176    1.531   1_565 S
C554   H556    1.108   .     S
C554   H555    1.111   .     S
H557   C50     1.110   1_665 S
O560   N411    1.343   1_655 S
O560   C435    1.404   1_655 S
C561   H563    1.109   .     S
H562   C435    1.113   1_655 S
C564   H567    1.109   .     S
C564   H566    1.105   .     S
C564   H565    1.109   .     S
C564   C435    1.523   1_655 S
C568   C578    1.433   .     S
C568   O601    1.288   .     A
C568   O602    1.294   .     A
C569   C570    1.421   .     A
C569   C4      1.429   1_556 S
C569   C20     1.418   1_556 S
C570   C577    1.420   .     A
C570   C574    1.410   .     A
C571   C575    1.405   .     A
C572   C573    1.392   .     A
C572   C4      1.417   1_556 S
C572   C16     1.398   1_556 S
C573   C574    1.383   .     A
C573   H591    1.084   .     S
C574   H597    1.081   .     S
C575   H593    1.076   .     S
C575   C584    1.403   .     A
C576   C609    1.516   .     S
C576   C584    1.422   .     A
C576   C583    1.399   .     A
C577   C585    1.400   .     A
C577   C579    1.474   .     S
C578   C769    1.346   .     S
C578   H787    1.082   .     S
C579   O603    1.304   .     A
C579   O604    1.296   .     A
C580   C581    1.447   .     S
C580   C956    1.346   1_545 S
C580   C994    1.533   1_545 S
C581   O605    1.290   .     A
C581   O606    1.294   .     A
C582   O608    1.300   .     A
C582   O607    1.301   .     A
C582   C584    1.477   .     S
C583   H592    1.085   .     S
C585   C586    1.388   .     A
C585   H594    1.083   .     S
C586   C20     1.393   1_556 S
C586   H722    1.083   1_455 S
C587   H595    1.074   .     S
Cu588  O603    1.941   .     S
Cu588  Cu589   2.690   .     S
Cu588  O607    1.919   .     S
Cu588  N600    2.021   .     S
Cu588  O605    1.956   .     S
Cu588  O601    1.961   .     S
Cu589  O602    1.956   .     S
Cu589  N599    2.021   .     S
Cu589  O606    1.961   .     S
Cu589  O608    1.941   .     S
Cu589  O604    1.919   .     S
H590   N599    1.028   .     S
H596   C649    1.083   .     S
H598   C956    1.082   1_545 S
N599   N663    1.286   .     S
N600   N725    1.286   1_455 S
N600   O749    1.343   1_455 S
C609   H615    1.107   .     S
C609   C673    1.522   .     S
C609   H677    1.111   .     S
C610   H611    1.111   .     S
C610   H612    1.107   .     S
C610   H613    1.109   .     S
C610   C735    1.522   1_455 S
H614   C735    1.111   1_455 S
C616   H621    1.111   .     S
C616   H622    1.107   .     S
C616   C769    1.533   .     S
C616   C806    1.531   .     S
C617   H619    1.108   .     S
C617   H618    1.111   .     S
C617   C994    1.531   1_545 S
C617   H1124   1.110   1_445 S
H620   C869    1.110   .     S
O623   N663    1.343   .     S
O623   C687    1.404   .     S
C624   H626    1.109   .     S
C624   O749    1.404   1_455 S
C624   H751    1.113   1_455 S
C624   C753    1.523   1_455 S
H625   C687    1.113   .     S
C627   H630    1.109   .     S
C627   H629    1.105   .     S
C627   H628    1.109   .     S
C627   C687    1.523   .     S
C631   C641    1.433   .     S
C631   O664    1.288   .     A
C631   O665    1.294   .     A
C632   C633    1.421   .     A
C632   C67     1.429   1_556 S
C632   C83     1.418   1_556 S
C633   C640    1.420   .     A
C633   C637    1.410   .     A
C634   C638    1.405   .     A
C635   C636    1.392   .     A
C635   C67     1.417   1_556 S
C635   C79     1.398   1_556 S
C636   C637    1.383   .     A
C636   H654    1.084   .     S
C637   H660    1.081   .     S
C638   H656    1.076   .     S
C638   C647    1.403   .     A
C639   C672    1.516   .     S
C639   C647    1.422   .     A
C639   C646    1.399   .     A
C640   C648    1.400   .     A
C640   C642    1.474   .     S
C641   C832    1.346   .     S
C641   H850    1.082   .     S
C642   O666    1.304   .     A
C642   O667    1.296   .     A
C643   C644    1.447   .     S
C643   C1019   1.346   1_545 S
C643   C1057   1.533   1_545 S
C644   O668    1.290   .     A
C644   O669    1.294   .     A
C645   O671    1.300   .     A
C645   O670    1.301   .     A
C645   C647    1.477   .     S
C646   H655    1.085   .     S
C648   C649    1.388   .     A
C648   H657    1.083   .     S
C649   C83     1.393   1_556 S
C650   H658    1.074   .     S
Cu651  O666    1.941   .     S
Cu651  Cu652   2.690   .     S
Cu651  O670    1.919   .     S
Cu651  N663    2.021   .     S
Cu651  O668    1.956   .     S
Cu651  O664    1.961   .     S
Cu652  O665    1.956   .     S
Cu652  N662    2.021   .     S
Cu652  O669    1.961   .     S
Cu652  O671    1.941   .     S
Cu652  O667    1.919   .     S
H653   N662    1.028   .     S
H659   C712    1.083   .     S
H661   C1019   1.082   1_545 S
N662   N726    1.286   .     S
C672   H678    1.107   .     S
C672   C736    1.522   .     S
C672   H740    1.111   .     S
C673   H674    1.111   .     S
C673   H675    1.107   .     S
C673   H676    1.109   .     S
C679   H684    1.111   .     S
C679   H685    1.107   .     S
C679   C832    1.533   .     S
C679   C869    1.531   .     S
C680   H682    1.108   .     S
C680   H681    1.111   .     S
C680   C1057   1.531   1_545 S
C680   H998    1.110   1_545 S
H683   C932    1.110   .     S
O686   N726    1.343   .     S
O686   C750    1.404   .     S
C687   H689    1.109   .     S
H688   C750    1.113   .     S
C690   H693    1.109   .     S
C690   H692    1.105   .     S
C690   H691    1.109   .     S
C690   C750    1.523   .     S
C694   C704    1.433   .     S
C694   O727    1.288   .     A
C694   O728    1.294   .     A
C695   C696    1.421   .     A
C695   C130    1.429   1_556 S
C695   C146    1.418   1_556 S
C696   C703    1.420   .     A
C696   C700    1.410   .     A
C697   C701    1.405   .     A
C698   C699    1.392   .     A
C698   C130    1.417   1_556 S
C698   C142    1.398   1_556 S
C699   C700    1.383   .     A
C699   H717    1.084   .     S
C700   H723    1.081   .     S
C701   H719    1.076   .     S
C701   C710    1.403   .     A
C702   C735    1.516   .     S
C702   C710    1.422   .     A
C702   C709    1.399   .     A
C703   C711    1.400   .     A
C703   C705    1.474   .     S
C704   C895    1.346   .     S
C704   H913    1.082   .     S
C705   O729    1.304   .     A
C705   O730    1.296   .     A
C706   C707    1.447   .     S
C706   C1082   1.346   1_545 S
C706   C1120   1.533   1_545 S
C707   O731    1.290   .     A
C707   O732    1.294   .     A
C708   O734    1.300   .     A
C708   O733    1.301   .     A
C708   C710    1.477   .     S
C709   H718    1.085   .     S
C711   C712    1.388   .     A
C711   H720    1.083   .     S
C712   C146    1.393   1_556 S
C713   H721    1.074   .     S
Cu714  O729    1.941   .     S
Cu714  Cu715   2.690   .     S
Cu714  O733    1.919   .     S
Cu714  N726    2.021   .     S
Cu714  O731    1.956   .     S
Cu714  O727    1.961   .     S
Cu715  O728    1.956   .     S
Cu715  N725    2.021   .     S
Cu715  O732    1.961   .     S
Cu715  O734    1.941   .     S
Cu715  O730    1.919   .     S
H716   N725    1.028   .     S
H722   C586    1.083   1_655 S
H724   C1082   1.082   1_545 S
N725   N600    1.286   1_655 S
C735   H741    1.107   .     S
C735   C610    1.522   1_655 S
C735   H614    1.111   1_655 S
C736   H737    1.111   .     S
C736   H738    1.107   .     S
C736   H739    1.109   .     S
C742   H747    1.111   .     S
C742   H748    1.107   .     S
C742   C895    1.533   .     S
C742   C932    1.531   .     S
C743   H745    1.108   .     S
C743   H744    1.111   .     S
C743   C1120   1.531   1_545 S
C743   H1061   1.110   1_545 S
H746   C806    1.110   1_655 S
O749   N600    1.343   1_655 S
O749   C624    1.404   1_655 S
C750   H752    1.109   .     S
H751   C624    1.113   1_655 S
C753   H756    1.109   .     S
C753   H755    1.105   .     S
C753   H754    1.109   .     S
C753   C624    1.523   1_655 S
C757   C767    1.433   .     S
C757   O790    1.288   .     A
C757   O791    1.294   .     A
C758   C759    1.421   .     A
C758   C193    1.429   1_556 S
C758   C209    1.418   1_556 S
C759   C766    1.420   .     A
C759   C763    1.410   .     A
C760   C764    1.405   .     A
C761   C762    1.392   .     A
C761   C193    1.417   1_556 S
C761   C205    1.398   1_556 S
C762   C763    1.383   .     A
C762   H780    1.084   .     S
C763   H786    1.081   .     S
C764   H782    1.076   .     S
C764   C773    1.403   .     A
C765   C798    1.516   .     S
C765   C773    1.422   .     A
C765   C772    1.399   .     A
C766   C774    1.400   .     A
C766   C768    1.474   .     S
C767   C958    1.346   .     S
C767   H976    1.082   .     S
C768   O792    1.304   .     A
C768   O793    1.296   .     A
C769   C770    1.447   .     S
C770   O794    1.290   .     A
C770   O795    1.294   .     A
C771   O797    1.300   .     A
C771   O796    1.301   .     A
C771   C773    1.477   .     S
C772   H781    1.085   .     S
C774   C775    1.388   .     A
C774   H783    1.083   .     S
C775   C209    1.393   1_556 S
C775   H911    1.083   1_455 S
C776   H784    1.074   .     S
Cu777  O792    1.941   .     S
Cu777  Cu778   2.690   .     S
Cu777  O796    1.919   .     S
Cu777  N789    2.021   .     S
Cu777  O794    1.956   .     S
Cu777  O790    1.961   .     S
Cu778  O791    1.956   .     S
Cu778  N788    2.021   .     S
Cu778  O795    1.961   .     S
Cu778  O797    1.941   .     S
Cu778  O793    1.919   .     S
H779   N788    1.028   .     S
H785   C838    1.083   .     S
N788   N852    1.286   .     S
N789   N914    1.286   1_455 S
N789   O938    1.343   1_455 S
C798   H804    1.107   .     S
C798   C862    1.522   .     S
C798   H866    1.111   .     S
C799   H800    1.111   .     S
C799   H801    1.107   .     S
C799   H802    1.109   .     S
C799   C924    1.522   1_455 S
H803   C924    1.111   1_455 S
C805   H810    1.111   .     S
C805   H811    1.107   .     S
C805   C958    1.533   .     S
C805   C995    1.531   .     S
C806   H808    1.108   .     S
C806   H807    1.111   .     S
C806   H746    1.110   1_455 S
H809   C1058   1.110   .     S
O812   N852    1.343   .     S
O812   C876    1.404   .     S
C813   H815    1.109   .     S
C813   O938    1.404   1_455 S
C813   H940    1.113   1_455 S
C813   C942    1.523   1_455 S
H814   C876    1.113   .     S
C816   H819    1.109   .     S
C816   H818    1.105   .     S
C816   H817    1.109   .     S
C816   C876    1.523   .     S
C820   C830    1.433   .     S
C820   O853    1.288   .     A
C820   O854    1.294   .     A
C821   C822    1.421   .     A
C821   C256    1.429   1_556 S
C821   C272    1.418   1_556 S
C822   C829    1.420   .     A
C822   C826    1.410   .     A
C823   C827    1.405   .     A
C824   C825    1.392   .     A
C824   C256    1.417   1_556 S
C824   C268    1.398   1_556 S
C825   C826    1.383   .     A
C825   H843    1.084   .     S
C826   H849    1.081   .     S
C827   H845    1.076   .     S
C827   C836    1.403   .     A
C828   C861    1.516   .     S
C828   C836    1.422   .     A
C828   C835    1.399   .     A
C829   C837    1.400   .     A
C829   C831    1.474   .     S
C830   C1021   1.346   .     S
C830   H1039   1.082   .     S
C831   O855    1.304   .     A
C831   O856    1.296   .     A
C832   C833    1.447   .     S
C833   O857    1.290   .     A
C833   O858    1.294   .     A
C834   O860    1.300   .     A
C834   O859    1.301   .     A
C834   C836    1.477   .     S
C835   H844    1.085   .     S
C837   C838    1.388   .     A
C837   H846    1.083   .     S
C838   C272    1.393   1_556 S
C839   H847    1.074   .     S
Cu840  O855    1.941   .     S
Cu840  Cu841   2.690   .     S
Cu840  O859    1.919   .     S
Cu840  N852    2.021   .     S
Cu840  O857    1.956   .     S
Cu840  O853    1.961   .     S
Cu841  O854    1.956   .     S
Cu841  N851    2.021   .     S
Cu841  O858    1.961   .     S
Cu841  O860    1.941   .     S
Cu841  O856    1.919   .     S
H842   N851    1.028   .     S
H848   C901    1.083   .     S
N851   N915    1.286   .     S
C861   H867    1.107   .     S
C861   C925    1.522   .     S
C861   H929    1.111   .     S
C862   H863    1.111   .     S
C862   H864    1.107   .     S
C862   H865    1.109   .     S
C868   H873    1.111   .     S
C868   H874    1.107   .     S
C868   C1021   1.533   .     S
C868   C1058   1.531   .     S
C869   H871    1.108   .     S
C869   H870    1.111   .     S
H872   C1121   1.110   .     S
O875   N915    1.343   .     S
O875   C939    1.404   .     S
C876   H878    1.109   .     S
H877   C939    1.113   .     S
C879   H882    1.109   .     S
C879   H881    1.105   .     S
C879   H880    1.109   .     S
C879   C939    1.523   .     S
C883   C893    1.433   .     S
C883   O916    1.288   .     A
C883   O917    1.294   .     A
C884   C885    1.421   .     A
C884   C319    1.429   1_556 S
C884   C335    1.418   1_556 S
C885   C892    1.420   .     A
C885   C889    1.410   .     A
C886   C890    1.405   .     A
C887   C888    1.392   .     A
C887   C319    1.417   1_556 S
C887   C331    1.398   1_556 S
C888   C889    1.383   .     A
C888   H906    1.084   .     S
C889   H912    1.081   .     S
C890   H908    1.076   .     S
C890   C899    1.403   .     A
C891   C924    1.516   .     S
C891   C899    1.422   .     A
C891   C898    1.399   .     A
C892   C900    1.400   .     A
C892   C894    1.474   .     S
C893   C1084   1.346   .     S
C893   H1102   1.082   .     S
C894   O918    1.304   .     A
C894   O919    1.296   .     A
C895   C896    1.447   .     S
C896   O920    1.290   .     A
C896   O921    1.294   .     A
C897   O923    1.300   .     A
C897   O922    1.301   .     A
C897   C899    1.477   .     S
C898   H907    1.085   .     S
C900   C901    1.388   .     A
C900   H909    1.083   .     S
C901   C335    1.393   1_556 S
C902   H910    1.074   .     S
Cu903  O918    1.941   .     S
Cu903  Cu904   2.690   .     S
Cu903  O922    1.919   .     S
Cu903  N915    2.021   .     S
Cu903  O920    1.956   .     S
Cu903  O916    1.961   .     S
Cu904  O917    1.956   .     S
Cu904  N914    2.021   .     S
Cu904  O921    1.961   .     S
Cu904  O923    1.941   .     S
Cu904  O919    1.919   .     S
H905   N914    1.028   .     S
H911   C775    1.083   1_655 S
N914   N789    1.286   1_655 S
C924   H930    1.107   .     S
C924   C799    1.522   1_655 S
C924   H803    1.111   1_655 S
C925   H926    1.111   .     S
C925   H927    1.107   .     S
C925   H928    1.109   .     S
C931   H936    1.111   .     S
C931   H937    1.107   .     S
C931   C1084   1.533   .     S
C931   C1121   1.531   .     S
C932   H934    1.108   .     S
C932   H933    1.111   .     S
H935   C995    1.110   1_655 S
O938   N789    1.343   1_655 S
O938   C813    1.404   1_655 S
C939   H941    1.109   .     S
H940   C813    1.113   1_655 S
C942   H945    1.109   .     S
C942   H944    1.105   .     S
C942   H943    1.109   .     S
C942   C813    1.523   1_655 S
C946   C956    1.433   .     S
C946   O979    1.288   .     A
C946   O980    1.294   .     A
C947   C948    1.421   .     A
C947   C382    1.429   1_556 S
C947   C398    1.418   1_556 S
C948   C955    1.420   .     A
C948   C952    1.410   .     A
C949   C953    1.405   .     A
C950   C951    1.392   .     A
C950   C382    1.417   1_556 S
C950   C394    1.398   1_556 S
C951   C952    1.383   .     A
C951   H969    1.084   .     S
C952   H975    1.081   .     S
C953   H971    1.076   .     S
C953   C962    1.403   .     A
C954   C987    1.516   .     S
C954   C962    1.422   .     A
C954   C961    1.399   .     A
C955   C963    1.400   .     A
C955   C957    1.474   .     S
C956   C580    1.346   1_565 S
C956   H598    1.082   1_565 S
C957   O981    1.304   .     A
C957   O982    1.296   .     A
C958   C959    1.447   .     S
C959   O983    1.290   .     A
C959   O984    1.294   .     A
C960   O986    1.300   .     A
C960   O985    1.301   .     A
C960   C962    1.477   .     S
C961   H970    1.085   .     S
C963   C964    1.388   .     A
C963   H972    1.083   .     S
C964   C398    1.393   1_556 S
C964   H1100   1.083   1_455 S
C965   H973    1.074   .     S
Cu966  O981    1.941   .     S
Cu966  Cu967   2.690   .     S
Cu966  O985    1.919   .     S
Cu966  N978    2.021   .     S
Cu966  O983    1.956   .     S
Cu966  O979    1.961   .     S
Cu967  O980    1.956   .     S
Cu967  N977    2.021   .     S
Cu967  O984    1.961   .     S
Cu967  O986    1.941   .     S
Cu967  O982    1.919   .     S
H968   N977    1.028   .     S
H974   C1027   1.083   .     S
N977   N1041   1.286   .     S
N978   N1103   1.286   1_455 S
N978   O1127   1.343   1_455 S
C987   H993    1.107   .     S
C987   C1051   1.522   .     S
C987   H1055   1.111   .     S
C988   H989    1.111   .     S
C988   H990    1.107   .     S
C988   H991    1.109   .     S
C988   C1113   1.522   1_455 S
H992   C1113   1.111   1_455 S
C994   H999    1.111   .     S
C994   H1000   1.107   .     S
C994   C580    1.533   1_565 S
C994   C617    1.531   1_565 S
C995   H997    1.108   .     S
C995   H996    1.111   .     S
C995   H935    1.110   1_455 S
H998   C680    1.110   1_565 S
O1001  N1041   1.343   .     S
O1001  C1065   1.404   .     S
C1002  H1004   1.109   .     S
C1002  O1127   1.404   1_455 S
C1002  H1129   1.113   1_455 S
C1002  C1131   1.523   1_455 S
H1003  C1065   1.113   .     S
C1005  H1008   1.109   .     S
C1005  H1007   1.105   .     S
C1005  H1006   1.109   .     S
C1005  C1065   1.523   .     S
C1009  C1019   1.433   .     S
C1009  O1042   1.288   .     A
C1009  O1043   1.294   .     A
C1010  C1011   1.421   .     A
C1010  C445    1.429   1_556 S
C1010  C461    1.418   1_556 S
C1011  C1018   1.420   .     A
C1011  C1015   1.410   .     A
C1012  C1016   1.405   .     A
C1013  C1014   1.392   .     A
C1013  C445    1.417   1_556 S
C1013  C457    1.398   1_556 S
C1014  C1015   1.383   .     A
C1014  H1032   1.084   .     S
C1015  H1038   1.081   .     S
C1016  H1034   1.076   .     S
C1016  C1025   1.403   .     A
C1017  C1050   1.516   .     S
C1017  C1025   1.422   .     A
C1017  C1024   1.399   .     A
C1018  C1026   1.400   .     A
C1018  C1020   1.474   .     S
C1019  C643    1.346   1_565 S
C1019  H661    1.082   1_565 S
C1020  O1044   1.304   .     A
C1020  O1045   1.296   .     A
C1021  C1022   1.447   .     S
C1022  O1046   1.290   .     A
C1022  O1047   1.294   .     A
C1023  O1049   1.300   .     A
C1023  O1048   1.301   .     A
C1023  C1025   1.477   .     S
C1024  H1033   1.085   .     S
C1026  C1027   1.388   .     A
C1026  H1035   1.083   .     S
C1027  C461    1.393   1_556 S
C1028  H1036   1.074   .     S
Cu1029 O1044   1.941   .     S
Cu1029 Cu1030  2.690   .     S
Cu1029 O1048   1.919   .     S
Cu1029 N1041   2.021   .     S
Cu1029 O1046   1.956   .     S
Cu1029 O1042   1.961   .     S
Cu1030 O1043   1.956   .     S
Cu1030 N1040   2.021   .     S
Cu1030 O1047   1.961   .     S
Cu1030 O1049   1.941   .     S
Cu1030 O1045   1.919   .     S
H1031  N1040   1.028   .     S
H1037  C1090   1.083   .     S
N1040  N1104   1.286   .     S
C1050  H1056   1.107   .     S
C1050  C1114   1.522   .     S
C1050  H1118   1.111   .     S
C1051  H1052   1.111   .     S
C1051  H1053   1.107   .     S
C1051  H1054   1.109   .     S
C1057  H1062   1.111   .     S
C1057  H1063   1.107   .     S
C1057  C643    1.533   1_565 S
C1057  C680    1.531   1_565 S
C1058  H1060   1.108   .     S
C1058  H1059   1.111   .     S
H1061  C743    1.110   1_565 S
O1064  N1104   1.343   .     S
O1064  C1128   1.404   .     S
C1065  H1067   1.109   .     S
H1066  C1128   1.113   .     S
C1068  H1071   1.109   .     S
C1068  H1070   1.105   .     S
C1068  H1069   1.109   .     S
C1068  C1128   1.523   .     S
C1072  C1082   1.433   .     S
C1072  O1105   1.288   .     A
C1072  O1106   1.294   .     A
C1073  C1074   1.421   .     A
C1073  C508    1.429   1_556 S
C1073  C524    1.418   1_556 S
C1074  C1081   1.420   .     A
C1074  C1078   1.410   .     A
C1075  C1079   1.405   .     A
C1076  C1077   1.392   .     A
C1076  C508    1.417   1_556 S
C1076  C520    1.398   1_556 S
C1077  C1078   1.383   .     A
C1077  H1095   1.084   .     S
C1078  H1101   1.081   .     S
C1079  H1097   1.076   .     S
C1079  C1088   1.403   .     A
C1080  C1113   1.516   .     S
C1080  C1088   1.422   .     A
C1080  C1087   1.399   .     A
C1081  C1089   1.400   .     A
C1081  C1083   1.474   .     S
C1082  C706    1.346   1_565 S
C1082  H724    1.082   1_565 S
C1083  O1107   1.304   .     A
C1083  O1108   1.296   .     A
C1084  C1085   1.447   .     S
C1085  O1109   1.290   .     A
C1085  O1110   1.294   .     A
C1086  O1112   1.300   .     A
C1086  O1111   1.301   .     A
C1086  C1088   1.477   .     S
C1087  H1096   1.085   .     S
C1089  C1090   1.388   .     A
C1089  H1098   1.083   .     S
C1090  C524    1.393   1_556 S
C1091  H1099   1.074   .     S
Cu1092 O1107   1.941   .     S
Cu1092 Cu1093  2.690   .     S
Cu1092 O1111   1.919   .     S
Cu1092 N1104   2.021   .     S
Cu1092 O1109   1.956   .     S
Cu1092 O1105   1.961   .     S
Cu1093 O1106   1.956   .     S
Cu1093 N1103   2.021   .     S
Cu1093 O1110   1.961   .     S
Cu1093 O1112   1.941   .     S
Cu1093 O1108   1.919   .     S
H1094  N1103   1.028   .     S
H1100  C964    1.083   1_655 S
N1103  N978    1.286   1_655 S
C1113  H1119   1.107   .     S
C1113  C988    1.522   1_655 S
C1113  H992    1.111   1_655 S
C1114  H1115   1.111   .     S
C1114  H1116   1.107   .     S
C1114  H1117   1.109   .     S
C1120  H1125   1.111   .     S
C1120  H1126   1.107   .     S
C1120  C706    1.533   1_565 S
C1120  C743    1.531   1_565 S
C1121  H1123   1.108   .     S
C1121  H1122   1.111   .     S
H1124  C617    1.110   1_665 S
O1127  N978    1.343   1_655 S
O1127  C1002   1.404   1_655 S
C1128  H1130   1.109   .     S
H1129  C1002   1.113   1_655 S
C1131  H1134   1.109   .     S
C1131  H1133   1.105   .     S
C1131  H1132   1.109   .     S
C1131  C1002   1.523   1_655 S
