data_str_m2_o1_o17_pcu_sym.14
_audit_creation_date              2020-01-03
_audit_creation_method            'Materials Studio'
_symmetry_space_group_name_H-M    'P1'
_symmetry_Int_Tables_number       1
_symmetry_cell_setting            triclinic
loop_
_symmetry_equiv_pos_as_xyz
  x,y,z
_cell_length_a                    32.5935
_cell_length_b                    28.6209
_cell_length_c                    30.0568
_cell_angle_alpha                 90.0467
_cell_angle_beta                  91.3574
_cell_angle_gamma                 89.6804
loop_
_atom_site_label
_atom_site_type_symbol
_atom_site_fract_x
_atom_site_fract_y
_atom_site_fract_z
_atom_site_U_iso_or_equiv
_atom_site_adp_type
_atom_site_occupancy
O1     O     0.10655   0.20625   0.25000   0.00000  Uiso   1.00
O2     O     0.22679   0.12709   0.25001   0.00000  Uiso   1.00
O3     O     0.22679   0.20625   0.25001   0.00000  Uiso   1.00
O4     O     0.10655   0.12709   0.25000   0.00000  Uiso   1.00
C5     C     0.08751   0.16680   0.25416   0.00000  Uiso   1.00
C6     C     0.24581   0.16654   0.24579   0.00000  Uiso   1.00
O7     O     0.16666   0.20627   0.18513   0.00000  Uiso   1.00
O8     O     0.16668   0.12707   0.31487   0.00000  Uiso   1.00
O9     O     0.16668   0.20627   0.31487   0.00000  Uiso   1.00
O10    O     0.16666   0.12707   0.18513   0.00000  Uiso   1.00
C11    C     0.16660   0.16666   0.16460   0.00000  Uiso   1.00
C12    C     0.16673   0.16668   0.33539   0.00000  Uiso   1.00
Cu13   Cu    0.16667   0.21355   0.25000   0.00000  Uiso   1.00
Cu14   Cu    0.16667   0.11978   0.25000   0.00000  Uiso   1.00
C15    C     0.20423   0.16914   0.40730   0.00000  Uiso   1.00
C16    C     0.12908   0.16422   0.09270   0.00000  Uiso   1.00
C17    C     0.16673   0.16665   0.38363   0.00000  Uiso   1.00
C18    C     0.16659   0.16669   0.11637   0.00000  Uiso   1.00
C19    C     0.12933   0.16523   0.40564   0.00000  Uiso   1.00
C20    C     0.20398   0.16811   0.09435   0.00000  Uiso   1.00
C21    C     0.12991   0.15736   0.45204   0.00000  Uiso   1.00
C22    C     0.20339   0.17601   0.04796   0.00000  Uiso   1.00
C23    C     0.16683   0.16627   0.47655   0.00000  Uiso   1.00
C24    C     0.16647   0.16711   0.02345   0.00000  Uiso   1.00
C25    C     0.20417   0.17375   0.45410   0.00000  Uiso   1.00
C26    C     0.12913   0.15962   0.04590   0.00000  Uiso   1.00
C27    C     0.09511   0.14095   0.47468   0.00000  Uiso   1.00
C28    C     0.23819   0.19243   0.02532   0.00000  Uiso   1.00
C29    C     0.09360   0.14579   0.02126   0.00000  Uiso   1.00
C30    C     0.23969   0.18760   0.47874   0.00000  Uiso   1.00
C31    C     0.02097   0.12416   0.25784   0.00000  Uiso   1.00
C32    C     0.31233   0.20919   0.24202   0.00000  Uiso   1.00
C33    C     0.31292   0.12368   0.24435   0.00000  Uiso   1.00
C34    C     0.02039   0.20969   0.25546   0.00000  Uiso   1.00
C35    C     0.29083   0.16636   0.24180   0.00000  Uiso   1.00
C36    C     0.04248   0.16700   0.25807   0.00000  Uiso   1.00
C37    C     0.14440   0.02509   0.21849   0.00000  Uiso   1.00
C38    C     0.18897   0.30824   0.28148   0.00000  Uiso   1.00
C39    C     0.18887   0.02481   0.28157   0.00000  Uiso   1.00
C40    C     0.14445   0.30852   0.21844   0.00000  Uiso   1.00
N41    N     0.16667   0.28402   0.25000   0.00000  Uiso   1.00
N42    N     0.16667   0.04931   0.25000   0.00000  Uiso   1.00
N43    N     0.24205   0.16796   0.38359   0.00000  Uiso   1.00
H44    H     0.24334   0.13693   0.36528   0.00000  Uiso   1.00
H45    H     0.24251   0.19617   0.36153   0.00000  Uiso   1.00
N46    N     0.09127   0.16539   0.11642   0.00000  Uiso   1.00
H47    H     0.09081   0.13717   0.13847   0.00000  Uiso   1.00
H48    H     0.08997   0.19641   0.13475   0.00000  Uiso   1.00
C49    C     0.09039   0.17893   0.38004   0.00000  Uiso   1.00
H50    H     0.09585   0.21128   0.36082   0.00000  Uiso   1.00
H51    H     0.08114   0.15083   0.35650   0.00000  Uiso   1.00
H52    H     0.06475   0.18765   0.40218   0.00000  Uiso   1.00
C53    C     0.24292   0.15438   0.11993   0.00000  Uiso   1.00
H54    H     0.23745   0.12201   0.13911   0.00000  Uiso   1.00
H55    H     0.26855   0.14568   0.09777   0.00000  Uiso   1.00
H56    H     0.25218   0.18245   0.14350   0.00000  Uiso   1.00
C57    C     0.06194   0.11246   0.45111   0.00000  Uiso   1.00
H58    H     0.07079   0.10114   0.41743   0.00000  Uiso   1.00
H59    H     0.05689   0.07931   0.46919   0.00000  Uiso   1.00
H60    H     0.03267   0.13243   0.44915   0.00000  Uiso   1.00
C61    C     0.27135   0.22091   0.04890   0.00000  Uiso   1.00
H62    H     0.26251   0.23221   0.08259   0.00000  Uiso   1.00
H63    H     0.30063   0.20096   0.05084   0.00000  Uiso   1.00
H64    H     0.27639   0.25408   0.03084   0.00000  Uiso   1.00
N65    N     0.05655   0.13431   0.04376   0.00000  Uiso   1.00
H66    H     0.03203   0.15295   0.02925   0.00000  Uiso   1.00
H67    H     0.05100   0.09851   0.04095   0.00000  Uiso   1.00
N68    N     0.27674   0.19911   0.45623   0.00000  Uiso   1.00
H69    H     0.28228   0.23490   0.45906   0.00000  Uiso   1.00
H70    H     0.30127   0.18047   0.47074   0.00000  Uiso   1.00
C71    C     0.04013   0.07957   0.27644   0.00000  Uiso   1.00
H72    H     0.06320   0.08731   0.30315   0.00000  Uiso   1.00
H73    H     0.01676   0.05753   0.29245   0.00000  Uiso   1.00
H74    H     0.05436   0.05901   0.24962   0.00000  Uiso   1.00
C75    C     0.29314   0.25376   0.22338   0.00000  Uiso   1.00
H76    H     0.27004   0.24599   0.19672   0.00000  Uiso   1.00
H77    H     0.27894   0.27435   0.25019   0.00000  Uiso   1.00
H78    H     0.31649   0.27578   0.20730   0.00000  Uiso   1.00
C79    C     0.29452   0.07797   0.22806   0.00000  Uiso   1.00
H80    H     0.27139   0.08393   0.20099   0.00000  Uiso   1.00
H81    H     0.31828   0.05521   0.21316   0.00000  Uiso   1.00
H82    H     0.28069   0.05891   0.25590   0.00000  Uiso   1.00
C83    C     0.03885   0.25543   0.27158   0.00000  Uiso   1.00
H84    H     0.06172   0.24952   0.29892   0.00000  Uiso   1.00
H85    H     0.05303   0.27414   0.24374   0.00000  Uiso   1.00
H86    H     0.01510   0.27850   0.28604   0.00000  Uiso   1.00
N87    N     0.12124   0.05048   0.18535   0.00000  Uiso   1.00
H88    H     0.09045   0.04082   0.18656   0.00000  Uiso   1.00
H89    H     0.13220   0.04160   0.15404   0.00000  Uiso   1.00
N90    N     0.21221   0.28286   0.31455   0.00000  Uiso   1.00
H91    H     0.24295   0.29272   0.31341   0.00000  Uiso   1.00
H92    H     0.20119   0.29156   0.34588   0.00000  Uiso   1.00
N93    N     0.21156   0.04987   0.31515   0.00000  Uiso   1.00
H94    H     0.24232   0.03953   0.31473   0.00000  Uiso   1.00
H95    H     0.19998   0.04118   0.34621   0.00000  Uiso   1.00
N96    N     0.12180   0.28346   0.18483   0.00000  Uiso   1.00
H97    H     0.09116   0.29421   0.18477   0.00000  Uiso   1.00
H98    H     0.13379   0.29169   0.15387   0.00000  Uiso   1.00
O99    O     0.43988   0.20625   0.25000   0.00000  Uiso   1.00
O100   O     0.56012   0.12709   0.25001   0.00000  Uiso   1.00
O101   O     0.56012   0.20625   0.25001   0.00000  Uiso   1.00
O102   O     0.43988   0.12709   0.25000   0.00000  Uiso   1.00
C103   C     0.42085   0.16680   0.25416   0.00000  Uiso   1.00
C104   C     0.57914   0.16654   0.24579   0.00000  Uiso   1.00
O105   O     0.49999   0.20627   0.18513   0.00000  Uiso   1.00
O106   O     0.50001   0.12707   0.31487   0.00000  Uiso   1.00
O107   O     0.50001   0.20627   0.31487   0.00000  Uiso   1.00
O108   O     0.49999   0.12707   0.18513   0.00000  Uiso   1.00
C109   C     0.49993   0.16666   0.16460   0.00000  Uiso   1.00
C110   C     0.50006   0.16668   0.33539   0.00000  Uiso   1.00
Cu111  Cu    0.50000   0.21355   0.25000   0.00000  Uiso   1.00
Cu112  Cu    0.50000   0.11978   0.25000   0.00000  Uiso   1.00
C113   C     0.53757   0.16914   0.40730   0.00000  Uiso   1.00
C114   C     0.46241   0.16422   0.09270   0.00000  Uiso   1.00
C115   C     0.50006   0.16665   0.38363   0.00000  Uiso   1.00
C116   C     0.49992   0.16669   0.11637   0.00000  Uiso   1.00
C117   C     0.46266   0.16523   0.40564   0.00000  Uiso   1.00
C118   C     0.53731   0.16811   0.09435   0.00000  Uiso   1.00
C119   C     0.46324   0.15736   0.45204   0.00000  Uiso   1.00
C120   C     0.53673   0.17601   0.04796   0.00000  Uiso   1.00
C121   C     0.50016   0.16627   0.47655   0.00000  Uiso   1.00
C122   C     0.49981   0.16711   0.02345   0.00000  Uiso   1.00
C123   C     0.53751   0.17375   0.45410   0.00000  Uiso   1.00
C124   C     0.46246   0.15962   0.04590   0.00000  Uiso   1.00
C125   C     0.42844   0.14095   0.47468   0.00000  Uiso   1.00
C126   C     0.57152   0.19243   0.02532   0.00000  Uiso   1.00
C127   C     0.42694   0.14579   0.02126   0.00000  Uiso   1.00
C128   C     0.57303   0.18760   0.47874   0.00000  Uiso   1.00
C129   C     0.35430   0.12416   0.25784   0.00000  Uiso   1.00
C130   C     0.64566   0.20919   0.24202   0.00000  Uiso   1.00
C131   C     0.64626   0.12368   0.24435   0.00000  Uiso   1.00
C132   C     0.35372   0.20969   0.25546   0.00000  Uiso   1.00
C133   C     0.62416   0.16636   0.24180   0.00000  Uiso   1.00
C134   C     0.37581   0.16700   0.25807   0.00000  Uiso   1.00
C135   C     0.47774   0.02509   0.21849   0.00000  Uiso   1.00
C136   C     0.52230   0.30824   0.28148   0.00000  Uiso   1.00
C137   C     0.52221   0.02481   0.28157   0.00000  Uiso   1.00
C138   C     0.47779   0.30852   0.21844   0.00000  Uiso   1.00
N139   N     0.50000   0.28402   0.25000   0.00000  Uiso   1.00
N140   N     0.50000   0.04931   0.25000   0.00000  Uiso   1.00
N141   N     0.57538   0.16796   0.38359   0.00000  Uiso   1.00
H142   H     0.57668   0.13693   0.36528   0.00000  Uiso   1.00
H143   H     0.57584   0.19617   0.36153   0.00000  Uiso   1.00
N144   N     0.42460   0.16539   0.11642   0.00000  Uiso   1.00
H145   H     0.42414   0.13717   0.13847   0.00000  Uiso   1.00
H146   H     0.42331   0.19641   0.13475   0.00000  Uiso   1.00
C147   C     0.42372   0.17893   0.38004   0.00000  Uiso   1.00
H148   H     0.42918   0.21128   0.36082   0.00000  Uiso   1.00
H149   H     0.41448   0.15083   0.35650   0.00000  Uiso   1.00
H150   H     0.39809   0.18765   0.40218   0.00000  Uiso   1.00
C151   C     0.57626   0.15438   0.11993   0.00000  Uiso   1.00
H152   H     0.57078   0.12201   0.13911   0.00000  Uiso   1.00
H153   H     0.60189   0.14568   0.09777   0.00000  Uiso   1.00
H154   H     0.58551   0.18245   0.14350   0.00000  Uiso   1.00
C155   C     0.39527   0.11246   0.45111   0.00000  Uiso   1.00
H156   H     0.40412   0.10114   0.41743   0.00000  Uiso   1.00
H157   H     0.39022   0.07931   0.46919   0.00000  Uiso   1.00
H158   H     0.36600   0.13243   0.44915   0.00000  Uiso   1.00
C159   C     0.60469   0.22091   0.04890   0.00000  Uiso   1.00
H160   H     0.59584   0.23221   0.08259   0.00000  Uiso   1.00
H161   H     0.63397   0.20096   0.05084   0.00000  Uiso   1.00
H162   H     0.60973   0.25408   0.03084   0.00000  Uiso   1.00
N163   N     0.38988   0.13431   0.04376   0.00000  Uiso   1.00
H164   H     0.36536   0.15295   0.02925   0.00000  Uiso   1.00
H165   H     0.38433   0.09851   0.04095   0.00000  Uiso   1.00
N166   N     0.61008   0.19911   0.45623   0.00000  Uiso   1.00
H167   H     0.61562   0.23490   0.45906   0.00000  Uiso   1.00
H168   H     0.63460   0.18047   0.47074   0.00000  Uiso   1.00
C169   C     0.37347   0.07957   0.27644   0.00000  Uiso   1.00
H170   H     0.39653   0.08731   0.30315   0.00000  Uiso   1.00
H171   H     0.35010   0.05753   0.29245   0.00000  Uiso   1.00
H172   H     0.38770   0.05901   0.24962   0.00000  Uiso   1.00
C173   C     0.62647   0.25376   0.22338   0.00000  Uiso   1.00
H174   H     0.60337   0.24599   0.19672   0.00000  Uiso   1.00
H175   H     0.61227   0.27435   0.25019   0.00000  Uiso   1.00
H176   H     0.64983   0.27578   0.20730   0.00000  Uiso   1.00
C177   C     0.62786   0.07797   0.22806   0.00000  Uiso   1.00
H178   H     0.60472   0.08393   0.20099   0.00000  Uiso   1.00
H179   H     0.65161   0.05521   0.21316   0.00000  Uiso   1.00
H180   H     0.61403   0.05891   0.25590   0.00000  Uiso   1.00
C181   C     0.37218   0.25543   0.27158   0.00000  Uiso   1.00
H182   H     0.39505   0.24952   0.29892   0.00000  Uiso   1.00
H183   H     0.38636   0.27414   0.24374   0.00000  Uiso   1.00
H184   H     0.34843   0.27850   0.28604   0.00000  Uiso   1.00
N185   N     0.45457   0.05048   0.18535   0.00000  Uiso   1.00
H186   H     0.42379   0.04082   0.18656   0.00000  Uiso   1.00
H187   H     0.46553   0.04160   0.15404   0.00000  Uiso   1.00
N188   N     0.54555   0.28286   0.31455   0.00000  Uiso   1.00
H189   H     0.57629   0.29272   0.31341   0.00000  Uiso   1.00
H190   H     0.53452   0.29156   0.34588   0.00000  Uiso   1.00
N191   N     0.54490   0.04987   0.31515   0.00000  Uiso   1.00
H192   H     0.57565   0.03953   0.31473   0.00000  Uiso   1.00
H193   H     0.53331   0.04118   0.34621   0.00000  Uiso   1.00
N194   N     0.45513   0.28346   0.18483   0.00000  Uiso   1.00
H195   H     0.42450   0.29421   0.18477   0.00000  Uiso   1.00
H196   H     0.46712   0.29169   0.15387   0.00000  Uiso   1.00
O197   O     0.77321   0.20625   0.25000   0.00000  Uiso   1.00
O198   O     0.89345   0.12709   0.25001   0.00000  Uiso   1.00
O199   O     0.89345   0.20625   0.25001   0.00000  Uiso   1.00
O200   O     0.77321   0.12709   0.25000   0.00000  Uiso   1.00
C201   C     0.75418   0.16680   0.25416   0.00000  Uiso   1.00
C202   C     0.91248   0.16654   0.24579   0.00000  Uiso   1.00
O203   O     0.83332   0.20627   0.18513   0.00000  Uiso   1.00
O204   O     0.83334   0.12707   0.31487   0.00000  Uiso   1.00
O205   O     0.83334   0.20627   0.31487   0.00000  Uiso   1.00
O206   O     0.83332   0.12707   0.18513   0.00000  Uiso   1.00
C207   C     0.83326   0.16666   0.16460   0.00000  Uiso   1.00
C208   C     0.83340   0.16668   0.33539   0.00000  Uiso   1.00
Cu209  Cu    0.83333   0.21355   0.25000   0.00000  Uiso   1.00
Cu210  Cu    0.83333   0.11978   0.25000   0.00000  Uiso   1.00
C211   C     0.87090   0.16914   0.40730   0.00000  Uiso   1.00
C212   C     0.79574   0.16422   0.09270   0.00000  Uiso   1.00
C213   C     0.83339   0.16665   0.38363   0.00000  Uiso   1.00
C214   C     0.83325   0.16669   0.11637   0.00000  Uiso   1.00
C215   C     0.79600   0.16523   0.40564   0.00000  Uiso   1.00
C216   C     0.87065   0.16811   0.09435   0.00000  Uiso   1.00
C217   C     0.79657   0.15736   0.45204   0.00000  Uiso   1.00
C218   C     0.87006   0.17601   0.04796   0.00000  Uiso   1.00
C219   C     0.83349   0.16627   0.47655   0.00000  Uiso   1.00
C220   C     0.83314   0.16711   0.02345   0.00000  Uiso   1.00
C221   C     0.87084   0.17375   0.45410   0.00000  Uiso   1.00
C222   C     0.79579   0.15962   0.04590   0.00000  Uiso   1.00
C223   C     0.76178   0.14095   0.47468   0.00000  Uiso   1.00
C224   C     0.90485   0.19243   0.02532   0.00000  Uiso   1.00
C225   C     0.76027   0.14579   0.02126   0.00000  Uiso   1.00
C226   C     0.90636   0.18760   0.47874   0.00000  Uiso   1.00
C227   C     0.68764   0.12416   0.25784   0.00000  Uiso   1.00
C228   C     0.97900   0.20919   0.24202   0.00000  Uiso   1.00
C229   C     0.97959   0.12368   0.24435   0.00000  Uiso   1.00
C230   C     0.68706   0.20969   0.25546   0.00000  Uiso   1.00
C231   C     0.95750   0.16636   0.24180   0.00000  Uiso   1.00
C232   C     0.70915   0.16700   0.25807   0.00000  Uiso   1.00
C233   C     0.81107   0.02509   0.21849   0.00000  Uiso   1.00
C234   C     0.85563   0.30824   0.28148   0.00000  Uiso   1.00
C235   C     0.85554   0.02481   0.28157   0.00000  Uiso   1.00
C236   C     0.81112   0.30852   0.21844   0.00000  Uiso   1.00
N237   N     0.83333   0.28402   0.25000   0.00000  Uiso   1.00
N238   N     0.83333   0.04931   0.25000   0.00000  Uiso   1.00
N239   N     0.90871   0.16796   0.38359   0.00000  Uiso   1.00
H240   H     0.91001   0.13693   0.36528   0.00000  Uiso   1.00
H241   H     0.90918   0.19617   0.36153   0.00000  Uiso   1.00
N242   N     0.75794   0.16539   0.11642   0.00000  Uiso   1.00
H243   H     0.75747   0.13717   0.13847   0.00000  Uiso   1.00
H244   H     0.75664   0.19641   0.13475   0.00000  Uiso   1.00
C245   C     0.75705   0.17893   0.38004   0.00000  Uiso   1.00
H246   H     0.76252   0.21128   0.36082   0.00000  Uiso   1.00
H247   H     0.74781   0.15083   0.35650   0.00000  Uiso   1.00
H248   H     0.73142   0.18765   0.40218   0.00000  Uiso   1.00
C249   C     0.90959   0.15438   0.11993   0.00000  Uiso   1.00
H250   H     0.90412   0.12201   0.13911   0.00000  Uiso   1.00
H251   H     0.93522   0.14568   0.09777   0.00000  Uiso   1.00
H252   H     0.91884   0.18245   0.14350   0.00000  Uiso   1.00
C253   C     0.72861   0.11246   0.45111   0.00000  Uiso   1.00
H254   H     0.73746   0.10114   0.41743   0.00000  Uiso   1.00
H255   H     0.72356   0.07931   0.46919   0.00000  Uiso   1.00
H256   H     0.69934   0.13243   0.44915   0.00000  Uiso   1.00
C257   C     0.93802   0.22091   0.04890   0.00000  Uiso   1.00
H258   H     0.92918   0.23221   0.08259   0.00000  Uiso   1.00
H259   H     0.96730   0.20096   0.05084   0.00000  Uiso   1.00
H260   H     0.94306   0.25408   0.03084   0.00000  Uiso   1.00
N261   N     0.72322   0.13431   0.04376   0.00000  Uiso   1.00
H262   H     0.69870   0.15295   0.02925   0.00000  Uiso   1.00
H263   H     0.71766   0.09851   0.04095   0.00000  Uiso   1.00
N264   N     0.94341   0.19911   0.45623   0.00000  Uiso   1.00
H265   H     0.94895   0.23490   0.45906   0.00000  Uiso   1.00
H266   H     0.96793   0.18047   0.47074   0.00000  Uiso   1.00
C267   C     0.70680   0.07957   0.27644   0.00000  Uiso   1.00
H268   H     0.72986   0.08731   0.30315   0.00000  Uiso   1.00
H269   H     0.68343   0.05753   0.29245   0.00000  Uiso   1.00
H270   H     0.72103   0.05901   0.24962   0.00000  Uiso   1.00
C271   C     0.95981   0.25376   0.22338   0.00000  Uiso   1.00
H272   H     0.93670   0.24599   0.19672   0.00000  Uiso   1.00
H273   H     0.94561   0.27435   0.25019   0.00000  Uiso   1.00
H274   H     0.98316   0.27578   0.20730   0.00000  Uiso   1.00
C275   C     0.96119   0.07797   0.22806   0.00000  Uiso   1.00
H276   H     0.93805   0.08393   0.20099   0.00000  Uiso   1.00
H277   H     0.98495   0.05521   0.21316   0.00000  Uiso   1.00
H278   H     0.94736   0.05891   0.25590   0.00000  Uiso   1.00
C279   C     0.70551   0.25543   0.27158   0.00000  Uiso   1.00
H280   H     0.72839   0.24952   0.29892   0.00000  Uiso   1.00
H281   H     0.71970   0.27414   0.24374   0.00000  Uiso   1.00
H282   H     0.68176   0.27850   0.28604   0.00000  Uiso   1.00
N283   N     0.78790   0.05048   0.18535   0.00000  Uiso   1.00
H284   H     0.75712   0.04082   0.18656   0.00000  Uiso   1.00
H285   H     0.79886   0.04160   0.15404   0.00000  Uiso   1.00
N286   N     0.87888   0.28286   0.31455   0.00000  Uiso   1.00
H287   H     0.90962   0.29272   0.31341   0.00000  Uiso   1.00
H288   H     0.86786   0.29156   0.34588   0.00000  Uiso   1.00
N289   N     0.87823   0.04987   0.31515   0.00000  Uiso   1.00
H290   H     0.90899   0.03953   0.31473   0.00000  Uiso   1.00
H291   H     0.86665   0.04118   0.34621   0.00000  Uiso   1.00
N292   N     0.78847   0.28346   0.18483   0.00000  Uiso   1.00
H293   H     0.75783   0.29421   0.18477   0.00000  Uiso   1.00
H294   H     0.80045   0.29169   0.15387   0.00000  Uiso   1.00
O295   O     0.10655   0.53958   0.25000   0.00000  Uiso   1.00
O296   O     0.22679   0.46042   0.25001   0.00000  Uiso   1.00
O297   O     0.22679   0.53958   0.25001   0.00000  Uiso   1.00
O298   O     0.10655   0.46042   0.25000   0.00000  Uiso   1.00
C299   C     0.08751   0.50013   0.25416   0.00000  Uiso   1.00
C300   C     0.24581   0.49987   0.24579   0.00000  Uiso   1.00
O301   O     0.16666   0.53960   0.18513   0.00000  Uiso   1.00
O302   O     0.16668   0.46040   0.31487   0.00000  Uiso   1.00
O303   O     0.16668   0.53960   0.31487   0.00000  Uiso   1.00
O304   O     0.16666   0.46040   0.18513   0.00000  Uiso   1.00
C305   C     0.16660   0.49999   0.16460   0.00000  Uiso   1.00
C306   C     0.16673   0.50001   0.33539   0.00000  Uiso   1.00
Cu307  Cu    0.16667   0.54689   0.25000   0.00000  Uiso   1.00
Cu308  Cu    0.16667   0.45311   0.25000   0.00000  Uiso   1.00
C309   C     0.20423   0.50247   0.40730   0.00000  Uiso   1.00
C310   C     0.12908   0.49755   0.09270   0.00000  Uiso   1.00
C311   C     0.16673   0.49998   0.38363   0.00000  Uiso   1.00
C312   C     0.16659   0.50002   0.11637   0.00000  Uiso   1.00
C313   C     0.12933   0.49856   0.40564   0.00000  Uiso   1.00
C314   C     0.20398   0.50145   0.09435   0.00000  Uiso   1.00
C315   C     0.12991   0.49069   0.45204   0.00000  Uiso   1.00
C316   C     0.20339   0.50934   0.04796   0.00000  Uiso   1.00
C317   C     0.16683   0.49960   0.47655   0.00000  Uiso   1.00
C318   C     0.16647   0.50044   0.02345   0.00000  Uiso   1.00
C319   C     0.20417   0.50709   0.45410   0.00000  Uiso   1.00
C320   C     0.12913   0.49296   0.04590   0.00000  Uiso   1.00
C321   C     0.09511   0.47428   0.47468   0.00000  Uiso   1.00
C322   C     0.23819   0.52576   0.02532   0.00000  Uiso   1.00
C323   C     0.09360   0.47913   0.02126   0.00000  Uiso   1.00
C324   C     0.23969   0.52093   0.47874   0.00000  Uiso   1.00
C325   C     0.02097   0.45750   0.25784   0.00000  Uiso   1.00
C326   C     0.31233   0.54253   0.24202   0.00000  Uiso   1.00
C327   C     0.31292   0.45701   0.24435   0.00000  Uiso   1.00
C328   C     0.02039   0.54302   0.25546   0.00000  Uiso   1.00
C329   C     0.29083   0.49969   0.24180   0.00000  Uiso   1.00
C330   C     0.04248   0.50033   0.25807   0.00000  Uiso   1.00
C331   C     0.14440   0.35842   0.21849   0.00000  Uiso   1.00
C332   C     0.18897   0.64158   0.28148   0.00000  Uiso   1.00
C333   C     0.18887   0.35815   0.28157   0.00000  Uiso   1.00
C334   C     0.14445   0.64185   0.21844   0.00000  Uiso   1.00
N335   N     0.16667   0.61736   0.25000   0.00000  Uiso   1.00
N336   N     0.16667   0.38264   0.25000   0.00000  Uiso   1.00
N337   N     0.24205   0.50129   0.38359   0.00000  Uiso   1.00
H338   H     0.24334   0.47026   0.36528   0.00000  Uiso   1.00
H339   H     0.24251   0.52950   0.36153   0.00000  Uiso   1.00
N340   N     0.09127   0.49872   0.11642   0.00000  Uiso   1.00
H341   H     0.09081   0.47050   0.13847   0.00000  Uiso   1.00
H342   H     0.08997   0.52974   0.13475   0.00000  Uiso   1.00
C343   C     0.09039   0.51227   0.38004   0.00000  Uiso   1.00
H344   H     0.09585   0.54462   0.36082   0.00000  Uiso   1.00
H345   H     0.08114   0.48416   0.35650   0.00000  Uiso   1.00
H346   H     0.06475   0.52099   0.40218   0.00000  Uiso   1.00
C347   C     0.24292   0.48771   0.11993   0.00000  Uiso   1.00
H348   H     0.23745   0.45534   0.13911   0.00000  Uiso   1.00
H349   H     0.26855   0.47901   0.09777   0.00000  Uiso   1.00
H350   H     0.25218   0.51579   0.14350   0.00000  Uiso   1.00
C351   C     0.06194   0.44580   0.45111   0.00000  Uiso   1.00
H352   H     0.07079   0.43447   0.41743   0.00000  Uiso   1.00
H353   H     0.05689   0.41264   0.46919   0.00000  Uiso   1.00
H354   H     0.03267   0.46576   0.44915   0.00000  Uiso   1.00
C355   C     0.27135   0.55425   0.04890   0.00000  Uiso   1.00
H356   H     0.26251   0.56555   0.08259   0.00000  Uiso   1.00
H357   H     0.30063   0.53429   0.05084   0.00000  Uiso   1.00
H358   H     0.27639   0.58742   0.03084   0.00000  Uiso   1.00
N359   N     0.05655   0.46764   0.04376   0.00000  Uiso   1.00
H360   H     0.03203   0.48629   0.02925   0.00000  Uiso   1.00
H361   H     0.05100   0.43185   0.04095   0.00000  Uiso   1.00
N362   N     0.27674   0.53244   0.45623   0.00000  Uiso   1.00
H363   H     0.28228   0.56824   0.45906   0.00000  Uiso   1.00
H364   H     0.30127   0.51380   0.47074   0.00000  Uiso   1.00
C365   C     0.04013   0.41290   0.27644   0.00000  Uiso   1.00
H366   H     0.06320   0.42064   0.30315   0.00000  Uiso   1.00
H367   H     0.01676   0.39086   0.29245   0.00000  Uiso   1.00
H368   H     0.05436   0.39235   0.24962   0.00000  Uiso   1.00
C369   C     0.29314   0.58709   0.22338   0.00000  Uiso   1.00
H370   H     0.27004   0.57932   0.19672   0.00000  Uiso   1.00
H371   H     0.27894   0.60769   0.25019   0.00000  Uiso   1.00
H372   H     0.31649   0.60911   0.20730   0.00000  Uiso   1.00
C373   C     0.29452   0.41131   0.22806   0.00000  Uiso   1.00
H374   H     0.27139   0.41727   0.20099   0.00000  Uiso   1.00
H375   H     0.31828   0.38855   0.21316   0.00000  Uiso   1.00
H376   H     0.28069   0.39224   0.25590   0.00000  Uiso   1.00
C377   C     0.03885   0.58876   0.27158   0.00000  Uiso   1.00
H378   H     0.06172   0.58286   0.29892   0.00000  Uiso   1.00
H379   H     0.05303   0.60747   0.24374   0.00000  Uiso   1.00
H380   H     0.01510   0.61183   0.28604   0.00000  Uiso   1.00
N381   N     0.12124   0.38381   0.18535   0.00000  Uiso   1.00
H382   H     0.09045   0.37415   0.18656   0.00000  Uiso   1.00
H383   H     0.13220   0.37493   0.15404   0.00000  Uiso   1.00
N384   N     0.21221   0.61619   0.31455   0.00000  Uiso   1.00
H385   H     0.24295   0.62605   0.31341   0.00000  Uiso   1.00
H386   H     0.20119   0.62489   0.34588   0.00000  Uiso   1.00
N387   N     0.21156   0.38321   0.31515   0.00000  Uiso   1.00
H388   H     0.24232   0.37286   0.31473   0.00000  Uiso   1.00
H389   H     0.19998   0.37451   0.34621   0.00000  Uiso   1.00
N390   N     0.12180   0.61679   0.18483   0.00000  Uiso   1.00
H391   H     0.09116   0.62754   0.18477   0.00000  Uiso   1.00
H392   H     0.13379   0.62502   0.15387   0.00000  Uiso   1.00
O393   O     0.43988   0.53958   0.25000   0.00000  Uiso   1.00
O394   O     0.56012   0.46042   0.25001   0.00000  Uiso   1.00
O395   O     0.56012   0.53958   0.25001   0.00000  Uiso   1.00
O396   O     0.43988   0.46042   0.25000   0.00000  Uiso   1.00
C397   C     0.42085   0.50013   0.25416   0.00000  Uiso   1.00
C398   C     0.57914   0.49987   0.24579   0.00000  Uiso   1.00
O399   O     0.49999   0.53960   0.18513   0.00000  Uiso   1.00
O400   O     0.50001   0.46040   0.31487   0.00000  Uiso   1.00
O401   O     0.50001   0.53960   0.31487   0.00000  Uiso   1.00
O402   O     0.49999   0.46040   0.18513   0.00000  Uiso   1.00
C403   C     0.49993   0.49999   0.16460   0.00000  Uiso   1.00
C404   C     0.50006   0.50001   0.33539   0.00000  Uiso   1.00
Cu405  Cu    0.50000   0.54689   0.25000   0.00000  Uiso   1.00
Cu406  Cu    0.50000   0.45311   0.25000   0.00000  Uiso   1.00
C407   C     0.53757   0.50247   0.40730   0.00000  Uiso   1.00
C408   C     0.46241   0.49755   0.09270   0.00000  Uiso   1.00
C409   C     0.50006   0.49998   0.38363   0.00000  Uiso   1.00
C410   C     0.49992   0.50002   0.11637   0.00000  Uiso   1.00
C411   C     0.46266   0.49856   0.40564   0.00000  Uiso   1.00
C412   C     0.53731   0.50145   0.09435   0.00000  Uiso   1.00
C413   C     0.46324   0.49069   0.45204   0.00000  Uiso   1.00
C414   C     0.53673   0.50934   0.04796   0.00000  Uiso   1.00
C415   C     0.50016   0.49960   0.47655   0.00000  Uiso   1.00
C416   C     0.49981   0.50044   0.02345   0.00000  Uiso   1.00
C417   C     0.53751   0.50709   0.45410   0.00000  Uiso   1.00
C418   C     0.46246   0.49296   0.04590   0.00000  Uiso   1.00
C419   C     0.42844   0.47428   0.47468   0.00000  Uiso   1.00
C420   C     0.57152   0.52576   0.02532   0.00000  Uiso   1.00
C421   C     0.42694   0.47913   0.02126   0.00000  Uiso   1.00
C422   C     0.57303   0.52093   0.47874   0.00000  Uiso   1.00
C423   C     0.35430   0.45750   0.25784   0.00000  Uiso   1.00
C424   C     0.64566   0.54253   0.24202   0.00000  Uiso   1.00
C425   C     0.64626   0.45701   0.24435   0.00000  Uiso   1.00
C426   C     0.35372   0.54302   0.25546   0.00000  Uiso   1.00
C427   C     0.62416   0.49969   0.24180   0.00000  Uiso   1.00
C428   C     0.37581   0.50033   0.25807   0.00000  Uiso   1.00
C429   C     0.47774   0.35842   0.21849   0.00000  Uiso   1.00
C430   C     0.52230   0.64158   0.28148   0.00000  Uiso   1.00
C431   C     0.52221   0.35815   0.28157   0.00000  Uiso   1.00
C432   C     0.47779   0.64185   0.21844   0.00000  Uiso   1.00
N433   N     0.50000   0.61736   0.25000   0.00000  Uiso   1.00
N434   N     0.50000   0.38264   0.25000   0.00000  Uiso   1.00
N435   N     0.57538   0.50129   0.38359   0.00000  Uiso   1.00
H436   H     0.57668   0.47026   0.36528   0.00000  Uiso   1.00
H437   H     0.57584   0.52950   0.36153   0.00000  Uiso   1.00
N438   N     0.42460   0.49872   0.11642   0.00000  Uiso   1.00
H439   H     0.42414   0.47050   0.13847   0.00000  Uiso   1.00
H440   H     0.42331   0.52974   0.13475   0.00000  Uiso   1.00
C441   C     0.42372   0.51227   0.38004   0.00000  Uiso   1.00
H442   H     0.42918   0.54462   0.36082   0.00000  Uiso   1.00
H443   H     0.41448   0.48416   0.35650   0.00000  Uiso   1.00
H444   H     0.39809   0.52099   0.40218   0.00000  Uiso   1.00
C445   C     0.57626   0.48771   0.11993   0.00000  Uiso   1.00
H446   H     0.57078   0.45534   0.13911   0.00000  Uiso   1.00
H447   H     0.60189   0.47901   0.09777   0.00000  Uiso   1.00
H448   H     0.58551   0.51579   0.14350   0.00000  Uiso   1.00
C449   C     0.39527   0.44580   0.45111   0.00000  Uiso   1.00
H450   H     0.40412   0.43447   0.41743   0.00000  Uiso   1.00
H451   H     0.39022   0.41264   0.46919   0.00000  Uiso   1.00
H452   H     0.36600   0.46576   0.44915   0.00000  Uiso   1.00
C453   C     0.60469   0.55425   0.04890   0.00000  Uiso   1.00
H454   H     0.59584   0.56555   0.08259   0.00000  Uiso   1.00
H455   H     0.63397   0.53429   0.05084   0.00000  Uiso   1.00
H456   H     0.60973   0.58742   0.03084   0.00000  Uiso   1.00
N457   N     0.38988   0.46764   0.04376   0.00000  Uiso   1.00
H458   H     0.36536   0.48629   0.02925   0.00000  Uiso   1.00
H459   H     0.38433   0.43185   0.04095   0.00000  Uiso   1.00
N460   N     0.61008   0.53244   0.45623   0.00000  Uiso   1.00
H461   H     0.61562   0.56824   0.45906   0.00000  Uiso   1.00
H462   H     0.63460   0.51380   0.47074   0.00000  Uiso   1.00
C463   C     0.37347   0.41290   0.27644   0.00000  Uiso   1.00
H464   H     0.39653   0.42064   0.30315   0.00000  Uiso   1.00
H465   H     0.35010   0.39086   0.29245   0.00000  Uiso   1.00
H466   H     0.38770   0.39235   0.24962   0.00000  Uiso   1.00
C467   C     0.62647   0.58709   0.22338   0.00000  Uiso   1.00
H468   H     0.60337   0.57932   0.19672   0.00000  Uiso   1.00
H469   H     0.61227   0.60769   0.25019   0.00000  Uiso   1.00
H470   H     0.64983   0.60911   0.20730   0.00000  Uiso   1.00
C471   C     0.62786   0.41131   0.22806   0.00000  Uiso   1.00
H472   H     0.60472   0.41727   0.20099   0.00000  Uiso   1.00
H473   H     0.65161   0.38855   0.21316   0.00000  Uiso   1.00
H474   H     0.61403   0.39224   0.25590   0.00000  Uiso   1.00
C475   C     0.37218   0.58876   0.27158   0.00000  Uiso   1.00
H476   H     0.39505   0.58286   0.29892   0.00000  Uiso   1.00
H477   H     0.38636   0.60747   0.24374   0.00000  Uiso   1.00
H478   H     0.34843   0.61183   0.28604   0.00000  Uiso   1.00
N479   N     0.45457   0.38381   0.18535   0.00000  Uiso   1.00
H480   H     0.42379   0.37415   0.18656   0.00000  Uiso   1.00
H481   H     0.46553   0.37493   0.15404   0.00000  Uiso   1.00
N482   N     0.54555   0.61619   0.31455   0.00000  Uiso   1.00
H483   H     0.57629   0.62605   0.31341   0.00000  Uiso   1.00
H484   H     0.53452   0.62489   0.34588   0.00000  Uiso   1.00
N485   N     0.54490   0.38321   0.31515   0.00000  Uiso   1.00
H486   H     0.57565   0.37286   0.31473   0.00000  Uiso   1.00
H487   H     0.53331   0.37451   0.34621   0.00000  Uiso   1.00
N488   N     0.45513   0.61679   0.18483   0.00000  Uiso   1.00
H489   H     0.42450   0.62754   0.18477   0.00000  Uiso   1.00
H490   H     0.46712   0.62502   0.15387   0.00000  Uiso   1.00
O491   O     0.77321   0.53958   0.25000   0.00000  Uiso   1.00
O492   O     0.89345   0.46042   0.25001   0.00000  Uiso   1.00
O493   O     0.89345   0.53958   0.25001   0.00000  Uiso   1.00
O494   O     0.77321   0.46042   0.25000   0.00000  Uiso   1.00
C495   C     0.75418   0.50013   0.25416   0.00000  Uiso   1.00
C496   C     0.91248   0.49987   0.24579   0.00000  Uiso   1.00
O497   O     0.83332   0.53960   0.18513   0.00000  Uiso   1.00
O498   O     0.83334   0.46040   0.31487   0.00000  Uiso   1.00
O499   O     0.83334   0.53960   0.31487   0.00000  Uiso   1.00
O500   O     0.83332   0.46040   0.18513   0.00000  Uiso   1.00
C501   C     0.83326   0.49999   0.16460   0.00000  Uiso   1.00
C502   C     0.83340   0.50001   0.33539   0.00000  Uiso   1.00
Cu503  Cu    0.83333   0.54689   0.25000   0.00000  Uiso   1.00
Cu504  Cu    0.83333   0.45311   0.25000   0.00000  Uiso   1.00
C505   C     0.87090   0.50247   0.40730   0.00000  Uiso   1.00
C506   C     0.79574   0.49755   0.09270   0.00000  Uiso   1.00
C507   C     0.83339   0.49998   0.38363   0.00000  Uiso   1.00
C508   C     0.83325   0.50002   0.11637   0.00000  Uiso   1.00
C509   C     0.79600   0.49856   0.40564   0.00000  Uiso   1.00
C510   C     0.87065   0.50145   0.09435   0.00000  Uiso   1.00
C511   C     0.79657   0.49069   0.45204   0.00000  Uiso   1.00
C512   C     0.87006   0.50934   0.04796   0.00000  Uiso   1.00
C513   C     0.83349   0.49960   0.47655   0.00000  Uiso   1.00
C514   C     0.83314   0.50044   0.02345   0.00000  Uiso   1.00
C515   C     0.87084   0.50709   0.45410   0.00000  Uiso   1.00
C516   C     0.79579   0.49296   0.04590   0.00000  Uiso   1.00
C517   C     0.76178   0.47428   0.47468   0.00000  Uiso   1.00
C518   C     0.90485   0.52576   0.02532   0.00000  Uiso   1.00
C519   C     0.76027   0.47913   0.02126   0.00000  Uiso   1.00
C520   C     0.90636   0.52093   0.47874   0.00000  Uiso   1.00
C521   C     0.68764   0.45750   0.25784   0.00000  Uiso   1.00
C522   C     0.97900   0.54253   0.24202   0.00000  Uiso   1.00
C523   C     0.97959   0.45701   0.24435   0.00000  Uiso   1.00
C524   C     0.68706   0.54302   0.25546   0.00000  Uiso   1.00
C525   C     0.95750   0.49969   0.24180   0.00000  Uiso   1.00
C526   C     0.70915   0.50033   0.25807   0.00000  Uiso   1.00
C527   C     0.81107   0.35842   0.21849   0.00000  Uiso   1.00
C528   C     0.85563   0.64158   0.28148   0.00000  Uiso   1.00
C529   C     0.85554   0.35815   0.28157   0.00000  Uiso   1.00
C530   C     0.81112   0.64185   0.21844   0.00000  Uiso   1.00
N531   N     0.83333   0.61736   0.25000   0.00000  Uiso   1.00
N532   N     0.83333   0.38264   0.25000   0.00000  Uiso   1.00
N533   N     0.90871   0.50129   0.38359   0.00000  Uiso   1.00
H534   H     0.91001   0.47026   0.36528   0.00000  Uiso   1.00
H535   H     0.90918   0.52950   0.36153   0.00000  Uiso   1.00
N536   N     0.75794   0.49872   0.11642   0.00000  Uiso   1.00
H537   H     0.75747   0.47050   0.13847   0.00000  Uiso   1.00
H538   H     0.75664   0.52974   0.13475   0.00000  Uiso   1.00
C539   C     0.75705   0.51227   0.38004   0.00000  Uiso   1.00
H540   H     0.76252   0.54462   0.36082   0.00000  Uiso   1.00
H541   H     0.74781   0.48416   0.35650   0.00000  Uiso   1.00
H542   H     0.73142   0.52099   0.40218   0.00000  Uiso   1.00
C543   C     0.90959   0.48771   0.11993   0.00000  Uiso   1.00
H544   H     0.90412   0.45534   0.13911   0.00000  Uiso   1.00
H545   H     0.93522   0.47901   0.09777   0.00000  Uiso   1.00
H546   H     0.91884   0.51579   0.14350   0.00000  Uiso   1.00
C547   C     0.72861   0.44580   0.45111   0.00000  Uiso   1.00
H548   H     0.73746   0.43447   0.41743   0.00000  Uiso   1.00
H549   H     0.72356   0.41264   0.46919   0.00000  Uiso   1.00
H550   H     0.69934   0.46576   0.44915   0.00000  Uiso   1.00
C551   C     0.93802   0.55425   0.04890   0.00000  Uiso   1.00
H552   H     0.92918   0.56555   0.08259   0.00000  Uiso   1.00
H553   H     0.96730   0.53429   0.05084   0.00000  Uiso   1.00
H554   H     0.94306   0.58742   0.03084   0.00000  Uiso   1.00
N555   N     0.72322   0.46764   0.04376   0.00000  Uiso   1.00
H556   H     0.69870   0.48629   0.02925   0.00000  Uiso   1.00
H557   H     0.71766   0.43185   0.04095   0.00000  Uiso   1.00
N558   N     0.94341   0.53244   0.45623   0.00000  Uiso   1.00
H559   H     0.94895   0.56824   0.45906   0.00000  Uiso   1.00
H560   H     0.96793   0.51380   0.47074   0.00000  Uiso   1.00
C561   C     0.70680   0.41290   0.27644   0.00000  Uiso   1.00
H562   H     0.72986   0.42064   0.30315   0.00000  Uiso   1.00
H563   H     0.68343   0.39086   0.29245   0.00000  Uiso   1.00
H564   H     0.72103   0.39235   0.24962   0.00000  Uiso   1.00
C565   C     0.95981   0.58709   0.22338   0.00000  Uiso   1.00
H566   H     0.93670   0.57932   0.19672   0.00000  Uiso   1.00
H567   H     0.94561   0.60769   0.25019   0.00000  Uiso   1.00
H568   H     0.98316   0.60911   0.20730   0.00000  Uiso   1.00
C569   C     0.96119   0.41131   0.22806   0.00000  Uiso   1.00
H570   H     0.93805   0.41727   0.20099   0.00000  Uiso   1.00
H571   H     0.98495   0.38855   0.21316   0.00000  Uiso   1.00
H572   H     0.94736   0.39224   0.25590   0.00000  Uiso   1.00
C573   C     0.70551   0.58876   0.27158   0.00000  Uiso   1.00
H574   H     0.72839   0.58286   0.29892   0.00000  Uiso   1.00
H575   H     0.71970   0.60747   0.24374   0.00000  Uiso   1.00
H576   H     0.68176   0.61183   0.28604   0.00000  Uiso   1.00
N577   N     0.78790   0.38381   0.18535   0.00000  Uiso   1.00
H578   H     0.75712   0.37415   0.18656   0.00000  Uiso   1.00
H579   H     0.79886   0.37493   0.15404   0.00000  Uiso   1.00
N580   N     0.87888   0.61619   0.31455   0.00000  Uiso   1.00
H581   H     0.90962   0.62605   0.31341   0.00000  Uiso   1.00
H582   H     0.86786   0.62489   0.34588   0.00000  Uiso   1.00
N583   N     0.87823   0.38321   0.31515   0.00000  Uiso   1.00
H584   H     0.90899   0.37286   0.31473   0.00000  Uiso   1.00
H585   H     0.86665   0.37451   0.34621   0.00000  Uiso   1.00
N586   N     0.78847   0.61679   0.18483   0.00000  Uiso   1.00
H587   H     0.75783   0.62754   0.18477   0.00000  Uiso   1.00
H588   H     0.80045   0.62502   0.15387   0.00000  Uiso   1.00
O589   O     0.10655   0.87291   0.25000   0.00000  Uiso   1.00
O590   O     0.22679   0.79375   0.25001   0.00000  Uiso   1.00
O591   O     0.22679   0.87291   0.25001   0.00000  Uiso   1.00
O592   O     0.10655   0.79375   0.25000   0.00000  Uiso   1.00
C593   C     0.08751   0.83346   0.25416   0.00000  Uiso   1.00
C594   C     0.24581   0.83321   0.24579   0.00000  Uiso   1.00
O595   O     0.16666   0.87293   0.18513   0.00000  Uiso   1.00
O596   O     0.16668   0.79373   0.31487   0.00000  Uiso   1.00
O597   O     0.16668   0.87293   0.31487   0.00000  Uiso   1.00
O598   O     0.16666   0.79373   0.18513   0.00000  Uiso   1.00
C599   C     0.16660   0.83332   0.16460   0.00000  Uiso   1.00
C600   C     0.16673   0.83334   0.33539   0.00000  Uiso   1.00
Cu601  Cu    0.16667   0.88022   0.25000   0.00000  Uiso   1.00
Cu602  Cu    0.16667   0.78645   0.25000   0.00000  Uiso   1.00
C603   C     0.20423   0.83580   0.40730   0.00000  Uiso   1.00
C604   C     0.12908   0.83089   0.09270   0.00000  Uiso   1.00
C605   C     0.16673   0.83331   0.38363   0.00000  Uiso   1.00
C606   C     0.16659   0.83336   0.11637   0.00000  Uiso   1.00
C607   C     0.12933   0.83190   0.40564   0.00000  Uiso   1.00
C608   C     0.20398   0.83478   0.09435   0.00000  Uiso   1.00
C609   C     0.12991   0.82403   0.45204   0.00000  Uiso   1.00
C610   C     0.20339   0.84267   0.04796   0.00000  Uiso   1.00
C611   C     0.16683   0.83293   0.47655   0.00000  Uiso   1.00
C612   C     0.16647   0.83378   0.02345   0.00000  Uiso   1.00
C613   C     0.20417   0.84042   0.45410   0.00000  Uiso   1.00
C614   C     0.12913   0.82629   0.04590   0.00000  Uiso   1.00
C615   C     0.09511   0.80762   0.47468   0.00000  Uiso   1.00
C616   C     0.23819   0.85910   0.02532   0.00000  Uiso   1.00
C617   C     0.09360   0.81246   0.02126   0.00000  Uiso   1.00
C618   C     0.23969   0.85426   0.47874   0.00000  Uiso   1.00
C619   C     0.02097   0.79083   0.25784   0.00000  Uiso   1.00
C620   C     0.31233   0.87586   0.24202   0.00000  Uiso   1.00
C621   C     0.31292   0.79034   0.24435   0.00000  Uiso   1.00
C622   C     0.02039   0.87636   0.25546   0.00000  Uiso   1.00
C623   C     0.29083   0.83302   0.24180   0.00000  Uiso   1.00
C624   C     0.04248   0.83366   0.25807   0.00000  Uiso   1.00
C625   C     0.14440   0.69176   0.21849   0.00000  Uiso   1.00
C626   C     0.18897   0.97491   0.28148   0.00000  Uiso   1.00
C627   C     0.18887   0.69148   0.28157   0.00000  Uiso   1.00
C628   C     0.14445   0.97519   0.21844   0.00000  Uiso   1.00
N629   N     0.16667   0.95069   0.25000   0.00000  Uiso   1.00
N630   N     0.16667   0.71598   0.25000   0.00000  Uiso   1.00
N631   N     0.24205   0.83463   0.38359   0.00000  Uiso   1.00
H632   H     0.24334   0.80360   0.36528   0.00000  Uiso   1.00
H633   H     0.24251   0.86283   0.36153   0.00000  Uiso   1.00
N634   N     0.09127   0.83205   0.11642   0.00000  Uiso   1.00
H635   H     0.09081   0.80384   0.13847   0.00000  Uiso   1.00
H636   H     0.08997   0.86308   0.13475   0.00000  Uiso   1.00
C637   C     0.09039   0.84560   0.38004   0.00000  Uiso   1.00
H638   H     0.09585   0.87795   0.36082   0.00000  Uiso   1.00
H639   H     0.08114   0.81749   0.35650   0.00000  Uiso   1.00
H640   H     0.06475   0.85432   0.40218   0.00000  Uiso   1.00
C641   C     0.24292   0.82104   0.11993   0.00000  Uiso   1.00
H642   H     0.23745   0.78867   0.13911   0.00000  Uiso   1.00
H643   H     0.26855   0.81235   0.09777   0.00000  Uiso   1.00
H644   H     0.25218   0.84912   0.14350   0.00000  Uiso   1.00
C645   C     0.06194   0.77913   0.45111   0.00000  Uiso   1.00
H646   H     0.07079   0.76780   0.41743   0.00000  Uiso   1.00
H647   H     0.05689   0.74597   0.46919   0.00000  Uiso   1.00
H648   H     0.03267   0.79909   0.44915   0.00000  Uiso   1.00
C649   C     0.27135   0.88758   0.04890   0.00000  Uiso   1.00
H650   H     0.26251   0.89888   0.08259   0.00000  Uiso   1.00
H651   H     0.30063   0.86762   0.05084   0.00000  Uiso   1.00
H652   H     0.27639   0.92075   0.03084   0.00000  Uiso   1.00
N653   N     0.05655   0.80097   0.04376   0.00000  Uiso   1.00
H654   H     0.03203   0.81962   0.02925   0.00000  Uiso   1.00
H655   H     0.05100   0.76518   0.04095   0.00000  Uiso   1.00
N656   N     0.27674   0.86577   0.45623   0.00000  Uiso   1.00
H657   H     0.28228   0.90157   0.45906   0.00000  Uiso   1.00
H658   H     0.30127   0.84713   0.47074   0.00000  Uiso   1.00
C659   C     0.04013   0.74624   0.27644   0.00000  Uiso   1.00
H660   H     0.06320   0.75397   0.30315   0.00000  Uiso   1.00
H661   H     0.01676   0.72419   0.29245   0.00000  Uiso   1.00
H662   H     0.05436   0.72568   0.24962   0.00000  Uiso   1.00
C663   C     0.29314   0.92043   0.22338   0.00000  Uiso   1.00
H664   H     0.27004   0.91265   0.19672   0.00000  Uiso   1.00
H665   H     0.27894   0.94102   0.25019   0.00000  Uiso   1.00
H666   H     0.31649   0.94244   0.20730   0.00000  Uiso   1.00
C667   C     0.29452   0.74464   0.22806   0.00000  Uiso   1.00
H668   H     0.27139   0.75060   0.20099   0.00000  Uiso   1.00
H669   H     0.31828   0.72188   0.21316   0.00000  Uiso   1.00
H670   H     0.28069   0.72558   0.25590   0.00000  Uiso   1.00
C671   C     0.03885   0.92209   0.27158   0.00000  Uiso   1.00
H672   H     0.06172   0.91619   0.29892   0.00000  Uiso   1.00
H673   H     0.05303   0.94080   0.24374   0.00000  Uiso   1.00
H674   H     0.01510   0.94517   0.28604   0.00000  Uiso   1.00
N675   N     0.12124   0.71715   0.18535   0.00000  Uiso   1.00
H676   H     0.09045   0.70748   0.18656   0.00000  Uiso   1.00
H677   H     0.13220   0.70826   0.15404   0.00000  Uiso   1.00
N678   N     0.21221   0.94952   0.31455   0.00000  Uiso   1.00
H679   H     0.24295   0.95938   0.31341   0.00000  Uiso   1.00
H680   H     0.20119   0.95823   0.34588   0.00000  Uiso   1.00
N681   N     0.21156   0.71654   0.31515   0.00000  Uiso   1.00
H682   H     0.24232   0.70619   0.31473   0.00000  Uiso   1.00
H683   H     0.19998   0.70785   0.34621   0.00000  Uiso   1.00
N684   N     0.12180   0.95012   0.18483   0.00000  Uiso   1.00
H685   H     0.09116   0.96087   0.18477   0.00000  Uiso   1.00
H686   H     0.13379   0.95835   0.15387   0.00000  Uiso   1.00
O687   O     0.43988   0.87291   0.25000   0.00000  Uiso   1.00
O688   O     0.56012   0.79375   0.25001   0.00000  Uiso   1.00
O689   O     0.56012   0.87291   0.25001   0.00000  Uiso   1.00
O690   O     0.43988   0.79375   0.25000   0.00000  Uiso   1.00
C691   C     0.42085   0.83346   0.25416   0.00000  Uiso   1.00
C692   C     0.57914   0.83321   0.24579   0.00000  Uiso   1.00
O693   O     0.49999   0.87293   0.18513   0.00000  Uiso   1.00
O694   O     0.50001   0.79373   0.31487   0.00000  Uiso   1.00
O695   O     0.50001   0.87293   0.31487   0.00000  Uiso   1.00
O696   O     0.49999   0.79373   0.18513   0.00000  Uiso   1.00
C697   C     0.49993   0.83332   0.16460   0.00000  Uiso   1.00
C698   C     0.50006   0.83334   0.33539   0.00000  Uiso   1.00
Cu699  Cu    0.50000   0.88022   0.25000   0.00000  Uiso   1.00
Cu700  Cu    0.50000   0.78645   0.25000   0.00000  Uiso   1.00
C701   C     0.53757   0.83580   0.40730   0.00000  Uiso   1.00
C702   C     0.46241   0.83089   0.09270   0.00000  Uiso   1.00
C703   C     0.50006   0.83331   0.38363   0.00000  Uiso   1.00
C704   C     0.49992   0.83336   0.11637   0.00000  Uiso   1.00
C705   C     0.46266   0.83190   0.40564   0.00000  Uiso   1.00
C706   C     0.53731   0.83478   0.09435   0.00000  Uiso   1.00
C707   C     0.46324   0.82403   0.45204   0.00000  Uiso   1.00
C708   C     0.53673   0.84267   0.04796   0.00000  Uiso   1.00
C709   C     0.50016   0.83293   0.47655   0.00000  Uiso   1.00
C710   C     0.49981   0.83378   0.02345   0.00000  Uiso   1.00
C711   C     0.53751   0.84042   0.45410   0.00000  Uiso   1.00
C712   C     0.46246   0.82629   0.04590   0.00000  Uiso   1.00
C713   C     0.42844   0.80762   0.47468   0.00000  Uiso   1.00
C714   C     0.57152   0.85910   0.02532   0.00000  Uiso   1.00
C715   C     0.42694   0.81246   0.02126   0.00000  Uiso   1.00
C716   C     0.57303   0.85426   0.47874   0.00000  Uiso   1.00
C717   C     0.35430   0.79083   0.25784   0.00000  Uiso   1.00
C718   C     0.64566   0.87586   0.24202   0.00000  Uiso   1.00
C719   C     0.64626   0.79034   0.24435   0.00000  Uiso   1.00
C720   C     0.35372   0.87636   0.25546   0.00000  Uiso   1.00
C721   C     0.62416   0.83302   0.24180   0.00000  Uiso   1.00
C722   C     0.37581   0.83366   0.25807   0.00000  Uiso   1.00
C723   C     0.47774   0.69176   0.21849   0.00000  Uiso   1.00
C724   C     0.52230   0.97491   0.28148   0.00000  Uiso   1.00
C725   C     0.52221   0.69148   0.28157   0.00000  Uiso   1.00
C726   C     0.47779   0.97519   0.21844   0.00000  Uiso   1.00
N727   N     0.50000   0.95069   0.25000   0.00000  Uiso   1.00
N728   N     0.50000   0.71598   0.25000   0.00000  Uiso   1.00
N729   N     0.57538   0.83463   0.38359   0.00000  Uiso   1.00
H730   H     0.57668   0.80360   0.36528   0.00000  Uiso   1.00
H731   H     0.57584   0.86283   0.36153   0.00000  Uiso   1.00
N732   N     0.42460   0.83205   0.11642   0.00000  Uiso   1.00
H733   H     0.42414   0.80384   0.13847   0.00000  Uiso   1.00
H734   H     0.42331   0.86308   0.13475   0.00000  Uiso   1.00
C735   C     0.42372   0.84560   0.38004   0.00000  Uiso   1.00
H736   H     0.42918   0.87795   0.36082   0.00000  Uiso   1.00
H737   H     0.41448   0.81749   0.35650   0.00000  Uiso   1.00
H738   H     0.39809   0.85432   0.40218   0.00000  Uiso   1.00
C739   C     0.57626   0.82104   0.11993   0.00000  Uiso   1.00
H740   H     0.57078   0.78867   0.13911   0.00000  Uiso   1.00
H741   H     0.60189   0.81235   0.09777   0.00000  Uiso   1.00
H742   H     0.58551   0.84912   0.14350   0.00000  Uiso   1.00
C743   C     0.39527   0.77913   0.45111   0.00000  Uiso   1.00
H744   H     0.40412   0.76780   0.41743   0.00000  Uiso   1.00
H745   H     0.39022   0.74597   0.46919   0.00000  Uiso   1.00
H746   H     0.36600   0.79909   0.44915   0.00000  Uiso   1.00
C747   C     0.60469   0.88758   0.04890   0.00000  Uiso   1.00
H748   H     0.59584   0.89888   0.08259   0.00000  Uiso   1.00
H749   H     0.63397   0.86762   0.05084   0.00000  Uiso   1.00
H750   H     0.60973   0.92075   0.03084   0.00000  Uiso   1.00
N751   N     0.38988   0.80097   0.04376   0.00000  Uiso   1.00
H752   H     0.36536   0.81962   0.02925   0.00000  Uiso   1.00
H753   H     0.38433   0.76518   0.04095   0.00000  Uiso   1.00
N754   N     0.61008   0.86577   0.45623   0.00000  Uiso   1.00
H755   H     0.61562   0.90157   0.45906   0.00000  Uiso   1.00
H756   H     0.63460   0.84713   0.47074   0.00000  Uiso   1.00
C757   C     0.37347   0.74624   0.27644   0.00000  Uiso   1.00
H758   H     0.39653   0.75397   0.30315   0.00000  Uiso   1.00
H759   H     0.35010   0.72419   0.29245   0.00000  Uiso   1.00
H760   H     0.38770   0.72568   0.24962   0.00000  Uiso   1.00
C761   C     0.62647   0.92043   0.22338   0.00000  Uiso   1.00
H762   H     0.60337   0.91265   0.19672   0.00000  Uiso   1.00
H763   H     0.61227   0.94102   0.25019   0.00000  Uiso   1.00
H764   H     0.64983   0.94244   0.20730   0.00000  Uiso   1.00
C765   C     0.62786   0.74464   0.22806   0.00000  Uiso   1.00
H766   H     0.60472   0.75060   0.20099   0.00000  Uiso   1.00
H767   H     0.65161   0.72188   0.21316   0.00000  Uiso   1.00
H768   H     0.61403   0.72558   0.25590   0.00000  Uiso   1.00
C769   C     0.37218   0.92209   0.27158   0.00000  Uiso   1.00
H770   H     0.39505   0.91619   0.29892   0.00000  Uiso   1.00
H771   H     0.38636   0.94080   0.24374   0.00000  Uiso   1.00
H772   H     0.34843   0.94517   0.28604   0.00000  Uiso   1.00
N773   N     0.45457   0.71715   0.18535   0.00000  Uiso   1.00
H774   H     0.42379   0.70748   0.18656   0.00000  Uiso   1.00
H775   H     0.46553   0.70826   0.15404   0.00000  Uiso   1.00
N776   N     0.54555   0.94952   0.31455   0.00000  Uiso   1.00
H777   H     0.57629   0.95938   0.31341   0.00000  Uiso   1.00
H778   H     0.53452   0.95823   0.34588   0.00000  Uiso   1.00
N779   N     0.54490   0.71654   0.31515   0.00000  Uiso   1.00
H780   H     0.57565   0.70619   0.31473   0.00000  Uiso   1.00
H781   H     0.53331   0.70785   0.34621   0.00000  Uiso   1.00
N782   N     0.45513   0.95012   0.18483   0.00000  Uiso   1.00
H783   H     0.42450   0.96087   0.18477   0.00000  Uiso   1.00
H784   H     0.46712   0.95835   0.15387   0.00000  Uiso   1.00
O785   O     0.77321   0.87291   0.25000   0.00000  Uiso   1.00
O786   O     0.89345   0.79375   0.25001   0.00000  Uiso   1.00
O787   O     0.89345   0.87291   0.25001   0.00000  Uiso   1.00
O788   O     0.77321   0.79375   0.25000   0.00000  Uiso   1.00
C789   C     0.75418   0.83346   0.25416   0.00000  Uiso   1.00
C790   C     0.91248   0.83321   0.24579   0.00000  Uiso   1.00
O791   O     0.83332   0.87293   0.18513   0.00000  Uiso   1.00
O792   O     0.83334   0.79373   0.31487   0.00000  Uiso   1.00
O793   O     0.83334   0.87293   0.31487   0.00000  Uiso   1.00
O794   O     0.83332   0.79373   0.18513   0.00000  Uiso   1.00
C795   C     0.83326   0.83332   0.16460   0.00000  Uiso   1.00
C796   C     0.83340   0.83334   0.33539   0.00000  Uiso   1.00
Cu797  Cu    0.83333   0.88022   0.25000   0.00000  Uiso   1.00
Cu798  Cu    0.83333   0.78645   0.25000   0.00000  Uiso   1.00
C799   C     0.87090   0.83580   0.40730   0.00000  Uiso   1.00
C800   C     0.79574   0.83089   0.09270   0.00000  Uiso   1.00
C801   C     0.83339   0.83331   0.38363   0.00000  Uiso   1.00
C802   C     0.83325   0.83336   0.11637   0.00000  Uiso   1.00
C803   C     0.79600   0.83190   0.40564   0.00000  Uiso   1.00
C804   C     0.87065   0.83478   0.09435   0.00000  Uiso   1.00
C805   C     0.79657   0.82403   0.45204   0.00000  Uiso   1.00
C806   C     0.87006   0.84267   0.04796   0.00000  Uiso   1.00
C807   C     0.83349   0.83293   0.47655   0.00000  Uiso   1.00
C808   C     0.83314   0.83378   0.02345   0.00000  Uiso   1.00
C809   C     0.87084   0.84042   0.45410   0.00000  Uiso   1.00
C810   C     0.79579   0.82629   0.04590   0.00000  Uiso   1.00
C811   C     0.76178   0.80762   0.47468   0.00000  Uiso   1.00
C812   C     0.90485   0.85910   0.02532   0.00000  Uiso   1.00
C813   C     0.76027   0.81246   0.02126   0.00000  Uiso   1.00
C814   C     0.90636   0.85426   0.47874   0.00000  Uiso   1.00
C815   C     0.68764   0.79083   0.25784   0.00000  Uiso   1.00
C816   C     0.97900   0.87586   0.24202   0.00000  Uiso   1.00
C817   C     0.97959   0.79034   0.24435   0.00000  Uiso   1.00
C818   C     0.68706   0.87636   0.25546   0.00000  Uiso   1.00
C819   C     0.95750   0.83302   0.24180   0.00000  Uiso   1.00
C820   C     0.70915   0.83366   0.25807   0.00000  Uiso   1.00
C821   C     0.81107   0.69176   0.21849   0.00000  Uiso   1.00
C822   C     0.85563   0.97491   0.28148   0.00000  Uiso   1.00
C823   C     0.85554   0.69148   0.28157   0.00000  Uiso   1.00
C824   C     0.81112   0.97519   0.21844   0.00000  Uiso   1.00
N825   N     0.83333   0.95069   0.25000   0.00000  Uiso   1.00
N826   N     0.83333   0.71598   0.25000   0.00000  Uiso   1.00
N827   N     0.90871   0.83463   0.38359   0.00000  Uiso   1.00
H828   H     0.91001   0.80360   0.36528   0.00000  Uiso   1.00
H829   H     0.90918   0.86283   0.36153   0.00000  Uiso   1.00
N830   N     0.75794   0.83205   0.11642   0.00000  Uiso   1.00
H831   H     0.75747   0.80384   0.13847   0.00000  Uiso   1.00
H832   H     0.75664   0.86308   0.13475   0.00000  Uiso   1.00
C833   C     0.75705   0.84560   0.38004   0.00000  Uiso   1.00
H834   H     0.76252   0.87795   0.36082   0.00000  Uiso   1.00
H835   H     0.74781   0.81749   0.35650   0.00000  Uiso   1.00
H836   H     0.73142   0.85432   0.40218   0.00000  Uiso   1.00
C837   C     0.90959   0.82104   0.11993   0.00000  Uiso   1.00
H838   H     0.90412   0.78867   0.13911   0.00000  Uiso   1.00
H839   H     0.93522   0.81235   0.09777   0.00000  Uiso   1.00
H840   H     0.91884   0.84912   0.14350   0.00000  Uiso   1.00
C841   C     0.72861   0.77913   0.45111   0.00000  Uiso   1.00
H842   H     0.73746   0.76780   0.41743   0.00000  Uiso   1.00
H843   H     0.72356   0.74597   0.46919   0.00000  Uiso   1.00
H844   H     0.69934   0.79909   0.44915   0.00000  Uiso   1.00
C845   C     0.93802   0.88758   0.04890   0.00000  Uiso   1.00
H846   H     0.92918   0.89888   0.08259   0.00000  Uiso   1.00
H847   H     0.96730   0.86762   0.05084   0.00000  Uiso   1.00
H848   H     0.94306   0.92075   0.03084   0.00000  Uiso   1.00
N849   N     0.72322   0.80097   0.04376   0.00000  Uiso   1.00
H850   H     0.69870   0.81962   0.02925   0.00000  Uiso   1.00
H851   H     0.71766   0.76518   0.04095   0.00000  Uiso   1.00
N852   N     0.94341   0.86577   0.45623   0.00000  Uiso   1.00
H853   H     0.94895   0.90157   0.45906   0.00000  Uiso   1.00
H854   H     0.96793   0.84713   0.47074   0.00000  Uiso   1.00
C855   C     0.70680   0.74624   0.27644   0.00000  Uiso   1.00
H856   H     0.72986   0.75397   0.30315   0.00000  Uiso   1.00
H857   H     0.68343   0.72419   0.29245   0.00000  Uiso   1.00
H858   H     0.72103   0.72568   0.24962   0.00000  Uiso   1.00
C859   C     0.95981   0.92043   0.22338   0.00000  Uiso   1.00
H860   H     0.93670   0.91265   0.19672   0.00000  Uiso   1.00
H861   H     0.94561   0.94102   0.25019   0.00000  Uiso   1.00
H862   H     0.98316   0.94244   0.20730   0.00000  Uiso   1.00
C863   C     0.96119   0.74464   0.22806   0.00000  Uiso   1.00
H864   H     0.93805   0.75060   0.20099   0.00000  Uiso   1.00
H865   H     0.98495   0.72188   0.21316   0.00000  Uiso   1.00
H866   H     0.94736   0.72558   0.25590   0.00000  Uiso   1.00
C867   C     0.70551   0.92209   0.27158   0.00000  Uiso   1.00
H868   H     0.72839   0.91619   0.29892   0.00000  Uiso   1.00
H869   H     0.71970   0.94080   0.24374   0.00000  Uiso   1.00
H870   H     0.68176   0.94517   0.28604   0.00000  Uiso   1.00
N871   N     0.78790   0.71715   0.18535   0.00000  Uiso   1.00
H872   H     0.75712   0.70748   0.18656   0.00000  Uiso   1.00
H873   H     0.79886   0.70826   0.15404   0.00000  Uiso   1.00
N874   N     0.87888   0.94952   0.31455   0.00000  Uiso   1.00
H875   H     0.90962   0.95938   0.31341   0.00000  Uiso   1.00
H876   H     0.86786   0.95823   0.34588   0.00000  Uiso   1.00
N877   N     0.87823   0.71654   0.31515   0.00000  Uiso   1.00
H878   H     0.90899   0.70619   0.31473   0.00000  Uiso   1.00
H879   H     0.86665   0.70785   0.34621   0.00000  Uiso   1.00
N880   N     0.78847   0.95012   0.18483   0.00000  Uiso   1.00
H881   H     0.75783   0.96087   0.18477   0.00000  Uiso   1.00
H882   H     0.80045   0.95835   0.15387   0.00000  Uiso   1.00
O883   O     0.10655   0.20625   0.75000   0.00000  Uiso   1.00
O884   O     0.22679   0.12709   0.75001   0.00000  Uiso   1.00
O885   O     0.22679   0.20625   0.75001   0.00000  Uiso   1.00
O886   O     0.10655   0.12709   0.75000   0.00000  Uiso   1.00
C887   C     0.08751   0.16680   0.75416   0.00000  Uiso   1.00
C888   C     0.24581   0.16654   0.74579   0.00000  Uiso   1.00
O889   O     0.16666   0.20627   0.68513   0.00000  Uiso   1.00
O890   O     0.16668   0.12707   0.81487   0.00000  Uiso   1.00
O891   O     0.16668   0.20627   0.81487   0.00000  Uiso   1.00
O892   O     0.16666   0.12707   0.68513   0.00000  Uiso   1.00
C893   C     0.16660   0.16666   0.66460   0.00000  Uiso   1.00
C894   C     0.16673   0.16668   0.83539   0.00000  Uiso   1.00
Cu895  Cu    0.16667   0.21355   0.75000   0.00000  Uiso   1.00
Cu896  Cu    0.16667   0.11978   0.75000   0.00000  Uiso   1.00
C897   C     0.20423   0.16914   0.90730   0.00000  Uiso   1.00
C898   C     0.12908   0.16422   0.59270   0.00000  Uiso   1.00
C899   C     0.16673   0.16665   0.88363   0.00000  Uiso   1.00
C900   C     0.16659   0.16669   0.61637   0.00000  Uiso   1.00
C901   C     0.12933   0.16523   0.90564   0.00000  Uiso   1.00
C902   C     0.20398   0.16811   0.59435   0.00000  Uiso   1.00
C903   C     0.12991   0.15736   0.95204   0.00000  Uiso   1.00
C904   C     0.20339   0.17601   0.54796   0.00000  Uiso   1.00
C905   C     0.16683   0.16627   0.97655   0.00000  Uiso   1.00
C906   C     0.16647   0.16711   0.52345   0.00000  Uiso   1.00
C907   C     0.20417   0.17375   0.95410   0.00000  Uiso   1.00
C908   C     0.12913   0.15962   0.54590   0.00000  Uiso   1.00
C909   C     0.09511   0.14095   0.97468   0.00000  Uiso   1.00
C910   C     0.23819   0.19243   0.52532   0.00000  Uiso   1.00
C911   C     0.09360   0.14579   0.52126   0.00000  Uiso   1.00
C912   C     0.23969   0.18760   0.97874   0.00000  Uiso   1.00
C913   C     0.02097   0.12416   0.75784   0.00000  Uiso   1.00
C914   C     0.31233   0.20919   0.74202   0.00000  Uiso   1.00
C915   C     0.31292   0.12368   0.74435   0.00000  Uiso   1.00
C916   C     0.02039   0.20969   0.75546   0.00000  Uiso   1.00
C917   C     0.29083   0.16636   0.74180   0.00000  Uiso   1.00
C918   C     0.04248   0.16700   0.75807   0.00000  Uiso   1.00
C919   C     0.14440   0.02509   0.71849   0.00000  Uiso   1.00
C920   C     0.18897   0.30824   0.78148   0.00000  Uiso   1.00
C921   C     0.18887   0.02481   0.78157   0.00000  Uiso   1.00
C922   C     0.14445   0.30852   0.71844   0.00000  Uiso   1.00
N923   N     0.16667   0.28402   0.75000   0.00000  Uiso   1.00
N924   N     0.16667   0.04931   0.75000   0.00000  Uiso   1.00
N925   N     0.24205   0.16796   0.88359   0.00000  Uiso   1.00
H926   H     0.24334   0.13693   0.86528   0.00000  Uiso   1.00
H927   H     0.24251   0.19617   0.86153   0.00000  Uiso   1.00
N928   N     0.09127   0.16539   0.61642   0.00000  Uiso   1.00
H929   H     0.09081   0.13717   0.63847   0.00000  Uiso   1.00
H930   H     0.08997   0.19641   0.63475   0.00000  Uiso   1.00
C931   C     0.09039   0.17893   0.88004   0.00000  Uiso   1.00
H932   H     0.09585   0.21128   0.86082   0.00000  Uiso   1.00
H933   H     0.08114   0.15083   0.85650   0.00000  Uiso   1.00
H934   H     0.06475   0.18765   0.90218   0.00000  Uiso   1.00
C935   C     0.24292   0.15438   0.61993   0.00000  Uiso   1.00
H936   H     0.23745   0.12201   0.63911   0.00000  Uiso   1.00
H937   H     0.26855   0.14568   0.59777   0.00000  Uiso   1.00
H938   H     0.25218   0.18245   0.64350   0.00000  Uiso   1.00
C939   C     0.06194   0.11246   0.95111   0.00000  Uiso   1.00
H940   H     0.07079   0.10114   0.91743   0.00000  Uiso   1.00
H941   H     0.05689   0.07931   0.96919   0.00000  Uiso   1.00
H942   H     0.03267   0.13243   0.94915   0.00000  Uiso   1.00
C943   C     0.27135   0.22091   0.54890   0.00000  Uiso   1.00
H944   H     0.26251   0.23221   0.58259   0.00000  Uiso   1.00
H945   H     0.30063   0.20096   0.55084   0.00000  Uiso   1.00
H946   H     0.27639   0.25408   0.53084   0.00000  Uiso   1.00
N947   N     0.05655   0.13431   0.54376   0.00000  Uiso   1.00
H948   H     0.03203   0.15295   0.52925   0.00000  Uiso   1.00
H949   H     0.05100   0.09851   0.54095   0.00000  Uiso   1.00
N950   N     0.27674   0.19911   0.95623   0.00000  Uiso   1.00
H951   H     0.28228   0.23490   0.95906   0.00000  Uiso   1.00
H952   H     0.30127   0.18047   0.97074   0.00000  Uiso   1.00
C953   C     0.04013   0.07957   0.77644   0.00000  Uiso   1.00
H954   H     0.06320   0.08731   0.80315   0.00000  Uiso   1.00
H955   H     0.01676   0.05753   0.79245   0.00000  Uiso   1.00
H956   H     0.05436   0.05901   0.74962   0.00000  Uiso   1.00
C957   C     0.29314   0.25376   0.72338   0.00000  Uiso   1.00
H958   H     0.27004   0.24599   0.69672   0.00000  Uiso   1.00
H959   H     0.27894   0.27435   0.75019   0.00000  Uiso   1.00
H960   H     0.31649   0.27578   0.70730   0.00000  Uiso   1.00
C961   C     0.29452   0.07797   0.72806   0.00000  Uiso   1.00
H962   H     0.27139   0.08393   0.70099   0.00000  Uiso   1.00
H963   H     0.31828   0.05521   0.71316   0.00000  Uiso   1.00
H964   H     0.28069   0.05891   0.75590   0.00000  Uiso   1.00
C965   C     0.03885   0.25543   0.77158   0.00000  Uiso   1.00
H966   H     0.06172   0.24952   0.79892   0.00000  Uiso   1.00
H967   H     0.05303   0.27414   0.74374   0.00000  Uiso   1.00
H968   H     0.01510   0.27850   0.78604   0.00000  Uiso   1.00
N969   N     0.12124   0.05048   0.68535   0.00000  Uiso   1.00
H970   H     0.09045   0.04082   0.68656   0.00000  Uiso   1.00
H971   H     0.13220   0.04160   0.65404   0.00000  Uiso   1.00
N972   N     0.21221   0.28286   0.81455   0.00000  Uiso   1.00
H973   H     0.24295   0.29272   0.81341   0.00000  Uiso   1.00
H974   H     0.20119   0.29156   0.84588   0.00000  Uiso   1.00
N975   N     0.21156   0.04987   0.81515   0.00000  Uiso   1.00
H976   H     0.24232   0.03953   0.81473   0.00000  Uiso   1.00
H977   H     0.19998   0.04118   0.84621   0.00000  Uiso   1.00
N978   N     0.12180   0.28346   0.68483   0.00000  Uiso   1.00
H979   H     0.09116   0.29421   0.68477   0.00000  Uiso   1.00
H980   H     0.13379   0.29169   0.65387   0.00000  Uiso   1.00
O981   O     0.43988   0.20625   0.75000   0.00000  Uiso   1.00
O982   O     0.56012   0.12709   0.75001   0.00000  Uiso   1.00
O983   O     0.56012   0.20625   0.75001   0.00000  Uiso   1.00
O984   O     0.43988   0.12709   0.75000   0.00000  Uiso   1.00
C985   C     0.42085   0.16680   0.75416   0.00000  Uiso   1.00
C986   C     0.57914   0.16654   0.74579   0.00000  Uiso   1.00
O987   O     0.49999   0.20627   0.68513   0.00000  Uiso   1.00
O988   O     0.50001   0.12707   0.81487   0.00000  Uiso   1.00
O989   O     0.50001   0.20627   0.81487   0.00000  Uiso   1.00
O990   O     0.49999   0.12707   0.68513   0.00000  Uiso   1.00
C991   C     0.49993   0.16666   0.66460   0.00000  Uiso   1.00
C992   C     0.50006   0.16668   0.83539   0.00000  Uiso   1.00
Cu993  Cu    0.50000   0.21355   0.75000   0.00000  Uiso   1.00
Cu994  Cu    0.50000   0.11978   0.75000   0.00000  Uiso   1.00
C995   C     0.53757   0.16914   0.90730   0.00000  Uiso   1.00
C996   C     0.46241   0.16422   0.59270   0.00000  Uiso   1.00
C997   C     0.50006   0.16665   0.88363   0.00000  Uiso   1.00
C998   C     0.49992   0.16669   0.61637   0.00000  Uiso   1.00
C999   C     0.46266   0.16523   0.90564   0.00000  Uiso   1.00
C1000  C     0.53731   0.16811   0.59435   0.00000  Uiso   1.00
C1001  C     0.46324   0.15736   0.95204   0.00000  Uiso   1.00
C1002  C     0.53673   0.17601   0.54796   0.00000  Uiso   1.00
C1003  C     0.50016   0.16627   0.97655   0.00000  Uiso   1.00
C1004  C     0.49981   0.16711   0.52345   0.00000  Uiso   1.00
C1005  C     0.53751   0.17375   0.95410   0.00000  Uiso   1.00
C1006  C     0.46246   0.15962   0.54590   0.00000  Uiso   1.00
C1007  C     0.42844   0.14095   0.97468   0.00000  Uiso   1.00
C1008  C     0.57152   0.19243   0.52532   0.00000  Uiso   1.00
C1009  C     0.42694   0.14579   0.52126   0.00000  Uiso   1.00
C1010  C     0.57303   0.18760   0.97874   0.00000  Uiso   1.00
C1011  C     0.35430   0.12416   0.75784   0.00000  Uiso   1.00
C1012  C     0.64566   0.20919   0.74202   0.00000  Uiso   1.00
C1013  C     0.64626   0.12368   0.74435   0.00000  Uiso   1.00
C1014  C     0.35372   0.20969   0.75546   0.00000  Uiso   1.00
C1015  C     0.62416   0.16636   0.74180   0.00000  Uiso   1.00
C1016  C     0.37581   0.16700   0.75807   0.00000  Uiso   1.00
C1017  C     0.47774   0.02509   0.71849   0.00000  Uiso   1.00
C1018  C     0.52230   0.30824   0.78148   0.00000  Uiso   1.00
C1019  C     0.52221   0.02481   0.78157   0.00000  Uiso   1.00
C1020  C     0.47779   0.30852   0.71844   0.00000  Uiso   1.00
N1021  N     0.50000   0.28402   0.75000   0.00000  Uiso   1.00
N1022  N     0.50000   0.04931   0.75000   0.00000  Uiso   1.00
N1023  N     0.57538   0.16796   0.88359   0.00000  Uiso   1.00
H1024  H     0.57668   0.13693   0.86528   0.00000  Uiso   1.00
H1025  H     0.57584   0.19617   0.86153   0.00000  Uiso   1.00
N1026  N     0.42460   0.16539   0.61642   0.00000  Uiso   1.00
H1027  H     0.42414   0.13717   0.63847   0.00000  Uiso   1.00
H1028  H     0.42331   0.19641   0.63475   0.00000  Uiso   1.00
C1029  C     0.42372   0.17893   0.88004   0.00000  Uiso   1.00
H1030  H     0.42918   0.21128   0.86082   0.00000  Uiso   1.00
H1031  H     0.41448   0.15083   0.85650   0.00000  Uiso   1.00
H1032  H     0.39809   0.18765   0.90218   0.00000  Uiso   1.00
C1033  C     0.57626   0.15438   0.61993   0.00000  Uiso   1.00
H1034  H     0.57078   0.12201   0.63911   0.00000  Uiso   1.00
H1035  H     0.60189   0.14568   0.59777   0.00000  Uiso   1.00
H1036  H     0.58551   0.18245   0.64350   0.00000  Uiso   1.00
C1037  C     0.39527   0.11246   0.95111   0.00000  Uiso   1.00
H1038  H     0.40412   0.10114   0.91743   0.00000  Uiso   1.00
H1039  H     0.39022   0.07931   0.96919   0.00000  Uiso   1.00
H1040  H     0.36600   0.13243   0.94915   0.00000  Uiso   1.00
C1041  C     0.60469   0.22091   0.54890   0.00000  Uiso   1.00
H1042  H     0.59584   0.23221   0.58259   0.00000  Uiso   1.00
H1043  H     0.63397   0.20096   0.55084   0.00000  Uiso   1.00
H1044  H     0.60973   0.25408   0.53084   0.00000  Uiso   1.00
N1045  N     0.38988   0.13431   0.54376   0.00000  Uiso   1.00
H1046  H     0.36536   0.15295   0.52925   0.00000  Uiso   1.00
H1047  H     0.38433   0.09851   0.54095   0.00000  Uiso   1.00
N1048  N     0.61008   0.19911   0.95623   0.00000  Uiso   1.00
H1049  H     0.61562   0.23490   0.95906   0.00000  Uiso   1.00
H1050  H     0.63460   0.18047   0.97074   0.00000  Uiso   1.00
C1051  C     0.37347   0.07957   0.77644   0.00000  Uiso   1.00
H1052  H     0.39653   0.08731   0.80315   0.00000  Uiso   1.00
H1053  H     0.35010   0.05753   0.79245   0.00000  Uiso   1.00
H1054  H     0.38770   0.05901   0.74962   0.00000  Uiso   1.00
C1055  C     0.62647   0.25376   0.72338   0.00000  Uiso   1.00
H1056  H     0.60337   0.24599   0.69672   0.00000  Uiso   1.00
H1057  H     0.61227   0.27435   0.75019   0.00000  Uiso   1.00
H1058  H     0.64983   0.27578   0.70730   0.00000  Uiso   1.00
C1059  C     0.62786   0.07797   0.72806   0.00000  Uiso   1.00
H1060  H     0.60472   0.08393   0.70099   0.00000  Uiso   1.00
H1061  H     0.65161   0.05521   0.71316   0.00000  Uiso   1.00
H1062  H     0.61403   0.05891   0.75590   0.00000  Uiso   1.00
C1063  C     0.37218   0.25543   0.77158   0.00000  Uiso   1.00
H1064  H     0.39505   0.24952   0.79892   0.00000  Uiso   1.00
H1065  H     0.38636   0.27414   0.74374   0.00000  Uiso   1.00
H1066  H     0.34843   0.27850   0.78604   0.00000  Uiso   1.00
N1067  N     0.45457   0.05048   0.68535   0.00000  Uiso   1.00
H1068  H     0.42379   0.04082   0.68656   0.00000  Uiso   1.00
H1069  H     0.46553   0.04160   0.65404   0.00000  Uiso   1.00
N1070  N     0.54555   0.28286   0.81455   0.00000  Uiso   1.00
H1071  H     0.57629   0.29272   0.81341   0.00000  Uiso   1.00
H1072  H     0.53452   0.29156   0.84588   0.00000  Uiso   1.00
N1073  N     0.54490   0.04987   0.81515   0.00000  Uiso   1.00
H1074  H     0.57565   0.03953   0.81473   0.00000  Uiso   1.00
H1075  H     0.53331   0.04118   0.84621   0.00000  Uiso   1.00
N1076  N     0.45513   0.28346   0.68483   0.00000  Uiso   1.00
H1077  H     0.42450   0.29421   0.68477   0.00000  Uiso   1.00
H1078  H     0.46712   0.29169   0.65387   0.00000  Uiso   1.00
O1079  O     0.77321   0.20625   0.75000   0.00000  Uiso   1.00
O1080  O     0.89345   0.12709   0.75001   0.00000  Uiso   1.00
O1081  O     0.89345   0.20625   0.75001   0.00000  Uiso   1.00
O1082  O     0.77321   0.12709   0.75000   0.00000  Uiso   1.00
C1083  C     0.75418   0.16680   0.75416   0.00000  Uiso   1.00
C1084  C     0.91248   0.16654   0.74579   0.00000  Uiso   1.00
O1085  O     0.83332   0.20627   0.68513   0.00000  Uiso   1.00
O1086  O     0.83334   0.12707   0.81487   0.00000  Uiso   1.00
O1087  O     0.83334   0.20627   0.81487   0.00000  Uiso   1.00
O1088  O     0.83332   0.12707   0.68513   0.00000  Uiso   1.00
C1089  C     0.83326   0.16666   0.66460   0.00000  Uiso   1.00
C1090  C     0.83340   0.16668   0.83539   0.00000  Uiso   1.00
Cu1091 Cu    0.83333   0.21355   0.75000   0.00000  Uiso   1.00
Cu1092 Cu    0.83333   0.11978   0.75000   0.00000  Uiso   1.00
C1093  C     0.87090   0.16914   0.90730   0.00000  Uiso   1.00
C1094  C     0.79574   0.16422   0.59270   0.00000  Uiso   1.00
C1095  C     0.83339   0.16665   0.88363   0.00000  Uiso   1.00
C1096  C     0.83325   0.16669   0.61637   0.00000  Uiso   1.00
C1097  C     0.79600   0.16523   0.90564   0.00000  Uiso   1.00
C1098  C     0.87065   0.16811   0.59435   0.00000  Uiso   1.00
C1099  C     0.79657   0.15736   0.95204   0.00000  Uiso   1.00
C1100  C     0.87006   0.17601   0.54796   0.00000  Uiso   1.00
C1101  C     0.83349   0.16627   0.97655   0.00000  Uiso   1.00
C1102  C     0.83314   0.16711   0.52345   0.00000  Uiso   1.00
C1103  C     0.87084   0.17375   0.95410   0.00000  Uiso   1.00
C1104  C     0.79579   0.15962   0.54590   0.00000  Uiso   1.00
C1105  C     0.76178   0.14095   0.97468   0.00000  Uiso   1.00
C1106  C     0.90485   0.19243   0.52532   0.00000  Uiso   1.00
C1107  C     0.76027   0.14579   0.52126   0.00000  Uiso   1.00
C1108  C     0.90636   0.18760   0.97874   0.00000  Uiso   1.00
C1109  C     0.68764   0.12416   0.75784   0.00000  Uiso   1.00
C1110  C     0.97900   0.20919   0.74202   0.00000  Uiso   1.00
C1111  C     0.97959   0.12368   0.74435   0.00000  Uiso   1.00
C1112  C     0.68706   0.20969   0.75546   0.00000  Uiso   1.00
C1113  C     0.95750   0.16636   0.74180   0.00000  Uiso   1.00
C1114  C     0.70915   0.16700   0.75807   0.00000  Uiso   1.00
C1115  C     0.81107   0.02509   0.71849   0.00000  Uiso   1.00
C1116  C     0.85563   0.30824   0.78148   0.00000  Uiso   1.00
C1117  C     0.85554   0.02481   0.78157   0.00000  Uiso   1.00
C1118  C     0.81112   0.30852   0.71844   0.00000  Uiso   1.00
N1119  N     0.83333   0.28402   0.75000   0.00000  Uiso   1.00
N1120  N     0.83333   0.04931   0.75000   0.00000  Uiso   1.00
N1121  N     0.90871   0.16796   0.88359   0.00000  Uiso   1.00
H1122  H     0.91001   0.13693   0.86528   0.00000  Uiso   1.00
H1123  H     0.90918   0.19617   0.86153   0.00000  Uiso   1.00
N1124  N     0.75794   0.16539   0.61642   0.00000  Uiso   1.00
H1125  H     0.75747   0.13717   0.63847   0.00000  Uiso   1.00
H1126  H     0.75664   0.19641   0.63475   0.00000  Uiso   1.00
C1127  C     0.75705   0.17893   0.88004   0.00000  Uiso   1.00
H1128  H     0.76252   0.21128   0.86082   0.00000  Uiso   1.00
H1129  H     0.74781   0.15083   0.85650   0.00000  Uiso   1.00
H1130  H     0.73142   0.18765   0.90218   0.00000  Uiso   1.00
C1131  C     0.90959   0.15438   0.61993   0.00000  Uiso   1.00
H1132  H     0.90412   0.12201   0.63911   0.00000  Uiso   1.00
H1133  H     0.93522   0.14568   0.59777   0.00000  Uiso   1.00
H1134  H     0.91884   0.18245   0.64350   0.00000  Uiso   1.00
C1135  C     0.72861   0.11246   0.95111   0.00000  Uiso   1.00
H1136  H     0.73746   0.10114   0.91743   0.00000  Uiso   1.00
H1137  H     0.72356   0.07931   0.96919   0.00000  Uiso   1.00
H1138  H     0.69934   0.13243   0.94915   0.00000  Uiso   1.00
C1139  C     0.93802   0.22091   0.54890   0.00000  Uiso   1.00
H1140  H     0.92918   0.23221   0.58259   0.00000  Uiso   1.00
H1141  H     0.96730   0.20096   0.55084   0.00000  Uiso   1.00
H1142  H     0.94306   0.25408   0.53084   0.00000  Uiso   1.00
N1143  N     0.72322   0.13431   0.54376   0.00000  Uiso   1.00
H1144  H     0.69870   0.15295   0.52925   0.00000  Uiso   1.00
H1145  H     0.71766   0.09851   0.54095   0.00000  Uiso   1.00
N1146  N     0.94341   0.19911   0.95623   0.00000  Uiso   1.00
H1147  H     0.94895   0.23490   0.95906   0.00000  Uiso   1.00
H1148  H     0.96793   0.18047   0.97074   0.00000  Uiso   1.00
C1149  C     0.70680   0.07957   0.77644   0.00000  Uiso   1.00
H1150  H     0.72986   0.08731   0.80315   0.00000  Uiso   1.00
H1151  H     0.68343   0.05753   0.79245   0.00000  Uiso   1.00
H1152  H     0.72103   0.05901   0.74962   0.00000  Uiso   1.00
C1153  C     0.95981   0.25376   0.72338   0.00000  Uiso   1.00
H1154  H     0.93670   0.24599   0.69672   0.00000  Uiso   1.00
H1155  H     0.94561   0.27435   0.75019   0.00000  Uiso   1.00
H1156  H     0.98316   0.27578   0.70730   0.00000  Uiso   1.00
C1157  C     0.96119   0.07797   0.72806   0.00000  Uiso   1.00
H1158  H     0.93805   0.08393   0.70099   0.00000  Uiso   1.00
H1159  H     0.98495   0.05521   0.71316   0.00000  Uiso   1.00
H1160  H     0.94736   0.05891   0.75590   0.00000  Uiso   1.00
C1161  C     0.70551   0.25543   0.77158   0.00000  Uiso   1.00
H1162  H     0.72839   0.24952   0.79892   0.00000  Uiso   1.00
H1163  H     0.71970   0.27414   0.74374   0.00000  Uiso   1.00
H1164  H     0.68176   0.27850   0.78604   0.00000  Uiso   1.00
N1165  N     0.78790   0.05048   0.68535   0.00000  Uiso   1.00
H1166  H     0.75712   0.04082   0.68656   0.00000  Uiso   1.00
H1167  H     0.79886   0.04160   0.65404   0.00000  Uiso   1.00
N1168  N     0.87888   0.28286   0.81455   0.00000  Uiso   1.00
H1169  H     0.90962   0.29272   0.81341   0.00000  Uiso   1.00
H1170  H     0.86786   0.29156   0.84588   0.00000  Uiso   1.00
N1171  N     0.87823   0.04987   0.81515   0.00000  Uiso   1.00
H1172  H     0.90899   0.03953   0.81473   0.00000  Uiso   1.00
H1173  H     0.86665   0.04118   0.84621   0.00000  Uiso   1.00
N1174  N     0.78847   0.28346   0.68483   0.00000  Uiso   1.00
H1175  H     0.75783   0.29421   0.68477   0.00000  Uiso   1.00
H1176  H     0.80045   0.29169   0.65387   0.00000  Uiso   1.00
O1177  O     0.10655   0.53958   0.75000   0.00000  Uiso   1.00
O1178  O     0.22679   0.46042   0.75001   0.00000  Uiso   1.00
O1179  O     0.22679   0.53958   0.75001   0.00000  Uiso   1.00
O1180  O     0.10655   0.46042   0.75000   0.00000  Uiso   1.00
C1181  C     0.08751   0.50013   0.75416   0.00000  Uiso   1.00
C1182  C     0.24581   0.49987   0.74579   0.00000  Uiso   1.00
O1183  O     0.16666   0.53960   0.68513   0.00000  Uiso   1.00
O1184  O     0.16668   0.46040   0.81487   0.00000  Uiso   1.00
O1185  O     0.16668   0.53960   0.81487   0.00000  Uiso   1.00
O1186  O     0.16666   0.46040   0.68513   0.00000  Uiso   1.00
C1187  C     0.16660   0.49999   0.66460   0.00000  Uiso   1.00
C1188  C     0.16673   0.50001   0.83539   0.00000  Uiso   1.00
Cu1189 Cu    0.16667   0.54689   0.75000   0.00000  Uiso   1.00
Cu1190 Cu    0.16667   0.45311   0.75000   0.00000  Uiso   1.00
C1191  C     0.20423   0.50247   0.90730   0.00000  Uiso   1.00
C1192  C     0.12908   0.49755   0.59270   0.00000  Uiso   1.00
C1193  C     0.16673   0.49998   0.88363   0.00000  Uiso   1.00
C1194  C     0.16659   0.50002   0.61637   0.00000  Uiso   1.00
C1195  C     0.12933   0.49856   0.90564   0.00000  Uiso   1.00
C1196  C     0.20398   0.50145   0.59435   0.00000  Uiso   1.00
C1197  C     0.12991   0.49069   0.95204   0.00000  Uiso   1.00
C1198  C     0.20339   0.50934   0.54796   0.00000  Uiso   1.00
C1199  C     0.16683   0.49960   0.97655   0.00000  Uiso   1.00
C1200  C     0.16647   0.50044   0.52345   0.00000  Uiso   1.00
C1201  C     0.20417   0.50709   0.95410   0.00000  Uiso   1.00
C1202  C     0.12913   0.49296   0.54590   0.00000  Uiso   1.00
C1203  C     0.09511   0.47428   0.97468   0.00000  Uiso   1.00
C1204  C     0.23819   0.52576   0.52532   0.00000  Uiso   1.00
C1205  C     0.09360   0.47913   0.52126   0.00000  Uiso   1.00
C1206  C     0.23969   0.52093   0.97874   0.00000  Uiso   1.00
C1207  C     0.02097   0.45750   0.75784   0.00000  Uiso   1.00
C1208  C     0.31233   0.54253   0.74202   0.00000  Uiso   1.00
C1209  C     0.31292   0.45701   0.74435   0.00000  Uiso   1.00
C1210  C     0.02039   0.54302   0.75546   0.00000  Uiso   1.00
C1211  C     0.29083   0.49969   0.74180   0.00000  Uiso   1.00
C1212  C     0.04248   0.50033   0.75807   0.00000  Uiso   1.00
C1213  C     0.14440   0.35842   0.71849   0.00000  Uiso   1.00
C1214  C     0.18897   0.64158   0.78148   0.00000  Uiso   1.00
C1215  C     0.18887   0.35815   0.78157   0.00000  Uiso   1.00
C1216  C     0.14445   0.64185   0.71844   0.00000  Uiso   1.00
N1217  N     0.16667   0.61736   0.75000   0.00000  Uiso   1.00
N1218  N     0.16667   0.38264   0.75000   0.00000  Uiso   1.00
N1219  N     0.24205   0.50129   0.88359   0.00000  Uiso   1.00
H1220  H     0.24334   0.47026   0.86528   0.00000  Uiso   1.00
H1221  H     0.24251   0.52950   0.86153   0.00000  Uiso   1.00
N1222  N     0.09127   0.49872   0.61642   0.00000  Uiso   1.00
H1223  H     0.09081   0.47050   0.63847   0.00000  Uiso   1.00
H1224  H     0.08997   0.52974   0.63475   0.00000  Uiso   1.00
C1225  C     0.09039   0.51227   0.88004   0.00000  Uiso   1.00
H1226  H     0.09585   0.54462   0.86082   0.00000  Uiso   1.00
H1227  H     0.08114   0.48416   0.85650   0.00000  Uiso   1.00
H1228  H     0.06475   0.52099   0.90218   0.00000  Uiso   1.00
C1229  C     0.24292   0.48771   0.61993   0.00000  Uiso   1.00
H1230  H     0.23745   0.45534   0.63911   0.00000  Uiso   1.00
H1231  H     0.26855   0.47901   0.59777   0.00000  Uiso   1.00
H1232  H     0.25218   0.51579   0.64350   0.00000  Uiso   1.00
C1233  C     0.06194   0.44580   0.95111   0.00000  Uiso   1.00
H1234  H     0.07079   0.43447   0.91743   0.00000  Uiso   1.00
H1235  H     0.05689   0.41264   0.96919   0.00000  Uiso   1.00
H1236  H     0.03267   0.46576   0.94915   0.00000  Uiso   1.00
C1237  C     0.27135   0.55425   0.54890   0.00000  Uiso   1.00
H1238  H     0.26251   0.56555   0.58259   0.00000  Uiso   1.00
H1239  H     0.30063   0.53429   0.55084   0.00000  Uiso   1.00
H1240  H     0.27639   0.58742   0.53084   0.00000  Uiso   1.00
N1241  N     0.05655   0.46764   0.54376   0.00000  Uiso   1.00
H1242  H     0.03203   0.48629   0.52925   0.00000  Uiso   1.00
H1243  H     0.05100   0.43185   0.54095   0.00000  Uiso   1.00
N1244  N     0.27674   0.53244   0.95623   0.00000  Uiso   1.00
H1245  H     0.28228   0.56824   0.95906   0.00000  Uiso   1.00
H1246  H     0.30127   0.51380   0.97074   0.00000  Uiso   1.00
C1247  C     0.04013   0.41290   0.77644   0.00000  Uiso   1.00
H1248  H     0.06320   0.42064   0.80315   0.00000  Uiso   1.00
H1249  H     0.01676   0.39086   0.79245   0.00000  Uiso   1.00
H1250  H     0.05436   0.39235   0.74962   0.00000  Uiso   1.00
C1251  C     0.29314   0.58709   0.72338   0.00000  Uiso   1.00
H1252  H     0.27004   0.57932   0.69672   0.00000  Uiso   1.00
H1253  H     0.27894   0.60769   0.75019   0.00000  Uiso   1.00
H1254  H     0.31649   0.60911   0.70730   0.00000  Uiso   1.00
C1255  C     0.29452   0.41131   0.72806   0.00000  Uiso   1.00
H1256  H     0.27139   0.41727   0.70099   0.00000  Uiso   1.00
H1257  H     0.31828   0.38855   0.71316   0.00000  Uiso   1.00
H1258  H     0.28069   0.39224   0.75590   0.00000  Uiso   1.00
C1259  C     0.03885   0.58876   0.77158   0.00000  Uiso   1.00
H1260  H     0.06172   0.58286   0.79892   0.00000  Uiso   1.00
H1261  H     0.05303   0.60747   0.74374   0.00000  Uiso   1.00
H1262  H     0.01510   0.61183   0.78604   0.00000  Uiso   1.00
N1263  N     0.12124   0.38381   0.68535   0.00000  Uiso   1.00
H1264  H     0.09045   0.37415   0.68656   0.00000  Uiso   1.00
H1265  H     0.13220   0.37493   0.65404   0.00000  Uiso   1.00
N1266  N     0.21221   0.61619   0.81455   0.00000  Uiso   1.00
H1267  H     0.24295   0.62605   0.81341   0.00000  Uiso   1.00
H1268  H     0.20119   0.62489   0.84588   0.00000  Uiso   1.00
N1269  N     0.21156   0.38321   0.81515   0.00000  Uiso   1.00
H1270  H     0.24232   0.37286   0.81473   0.00000  Uiso   1.00
H1271  H     0.19998   0.37451   0.84621   0.00000  Uiso   1.00
N1272  N     0.12180   0.61679   0.68483   0.00000  Uiso   1.00
H1273  H     0.09116   0.62754   0.68477   0.00000  Uiso   1.00
H1274  H     0.13379   0.62502   0.65387   0.00000  Uiso   1.00
O1275  O     0.43988   0.53958   0.75000   0.00000  Uiso   1.00
O1276  O     0.56012   0.46042   0.75001   0.00000  Uiso   1.00
O1277  O     0.56012   0.53958   0.75001   0.00000  Uiso   1.00
O1278  O     0.43988   0.46042   0.75000   0.00000  Uiso   1.00
C1279  C     0.42085   0.50013   0.75416   0.00000  Uiso   1.00
C1280  C     0.57914   0.49987   0.74579   0.00000  Uiso   1.00
O1281  O     0.49999   0.53960   0.68513   0.00000  Uiso   1.00
O1282  O     0.50001   0.46040   0.81487   0.00000  Uiso   1.00
O1283  O     0.50001   0.53960   0.81487   0.00000  Uiso   1.00
O1284  O     0.49999   0.46040   0.68513   0.00000  Uiso   1.00
C1285  C     0.49993   0.49999   0.66460   0.00000  Uiso   1.00
C1286  C     0.50006   0.50001   0.83539   0.00000  Uiso   1.00
Cu1287 Cu    0.50000   0.54689   0.75000   0.00000  Uiso   1.00
Cu1288 Cu    0.50000   0.45311   0.75000   0.00000  Uiso   1.00
C1289  C     0.53757   0.50247   0.90730   0.00000  Uiso   1.00
C1290  C     0.46241   0.49755   0.59270   0.00000  Uiso   1.00
C1291  C     0.50006   0.49998   0.88363   0.00000  Uiso   1.00
C1292  C     0.49992   0.50002   0.61637   0.00000  Uiso   1.00
C1293  C     0.46266   0.49856   0.90564   0.00000  Uiso   1.00
C1294  C     0.53731   0.50145   0.59435   0.00000  Uiso   1.00
C1295  C     0.46324   0.49069   0.95204   0.00000  Uiso   1.00
C1296  C     0.53673   0.50934   0.54796   0.00000  Uiso   1.00
C1297  C     0.50016   0.49960   0.97655   0.00000  Uiso   1.00
C1298  C     0.49981   0.50044   0.52345   0.00000  Uiso   1.00
C1299  C     0.53751   0.50709   0.95410   0.00000  Uiso   1.00
C1300  C     0.46246   0.49296   0.54590   0.00000  Uiso   1.00
C1301  C     0.42844   0.47428   0.97468   0.00000  Uiso   1.00
C1302  C     0.57152   0.52576   0.52532   0.00000  Uiso   1.00
C1303  C     0.42694   0.47913   0.52126   0.00000  Uiso   1.00
C1304  C     0.57303   0.52093   0.97874   0.00000  Uiso   1.00
C1305  C     0.35430   0.45750   0.75784   0.00000  Uiso   1.00
C1306  C     0.64566   0.54253   0.74202   0.00000  Uiso   1.00
C1307  C     0.64626   0.45701   0.74435   0.00000  Uiso   1.00
C1308  C     0.35372   0.54302   0.75546   0.00000  Uiso   1.00
C1309  C     0.62416   0.49969   0.74180   0.00000  Uiso   1.00
C1310  C     0.37581   0.50033   0.75807   0.00000  Uiso   1.00
C1311  C     0.47774   0.35842   0.71849   0.00000  Uiso   1.00
C1312  C     0.52230   0.64158   0.78148   0.00000  Uiso   1.00
C1313  C     0.52221   0.35815   0.78157   0.00000  Uiso   1.00
C1314  C     0.47779   0.64185   0.71844   0.00000  Uiso   1.00
N1315  N     0.50000   0.61736   0.75000   0.00000  Uiso   1.00
N1316  N     0.50000   0.38264   0.75000   0.00000  Uiso   1.00
N1317  N     0.57538   0.50129   0.88359   0.00000  Uiso   1.00
H1318  H     0.57668   0.47026   0.86528   0.00000  Uiso   1.00
H1319  H     0.57584   0.52950   0.86153   0.00000  Uiso   1.00
N1320  N     0.42460   0.49872   0.61642   0.00000  Uiso   1.00
H1321  H     0.42414   0.47050   0.63847   0.00000  Uiso   1.00
H1322  H     0.42331   0.52974   0.63475   0.00000  Uiso   1.00
C1323  C     0.42372   0.51227   0.88004   0.00000  Uiso   1.00
H1324  H     0.42918   0.54462   0.86082   0.00000  Uiso   1.00
H1325  H     0.41448   0.48416   0.85650   0.00000  Uiso   1.00
H1326  H     0.39809   0.52099   0.90218   0.00000  Uiso   1.00
C1327  C     0.57626   0.48771   0.61993   0.00000  Uiso   1.00
H1328  H     0.57078   0.45534   0.63911   0.00000  Uiso   1.00
H1329  H     0.60189   0.47901   0.59777   0.00000  Uiso   1.00
H1330  H     0.58551   0.51579   0.64350   0.00000  Uiso   1.00
C1331  C     0.39527   0.44580   0.95111   0.00000  Uiso   1.00
H1332  H     0.40412   0.43447   0.91743   0.00000  Uiso   1.00
H1333  H     0.39022   0.41264   0.96919   0.00000  Uiso   1.00
H1334  H     0.36600   0.46576   0.94915   0.00000  Uiso   1.00
C1335  C     0.60469   0.55425   0.54890   0.00000  Uiso   1.00
H1336  H     0.59584   0.56555   0.58259   0.00000  Uiso   1.00
H1337  H     0.63397   0.53429   0.55084   0.00000  Uiso   1.00
H1338  H     0.60973   0.58742   0.53084   0.00000  Uiso   1.00
N1339  N     0.38988   0.46764   0.54376   0.00000  Uiso   1.00
H1340  H     0.36536   0.48629   0.52925   0.00000  Uiso   1.00
H1341  H     0.38433   0.43185   0.54095   0.00000  Uiso   1.00
N1342  N     0.61008   0.53244   0.95623   0.00000  Uiso   1.00
H1343  H     0.61562   0.56824   0.95906   0.00000  Uiso   1.00
H1344  H     0.63460   0.51380   0.97074   0.00000  Uiso   1.00
C1345  C     0.37347   0.41290   0.77644   0.00000  Uiso   1.00
H1346  H     0.39653   0.42064   0.80315   0.00000  Uiso   1.00
H1347  H     0.35010   0.39086   0.79245   0.00000  Uiso   1.00
H1348  H     0.38770   0.39235   0.74962   0.00000  Uiso   1.00
C1349  C     0.62647   0.58709   0.72338   0.00000  Uiso   1.00
H1350  H     0.60337   0.57932   0.69672   0.00000  Uiso   1.00
H1351  H     0.61227   0.60769   0.75019   0.00000  Uiso   1.00
H1352  H     0.64983   0.60911   0.70730   0.00000  Uiso   1.00
C1353  C     0.62786   0.41131   0.72806   0.00000  Uiso   1.00
H1354  H     0.60472   0.41727   0.70099   0.00000  Uiso   1.00
H1355  H     0.65161   0.38855   0.71316   0.00000  Uiso   1.00
H1356  H     0.61403   0.39224   0.75590   0.00000  Uiso   1.00
C1357  C     0.37218   0.58876   0.77158   0.00000  Uiso   1.00
H1358  H     0.39505   0.58286   0.79892   0.00000  Uiso   1.00
H1359  H     0.38636   0.60747   0.74374   0.00000  Uiso   1.00
H1360  H     0.34843   0.61183   0.78604   0.00000  Uiso   1.00
N1361  N     0.45457   0.38381   0.68535   0.00000  Uiso   1.00
H1362  H     0.42379   0.37415   0.68656   0.00000  Uiso   1.00
H1363  H     0.46553   0.37493   0.65404   0.00000  Uiso   1.00
N1364  N     0.54555   0.61619   0.81455   0.00000  Uiso   1.00
H1365  H     0.57629   0.62605   0.81341   0.00000  Uiso   1.00
H1366  H     0.53452   0.62489   0.84588   0.00000  Uiso   1.00
N1367  N     0.54490   0.38321   0.81515   0.00000  Uiso   1.00
H1368  H     0.57565   0.37286   0.81473   0.00000  Uiso   1.00
H1369  H     0.53331   0.37451   0.84621   0.00000  Uiso   1.00
N1370  N     0.45513   0.61679   0.68483   0.00000  Uiso   1.00
H1371  H     0.42450   0.62754   0.68477   0.00000  Uiso   1.00
H1372  H     0.46712   0.62502   0.65387   0.00000  Uiso   1.00
O1373  O     0.77321   0.53958   0.75000   0.00000  Uiso   1.00
O1374  O     0.89345   0.46042   0.75001   0.00000  Uiso   1.00
O1375  O     0.89345   0.53958   0.75001   0.00000  Uiso   1.00
O1376  O     0.77321   0.46042   0.75000   0.00000  Uiso   1.00
C1377  C     0.75418   0.50013   0.75416   0.00000  Uiso   1.00
C1378  C     0.91248   0.49987   0.74579   0.00000  Uiso   1.00
O1379  O     0.83332   0.53960   0.68513   0.00000  Uiso   1.00
O1380  O     0.83334   0.46040   0.81487   0.00000  Uiso   1.00
O1381  O     0.83334   0.53960   0.81487   0.00000  Uiso   1.00
O1382  O     0.83332   0.46040   0.68513   0.00000  Uiso   1.00
C1383  C     0.83326   0.49999   0.66460   0.00000  Uiso   1.00
C1384  C     0.83340   0.50001   0.83539   0.00000  Uiso   1.00
Cu1385 Cu    0.83333   0.54689   0.75000   0.00000  Uiso   1.00
Cu1386 Cu    0.83333   0.45311   0.75000   0.00000  Uiso   1.00
C1387  C     0.87090   0.50247   0.90730   0.00000  Uiso   1.00
C1388  C     0.79574   0.49755   0.59270   0.00000  Uiso   1.00
C1389  C     0.83339   0.49998   0.88363   0.00000  Uiso   1.00
C1390  C     0.83325   0.50002   0.61637   0.00000  Uiso   1.00
C1391  C     0.79600   0.49856   0.90564   0.00000  Uiso   1.00
C1392  C     0.87065   0.50145   0.59435   0.00000  Uiso   1.00
C1393  C     0.79657   0.49069   0.95204   0.00000  Uiso   1.00
C1394  C     0.87006   0.50934   0.54796   0.00000  Uiso   1.00
C1395  C     0.83349   0.49960   0.97655   0.00000  Uiso   1.00
C1396  C     0.83314   0.50044   0.52345   0.00000  Uiso   1.00
C1397  C     0.87084   0.50709   0.95410   0.00000  Uiso   1.00
C1398  C     0.79579   0.49296   0.54590   0.00000  Uiso   1.00
C1399  C     0.76178   0.47428   0.97468   0.00000  Uiso   1.00
C1400  C     0.90485   0.52576   0.52532   0.00000  Uiso   1.00
C1401  C     0.76027   0.47913   0.52126   0.00000  Uiso   1.00
C1402  C     0.90636   0.52093   0.97874   0.00000  Uiso   1.00
C1403  C     0.68764   0.45750   0.75784   0.00000  Uiso   1.00
C1404  C     0.97900   0.54253   0.74202   0.00000  Uiso   1.00
C1405  C     0.97959   0.45701   0.74435   0.00000  Uiso   1.00
C1406  C     0.68706   0.54302   0.75546   0.00000  Uiso   1.00
C1407  C     0.95750   0.49969   0.74180   0.00000  Uiso   1.00
C1408  C     0.70915   0.50033   0.75807   0.00000  Uiso   1.00
C1409  C     0.81107   0.35842   0.71849   0.00000  Uiso   1.00
C1410  C     0.85563   0.64158   0.78148   0.00000  Uiso   1.00
C1411  C     0.85554   0.35815   0.78157   0.00000  Uiso   1.00
C1412  C     0.81112   0.64185   0.71844   0.00000  Uiso   1.00
N1413  N     0.83333   0.61736   0.75000   0.00000  Uiso   1.00
N1414  N     0.83333   0.38264   0.75000   0.00000  Uiso   1.00
N1415  N     0.90871   0.50129   0.88359   0.00000  Uiso   1.00
H1416  H     0.91001   0.47026   0.86528   0.00000  Uiso   1.00
H1417  H     0.90918   0.52950   0.86153   0.00000  Uiso   1.00
N1418  N     0.75794   0.49872   0.61642   0.00000  Uiso   1.00
H1419  H     0.75747   0.47050   0.63847   0.00000  Uiso   1.00
H1420  H     0.75664   0.52974   0.63475   0.00000  Uiso   1.00
C1421  C     0.75705   0.51227   0.88004   0.00000  Uiso   1.00
H1422  H     0.76252   0.54462   0.86082   0.00000  Uiso   1.00
H1423  H     0.74781   0.48416   0.85650   0.00000  Uiso   1.00
H1424  H     0.73142   0.52099   0.90218   0.00000  Uiso   1.00
C1425  C     0.90959   0.48771   0.61993   0.00000  Uiso   1.00
H1426  H     0.90412   0.45534   0.63911   0.00000  Uiso   1.00
H1427  H     0.93522   0.47901   0.59777   0.00000  Uiso   1.00
H1428  H     0.91884   0.51579   0.64350   0.00000  Uiso   1.00
C1429  C     0.72861   0.44580   0.95111   0.00000  Uiso   1.00
H1430  H     0.73746   0.43447   0.91743   0.00000  Uiso   1.00
H1431  H     0.72356   0.41264   0.96919   0.00000  Uiso   1.00
H1432  H     0.69934   0.46576   0.94915   0.00000  Uiso   1.00
C1433  C     0.93802   0.55425   0.54890   0.00000  Uiso   1.00
H1434  H     0.92918   0.56555   0.58259   0.00000  Uiso   1.00
H1435  H     0.96730   0.53429   0.55084   0.00000  Uiso   1.00
H1436  H     0.94306   0.58742   0.53084   0.00000  Uiso   1.00
N1437  N     0.72322   0.46764   0.54376   0.00000  Uiso   1.00
H1438  H     0.69870   0.48629   0.52925   0.00000  Uiso   1.00
H1439  H     0.71766   0.43185   0.54095   0.00000  Uiso   1.00
N1440  N     0.94341   0.53244   0.95623   0.00000  Uiso   1.00
H1441  H     0.94895   0.56824   0.95906   0.00000  Uiso   1.00
H1442  H     0.96793   0.51380   0.97074   0.00000  Uiso   1.00
C1443  C     0.70680   0.41290   0.77644   0.00000  Uiso   1.00
H1444  H     0.72986   0.42064   0.80315   0.00000  Uiso   1.00
H1445  H     0.68343   0.39086   0.79245   0.00000  Uiso   1.00
H1446  H     0.72103   0.39235   0.74962   0.00000  Uiso   1.00
C1447  C     0.95981   0.58709   0.72338   0.00000  Uiso   1.00
H1448  H     0.93670   0.57932   0.69672   0.00000  Uiso   1.00
H1449  H     0.94561   0.60769   0.75019   0.00000  Uiso   1.00
H1450  H     0.98316   0.60911   0.70730   0.00000  Uiso   1.00
C1451  C     0.96119   0.41131   0.72806   0.00000  Uiso   1.00
H1452  H     0.93805   0.41727   0.70099   0.00000  Uiso   1.00
H1453  H     0.98495   0.38855   0.71316   0.00000  Uiso   1.00
H1454  H     0.94736   0.39224   0.75590   0.00000  Uiso   1.00
C1455  C     0.70551   0.58876   0.77158   0.00000  Uiso   1.00
H1456  H     0.72839   0.58286   0.79892   0.00000  Uiso   1.00
H1457  H     0.71970   0.60747   0.74374   0.00000  Uiso   1.00
H1458  H     0.68176   0.61183   0.78604   0.00000  Uiso   1.00
N1459  N     0.78790   0.38381   0.68535   0.00000  Uiso   1.00
H1460  H     0.75712   0.37415   0.68656   0.00000  Uiso   1.00
H1461  H     0.79886   0.37493   0.65404   0.00000  Uiso   1.00
N1462  N     0.87888   0.61619   0.81455   0.00000  Uiso   1.00
H1463  H     0.90962   0.62605   0.81341   0.00000  Uiso   1.00
H1464  H     0.86786   0.62489   0.84588   0.00000  Uiso   1.00
N1465  N     0.87823   0.38321   0.81515   0.00000  Uiso   1.00
H1466  H     0.90899   0.37286   0.81473   0.00000  Uiso   1.00
H1467  H     0.86665   0.37451   0.84621   0.00000  Uiso   1.00
N1468  N     0.78847   0.61679   0.68483   0.00000  Uiso   1.00
H1469  H     0.75783   0.62754   0.68477   0.00000  Uiso   1.00
H1470  H     0.80045   0.62502   0.65387   0.00000  Uiso   1.00
O1471  O     0.10655   0.87291   0.75000   0.00000  Uiso   1.00
O1472  O     0.22679   0.79375   0.75001   0.00000  Uiso   1.00
O1473  O     0.22679   0.87291   0.75001   0.00000  Uiso   1.00
O1474  O     0.10655   0.79375   0.75000   0.00000  Uiso   1.00
C1475  C     0.08751   0.83346   0.75416   0.00000  Uiso   1.00
C1476  C     0.24581   0.83321   0.74579   0.00000  Uiso   1.00
O1477  O     0.16666   0.87293   0.68513   0.00000  Uiso   1.00
O1478  O     0.16668   0.79373   0.81487   0.00000  Uiso   1.00
O1479  O     0.16668   0.87293   0.81487   0.00000  Uiso   1.00
O1480  O     0.16666   0.79373   0.68513   0.00000  Uiso   1.00
C1481  C     0.16660   0.83332   0.66460   0.00000  Uiso   1.00
C1482  C     0.16673   0.83334   0.83539   0.00000  Uiso   1.00
Cu1483 Cu    0.16667   0.88022   0.75000   0.00000  Uiso   1.00
Cu1484 Cu    0.16667   0.78645   0.75000   0.00000  Uiso   1.00
C1485  C     0.20423   0.83580   0.90730   0.00000  Uiso   1.00
C1486  C     0.12908   0.83089   0.59270   0.00000  Uiso   1.00
C1487  C     0.16673   0.83331   0.88363   0.00000  Uiso   1.00
C1488  C     0.16659   0.83336   0.61637   0.00000  Uiso   1.00
C1489  C     0.12933   0.83190   0.90564   0.00000  Uiso   1.00
C1490  C     0.20398   0.83478   0.59435   0.00000  Uiso   1.00
C1491  C     0.12991   0.82403   0.95204   0.00000  Uiso   1.00
C1492  C     0.20339   0.84267   0.54796   0.00000  Uiso   1.00
C1493  C     0.16683   0.83293   0.97655   0.00000  Uiso   1.00
C1494  C     0.16647   0.83378   0.52345   0.00000  Uiso   1.00
C1495  C     0.20417   0.84042   0.95410   0.00000  Uiso   1.00
C1496  C     0.12913   0.82629   0.54590   0.00000  Uiso   1.00
C1497  C     0.09511   0.80762   0.97468   0.00000  Uiso   1.00
C1498  C     0.23819   0.85910   0.52532   0.00000  Uiso   1.00
C1499  C     0.09360   0.81246   0.52126   0.00000  Uiso   1.00
C1500  C     0.23969   0.85426   0.97874   0.00000  Uiso   1.00
C1501  C     0.02097   0.79083   0.75784   0.00000  Uiso   1.00
C1502  C     0.31233   0.87586   0.74202   0.00000  Uiso   1.00
C1503  C     0.31292   0.79034   0.74435   0.00000  Uiso   1.00
C1504  C     0.02039   0.87636   0.75546   0.00000  Uiso   1.00
C1505  C     0.29083   0.83302   0.74180   0.00000  Uiso   1.00
C1506  C     0.04248   0.83366   0.75807   0.00000  Uiso   1.00
C1507  C     0.14440   0.69176   0.71849   0.00000  Uiso   1.00
C1508  C     0.18897   0.97491   0.78148   0.00000  Uiso   1.00
C1509  C     0.18887   0.69148   0.78157   0.00000  Uiso   1.00
C1510  C     0.14445   0.97519   0.71844   0.00000  Uiso   1.00
N1511  N     0.16667   0.95069   0.75000   0.00000  Uiso   1.00
N1512  N     0.16667   0.71598   0.75000   0.00000  Uiso   1.00
N1513  N     0.24205   0.83463   0.88359   0.00000  Uiso   1.00
H1514  H     0.24334   0.80360   0.86528   0.00000  Uiso   1.00
H1515  H     0.24251   0.86283   0.86153   0.00000  Uiso   1.00
N1516  N     0.09127   0.83205   0.61642   0.00000  Uiso   1.00
H1517  H     0.09081   0.80384   0.63847   0.00000  Uiso   1.00
H1518  H     0.08997   0.86308   0.63475   0.00000  Uiso   1.00
C1519  C     0.09039   0.84560   0.88004   0.00000  Uiso   1.00
H1520  H     0.09585   0.87795   0.86082   0.00000  Uiso   1.00
H1521  H     0.08114   0.81749   0.85650   0.00000  Uiso   1.00
H1522  H     0.06475   0.85432   0.90218   0.00000  Uiso   1.00
C1523  C     0.24292   0.82104   0.61993   0.00000  Uiso   1.00
H1524  H     0.23745   0.78867   0.63911   0.00000  Uiso   1.00
H1525  H     0.26855   0.81235   0.59777   0.00000  Uiso   1.00
H1526  H     0.25218   0.84912   0.64350   0.00000  Uiso   1.00
C1527  C     0.06194   0.77913   0.95111   0.00000  Uiso   1.00
H1528  H     0.07079   0.76780   0.91743   0.00000  Uiso   1.00
H1529  H     0.05689   0.74597   0.96919   0.00000  Uiso   1.00
H1530  H     0.03267   0.79909   0.94915   0.00000  Uiso   1.00
C1531  C     0.27135   0.88758   0.54890   0.00000  Uiso   1.00
H1532  H     0.26251   0.89888   0.58259   0.00000  Uiso   1.00
H1533  H     0.30063   0.86762   0.55084   0.00000  Uiso   1.00
H1534  H     0.27639   0.92075   0.53084   0.00000  Uiso   1.00
N1535  N     0.05655   0.80097   0.54376   0.00000  Uiso   1.00
H1536  H     0.03203   0.81962   0.52925   0.00000  Uiso   1.00
H1537  H     0.05100   0.76518   0.54095   0.00000  Uiso   1.00
N1538  N     0.27674   0.86577   0.95623   0.00000  Uiso   1.00
H1539  H     0.28228   0.90157   0.95906   0.00000  Uiso   1.00
H1540  H     0.30127   0.84713   0.97074   0.00000  Uiso   1.00
C1541  C     0.04013   0.74624   0.77644   0.00000  Uiso   1.00
H1542  H     0.06320   0.75397   0.80315   0.00000  Uiso   1.00
H1543  H     0.01676   0.72419   0.79245   0.00000  Uiso   1.00
H1544  H     0.05436   0.72568   0.74962   0.00000  Uiso   1.00
C1545  C     0.29314   0.92043   0.72338   0.00000  Uiso   1.00
H1546  H     0.27004   0.91265   0.69672   0.00000  Uiso   1.00
H1547  H     0.27894   0.94102   0.75019   0.00000  Uiso   1.00
H1548  H     0.31649   0.94244   0.70730   0.00000  Uiso   1.00
C1549  C     0.29452   0.74464   0.72806   0.00000  Uiso   1.00
H1550  H     0.27139   0.75060   0.70099   0.00000  Uiso   1.00
H1551  H     0.31828   0.72188   0.71316   0.00000  Uiso   1.00
H1552  H     0.28069   0.72558   0.75590   0.00000  Uiso   1.00
C1553  C     0.03885   0.92209   0.77158   0.00000  Uiso   1.00
H1554  H     0.06172   0.91619   0.79892   0.00000  Uiso   1.00
H1555  H     0.05303   0.94080   0.74374   0.00000  Uiso   1.00
H1556  H     0.01510   0.94517   0.78604   0.00000  Uiso   1.00
N1557  N     0.12124   0.71715   0.68535   0.00000  Uiso   1.00
H1558  H     0.09045   0.70748   0.68656   0.00000  Uiso   1.00
H1559  H     0.13220   0.70826   0.65404   0.00000  Uiso   1.00
N1560  N     0.21221   0.94952   0.81455   0.00000  Uiso   1.00
H1561  H     0.24295   0.95938   0.81341   0.00000  Uiso   1.00
H1562  H     0.20119   0.95823   0.84588   0.00000  Uiso   1.00
N1563  N     0.21156   0.71654   0.81515   0.00000  Uiso   1.00
H1564  H     0.24232   0.70619   0.81473   0.00000  Uiso   1.00
H1565  H     0.19998   0.70785   0.84621   0.00000  Uiso   1.00
N1566  N     0.12180   0.95012   0.68483   0.00000  Uiso   1.00
H1567  H     0.09116   0.96087   0.68477   0.00000  Uiso   1.00
H1568  H     0.13379   0.95835   0.65387   0.00000  Uiso   1.00
O1569  O     0.43988   0.87291   0.75000   0.00000  Uiso   1.00
O1570  O     0.56012   0.79375   0.75001   0.00000  Uiso   1.00
O1571  O     0.56012   0.87291   0.75001   0.00000  Uiso   1.00
O1572  O     0.43988   0.79375   0.75000   0.00000  Uiso   1.00
C1573  C     0.42085   0.83346   0.75416   0.00000  Uiso   1.00
C1574  C     0.57914   0.83321   0.74579   0.00000  Uiso   1.00
O1575  O     0.49999   0.87293   0.68513   0.00000  Uiso   1.00
O1576  O     0.50001   0.79373   0.81487   0.00000  Uiso   1.00
O1577  O     0.50001   0.87293   0.81487   0.00000  Uiso   1.00
O1578  O     0.49999   0.79373   0.68513   0.00000  Uiso   1.00
C1579  C     0.49993   0.83332   0.66460   0.00000  Uiso   1.00
C1580  C     0.50006   0.83334   0.83539   0.00000  Uiso   1.00
Cu1581 Cu    0.50000   0.88022   0.75000   0.00000  Uiso   1.00
Cu1582 Cu    0.50000   0.78645   0.75000   0.00000  Uiso   1.00
C1583  C     0.53757   0.83580   0.90730   0.00000  Uiso   1.00
C1584  C     0.46241   0.83089   0.59270   0.00000  Uiso   1.00
C1585  C     0.50006   0.83331   0.88363   0.00000  Uiso   1.00
C1586  C     0.49992   0.83336   0.61637   0.00000  Uiso   1.00
C1587  C     0.46266   0.83190   0.90564   0.00000  Uiso   1.00
C1588  C     0.53731   0.83478   0.59435   0.00000  Uiso   1.00
C1589  C     0.46324   0.82403   0.95204   0.00000  Uiso   1.00
C1590  C     0.53673   0.84267   0.54796   0.00000  Uiso   1.00
C1591  C     0.50016   0.83293   0.97655   0.00000  Uiso   1.00
C1592  C     0.49981   0.83378   0.52345   0.00000  Uiso   1.00
C1593  C     0.53751   0.84042   0.95410   0.00000  Uiso   1.00
C1594  C     0.46246   0.82629   0.54590   0.00000  Uiso   1.00
C1595  C     0.42844   0.80762   0.97468   0.00000  Uiso   1.00
C1596  C     0.57152   0.85910   0.52532   0.00000  Uiso   1.00
C1597  C     0.42694   0.81246   0.52126   0.00000  Uiso   1.00
C1598  C     0.57303   0.85426   0.97874   0.00000  Uiso   1.00
C1599  C     0.35430   0.79083   0.75784   0.00000  Uiso   1.00
C1600  C     0.64566   0.87586   0.74202   0.00000  Uiso   1.00
C1601  C     0.64626   0.79034   0.74435   0.00000  Uiso   1.00
C1602  C     0.35372   0.87636   0.75546   0.00000  Uiso   1.00
C1603  C     0.62416   0.83302   0.74180   0.00000  Uiso   1.00
C1604  C     0.37581   0.83366   0.75807   0.00000  Uiso   1.00
C1605  C     0.47774   0.69176   0.71849   0.00000  Uiso   1.00
C1606  C     0.52230   0.97491   0.78148   0.00000  Uiso   1.00
C1607  C     0.52221   0.69148   0.78157   0.00000  Uiso   1.00
C1608  C     0.47779   0.97519   0.71844   0.00000  Uiso   1.00
N1609  N     0.50000   0.95069   0.75000   0.00000  Uiso   1.00
N1610  N     0.50000   0.71598   0.75000   0.00000  Uiso   1.00
N1611  N     0.57538   0.83463   0.88359   0.00000  Uiso   1.00
H1612  H     0.57668   0.80360   0.86528   0.00000  Uiso   1.00
H1613  H     0.57584   0.86283   0.86153   0.00000  Uiso   1.00
N1614  N     0.42460   0.83205   0.61642   0.00000  Uiso   1.00
H1615  H     0.42414   0.80384   0.63847   0.00000  Uiso   1.00
H1616  H     0.42331   0.86308   0.63475   0.00000  Uiso   1.00
C1617  C     0.42372   0.84560   0.88004   0.00000  Uiso   1.00
H1618  H     0.42918   0.87795   0.86082   0.00000  Uiso   1.00
H1619  H     0.41448   0.81749   0.85650   0.00000  Uiso   1.00
H1620  H     0.39809   0.85432   0.90218   0.00000  Uiso   1.00
C1621  C     0.57626   0.82104   0.61993   0.00000  Uiso   1.00
H1622  H     0.57078   0.78867   0.63911   0.00000  Uiso   1.00
H1623  H     0.60189   0.81235   0.59777   0.00000  Uiso   1.00
H1624  H     0.58551   0.84912   0.64350   0.00000  Uiso   1.00
C1625  C     0.39527   0.77913   0.95111   0.00000  Uiso   1.00
H1626  H     0.40412   0.76780   0.91743   0.00000  Uiso   1.00
H1627  H     0.39022   0.74597   0.96919   0.00000  Uiso   1.00
H1628  H     0.36600   0.79909   0.94915   0.00000  Uiso   1.00
C1629  C     0.60469   0.88758   0.54890   0.00000  Uiso   1.00
H1630  H     0.59584   0.89888   0.58259   0.00000  Uiso   1.00
H1631  H     0.63397   0.86762   0.55084   0.00000  Uiso   1.00
H1632  H     0.60973   0.92075   0.53084   0.00000  Uiso   1.00
N1633  N     0.38988   0.80097   0.54376   0.00000  Uiso   1.00
H1634  H     0.36536   0.81962   0.52925   0.00000  Uiso   1.00
H1635  H     0.38433   0.76518   0.54095   0.00000  Uiso   1.00
N1636  N     0.61008   0.86577   0.95623   0.00000  Uiso   1.00
H1637  H     0.61562   0.90157   0.95906   0.00000  Uiso   1.00
H1638  H     0.63460   0.84713   0.97074   0.00000  Uiso   1.00
C1639  C     0.37347   0.74624   0.77644   0.00000  Uiso   1.00
H1640  H     0.39653   0.75397   0.80315   0.00000  Uiso   1.00
H1641  H     0.35010   0.72419   0.79245   0.00000  Uiso   1.00
H1642  H     0.38770   0.72568   0.74962   0.00000  Uiso   1.00
C1643  C     0.62647   0.92043   0.72338   0.00000  Uiso   1.00
H1644  H     0.60337   0.91265   0.69672   0.00000  Uiso   1.00
H1645  H     0.61227   0.94102   0.75019   0.00000  Uiso   1.00
H1646  H     0.64983   0.94244   0.70730   0.00000  Uiso   1.00
C1647  C     0.62786   0.74464   0.72806   0.00000  Uiso   1.00
H1648  H     0.60472   0.75060   0.70099   0.00000  Uiso   1.00
H1649  H     0.65161   0.72188   0.71316   0.00000  Uiso   1.00
H1650  H     0.61403   0.72558   0.75590   0.00000  Uiso   1.00
C1651  C     0.37218   0.92209   0.77158   0.00000  Uiso   1.00
H1652  H     0.39505   0.91619   0.79892   0.00000  Uiso   1.00
H1653  H     0.38636   0.94080   0.74374   0.00000  Uiso   1.00
H1654  H     0.34843   0.94517   0.78604   0.00000  Uiso   1.00
N1655  N     0.45457   0.71715   0.68535   0.00000  Uiso   1.00
H1656  H     0.42379   0.70748   0.68656   0.00000  Uiso   1.00
H1657  H     0.46553   0.70826   0.65404   0.00000  Uiso   1.00
N1658  N     0.54555   0.94952   0.81455   0.00000  Uiso   1.00
H1659  H     0.57629   0.95938   0.81341   0.00000  Uiso   1.00
H1660  H     0.53452   0.95823   0.84588   0.00000  Uiso   1.00
N1661  N     0.54490   0.71654   0.81515   0.00000  Uiso   1.00
H1662  H     0.57565   0.70619   0.81473   0.00000  Uiso   1.00
H1663  H     0.53331   0.70785   0.84621   0.00000  Uiso   1.00
N1664  N     0.45513   0.95012   0.68483   0.00000  Uiso   1.00
H1665  H     0.42450   0.96087   0.68477   0.00000  Uiso   1.00
H1666  H     0.46712   0.95835   0.65387   0.00000  Uiso   1.00
O1667  O     0.77321   0.87291   0.75000   0.00000  Uiso   1.00
O1668  O     0.89345   0.79375   0.75001   0.00000  Uiso   1.00
O1669  O     0.89345   0.87291   0.75001   0.00000  Uiso   1.00
O1670  O     0.77321   0.79375   0.75000   0.00000  Uiso   1.00
C1671  C     0.75418   0.83346   0.75416   0.00000  Uiso   1.00
C1672  C     0.91248   0.83321   0.74579   0.00000  Uiso   1.00
O1673  O     0.83332   0.87293   0.68513   0.00000  Uiso   1.00
O1674  O     0.83334   0.79373   0.81487   0.00000  Uiso   1.00
O1675  O     0.83334   0.87293   0.81487   0.00000  Uiso   1.00
O1676  O     0.83332   0.79373   0.68513   0.00000  Uiso   1.00
C1677  C     0.83326   0.83332   0.66460   0.00000  Uiso   1.00
C1678  C     0.83340   0.83334   0.83539   0.00000  Uiso   1.00
Cu1679 Cu    0.83333   0.88022   0.75000   0.00000  Uiso   1.00
Cu1680 Cu    0.83333   0.78645   0.75000   0.00000  Uiso   1.00
C1681  C     0.87090   0.83580   0.90730   0.00000  Uiso   1.00
C1682  C     0.79574   0.83089   0.59270   0.00000  Uiso   1.00
C1683  C     0.83339   0.83331   0.88363   0.00000  Uiso   1.00
C1684  C     0.83325   0.83336   0.61637   0.00000  Uiso   1.00
C1685  C     0.79600   0.83190   0.90564   0.00000  Uiso   1.00
C1686  C     0.87065   0.83478   0.59435   0.00000  Uiso   1.00
C1687  C     0.79657   0.82403   0.95204   0.00000  Uiso   1.00
C1688  C     0.87006   0.84267   0.54796   0.00000  Uiso   1.00
C1689  C     0.83349   0.83293   0.97655   0.00000  Uiso   1.00
C1690  C     0.83314   0.83378   0.52345   0.00000  Uiso   1.00
C1691  C     0.87084   0.84042   0.95410   0.00000  Uiso   1.00
C1692  C     0.79579   0.82629   0.54590   0.00000  Uiso   1.00
C1693  C     0.76178   0.80762   0.97468   0.00000  Uiso   1.00
C1694  C     0.90485   0.85910   0.52532   0.00000  Uiso   1.00
C1695  C     0.76027   0.81246   0.52126   0.00000  Uiso   1.00
C1696  C     0.90636   0.85426   0.97874   0.00000  Uiso   1.00
C1697  C     0.68764   0.79083   0.75784   0.00000  Uiso   1.00
C1698  C     0.97900   0.87586   0.74202   0.00000  Uiso   1.00
C1699  C     0.97959   0.79034   0.74435   0.00000  Uiso   1.00
C1700  C     0.68706   0.87636   0.75546   0.00000  Uiso   1.00
C1701  C     0.95750   0.83302   0.74180   0.00000  Uiso   1.00
C1702  C     0.70915   0.83366   0.75807   0.00000  Uiso   1.00
C1703  C     0.81107   0.69176   0.71849   0.00000  Uiso   1.00
C1704  C     0.85563   0.97491   0.78148   0.00000  Uiso   1.00
C1705  C     0.85554   0.69148   0.78157   0.00000  Uiso   1.00
C1706  C     0.81112   0.97519   0.71844   0.00000  Uiso   1.00
N1707  N     0.83333   0.95069   0.75000   0.00000  Uiso   1.00
N1708  N     0.83333   0.71598   0.75000   0.00000  Uiso   1.00
N1709  N     0.90871   0.83463   0.88359   0.00000  Uiso   1.00
H1710  H     0.91001   0.80360   0.86528   0.00000  Uiso   1.00
H1711  H     0.90918   0.86283   0.86153   0.00000  Uiso   1.00
N1712  N     0.75794   0.83205   0.61642   0.00000  Uiso   1.00
H1713  H     0.75747   0.80384   0.63847   0.00000  Uiso   1.00
H1714  H     0.75664   0.86308   0.63475   0.00000  Uiso   1.00
C1715  C     0.75705   0.84560   0.88004   0.00000  Uiso   1.00
H1716  H     0.76252   0.87795   0.86082   0.00000  Uiso   1.00
H1717  H     0.74781   0.81749   0.85650   0.00000  Uiso   1.00
H1718  H     0.73142   0.85432   0.90218   0.00000  Uiso   1.00
C1719  C     0.90959   0.82104   0.61993   0.00000  Uiso   1.00
H1720  H     0.90412   0.78867   0.63911   0.00000  Uiso   1.00
H1721  H     0.93522   0.81235   0.59777   0.00000  Uiso   1.00
H1722  H     0.91884   0.84912   0.64350   0.00000  Uiso   1.00
C1723  C     0.72861   0.77913   0.95111   0.00000  Uiso   1.00
H1724  H     0.73746   0.76780   0.91743   0.00000  Uiso   1.00
H1725  H     0.72356   0.74597   0.96919   0.00000  Uiso   1.00
H1726  H     0.69934   0.79909   0.94915   0.00000  Uiso   1.00
C1727  C     0.93802   0.88758   0.54890   0.00000  Uiso   1.00
H1728  H     0.92918   0.89888   0.58259   0.00000  Uiso   1.00
H1729  H     0.96730   0.86762   0.55084   0.00000  Uiso   1.00
H1730  H     0.94306   0.92075   0.53084   0.00000  Uiso   1.00
N1731  N     0.72322   0.80097   0.54376   0.00000  Uiso   1.00
H1732  H     0.69870   0.81962   0.52925   0.00000  Uiso   1.00
H1733  H     0.71766   0.76518   0.54095   0.00000  Uiso   1.00
N1734  N     0.94341   0.86577   0.95623   0.00000  Uiso   1.00
H1735  H     0.94895   0.90157   0.95906   0.00000  Uiso   1.00
H1736  H     0.96793   0.84713   0.97074   0.00000  Uiso   1.00
C1737  C     0.70680   0.74624   0.77644   0.00000  Uiso   1.00
H1738  H     0.72986   0.75397   0.80315   0.00000  Uiso   1.00
H1739  H     0.68343   0.72419   0.79245   0.00000  Uiso   1.00
H1740  H     0.72103   0.72568   0.74962   0.00000  Uiso   1.00
C1741  C     0.95981   0.92043   0.72338   0.00000  Uiso   1.00
H1742  H     0.93670   0.91265   0.69672   0.00000  Uiso   1.00
H1743  H     0.94561   0.94102   0.75019   0.00000  Uiso   1.00
H1744  H     0.98316   0.94244   0.70730   0.00000  Uiso   1.00
C1745  C     0.96119   0.74464   0.72806   0.00000  Uiso   1.00
H1746  H     0.93805   0.75060   0.70099   0.00000  Uiso   1.00
H1747  H     0.98495   0.72188   0.71316   0.00000  Uiso   1.00
H1748  H     0.94736   0.72558   0.75590   0.00000  Uiso   1.00
C1749  C     0.70551   0.92209   0.77158   0.00000  Uiso   1.00
H1750  H     0.72839   0.91619   0.79892   0.00000  Uiso   1.00
H1751  H     0.71970   0.94080   0.74374   0.00000  Uiso   1.00
H1752  H     0.68176   0.94517   0.78604   0.00000  Uiso   1.00
N1753  N     0.78790   0.71715   0.68535   0.00000  Uiso   1.00
H1754  H     0.75712   0.70748   0.68656   0.00000  Uiso   1.00
H1755  H     0.79886   0.70826   0.65404   0.00000  Uiso   1.00
N1756  N     0.87888   0.94952   0.81455   0.00000  Uiso   1.00
H1757  H     0.90962   0.95938   0.81341   0.00000  Uiso   1.00
H1758  H     0.86786   0.95823   0.84588   0.00000  Uiso   1.00
N1759  N     0.87823   0.71654   0.81515   0.00000  Uiso   1.00
H1760  H     0.90899   0.70619   0.81473   0.00000  Uiso   1.00
H1761  H     0.86665   0.70785   0.84621   0.00000  Uiso   1.00
N1762  N     0.78847   0.95012   0.68483   0.00000  Uiso   1.00
H1763  H     0.75783   0.96087   0.68477   0.00000  Uiso   1.00
H1764  H     0.80045   0.95835   0.65387   0.00000  Uiso   1.00
loop_
_geom_bond_atom_site_label_1
_geom_bond_atom_site_label_2
_geom_bond_distance
_geom_bond_site_symmetry_2
_ccdc_geom_bond_type
O1     C5      1.299   .     A
O1     Cu13    1.972   .     S
O2     C6      1.299   .     A
O2     Cu14    1.972   .     S
O3     C6      1.299   .     A
O3     Cu13    1.969   .     S
O4     C5      1.299   .     A
O4     Cu14    1.969   .     S
C5     C36     1.475   .     S
C6     C35     1.475   .     S
O7     C11     1.290   .     A
O7     Cu13    1.961   .     S
O8     C12     1.290   .     A
O8     Cu14    1.961   .     S
O9     Cu13    1.961   .     S
O9     C12     1.291   .     A
O10    Cu14    1.961   .     S
O10    C11     1.291   .     A
C11    C18     1.450   .     S
C12    C17     1.450   .     S
Cu13   N41     2.017   .     S
Cu13   Cu14    2.684   .     S
Cu14   N42     2.017   .     S
C15    C25     1.413   .     A
C15    C17     1.402   .     A
C15    N43     1.438   .     S
C16    C26     1.413   .     A
C16    N46     1.438   .     S
C16    C18     1.402   .     A
C17    C19     1.401   .     A
C18    C20     1.401   .     A
C19    C21     1.413   .     A
C19    C49     1.518   .     S
C20    C22     1.413   .     A
C20    C53     1.518   .     S
C21    C27     1.419   .     A
C21    C23     1.420   .     A
C22    C28     1.419   .     A
C22    C24     1.420   .     A
C23    C25     1.423   .     A
C23    C906    1.410   .     S
C24    C26     1.423   .     A
C24    C905    1.410   1_554 S
C25    C30     1.418   .     A
C26    C29     1.418   .     A
C27    C57     1.519   .     S
C27    C911    1.409   .     S
C28    C61     1.519   .     S
C28    C912    1.409   1_554 S
C29    N65     1.438   .     S
C29    C909    1.409   1_554 S
C30    N68     1.438   .     S
C30    C910    1.409   .     S
C31    C71     1.519   .     S
C31    C36     1.416   .     A
C31    C229    1.399   1_455 S
C32    C75     1.519   .     S
C32    C35     1.415   .     A
C32    C132    1.399   .     S
C33    C35     1.416   .     A
C33    C79     1.518   .     S
C33    C129    1.399   .     S
C34    C83     1.518   .     S
C34    C36     1.416   .     A
C34    C228    1.399   1_455 S
C37    N42     1.370   .     A
C37    N87     1.432   .     S
C37    C628    1.428   1_545 S
C38    N41     1.370   .     A
C38    N90     1.432   .     S
C38    C333    1.428   .     S
C39    N93     1.432   .     S
C39    N42     1.371   .     A
C39    C626    1.428   1_545 S
C40    N96     1.432   .     S
C40    N41     1.371   .     A
C40    C331    1.428   .     S
N43    H44     1.046   .     S
N43    H45     1.046   .     S
N46    H48     1.046   .     S
N46    H47     1.046   .     S
C49    H51     1.109   .     S
C49    H52     1.108   .     S
C49    H50     1.109   .     S
C53    H54     1.109   .     S
C53    H55     1.108   .     S
C53    H56     1.109   .     S
C57    H58     1.107   .     S
C57    H60     1.110   .     S
C57    H59     1.109   .     S
C61    H63     1.110   .     S
C61    H64     1.109   .     S
C61    H62     1.107   .     S
N65    H67     1.044   .     S
N65    H66     1.045   .     S
N68    H69     1.044   .     S
N68    H70     1.045   .     S
C71    H73     1.111   .     S
C71    H74     1.107   .     S
C71    H72     1.110   .     S
C75    H76     1.110   .     S
C75    H77     1.107   .     S
C75    H78     1.111   .     S
C79    H82     1.106   .     S
C79    H81     1.111   .     S
C79    H80     1.109   .     S
C83    H84     1.109   .     S
C83    H85     1.106   .     S
C83    H86     1.111   .     S
N87    H88     1.044   .     S
N87    H89     1.045   .     S
N90    H92     1.045   .     S
N90    H91     1.044   .     S
N93    H94     1.044   .     S
N93    H95     1.046   .     S
N96    H98     1.045   .     S
N96    H97     1.043   .     S
O99    C103    1.299   .     A
O99    Cu111   1.972   .     S
O100   C104    1.299   .     A
O100   Cu112   1.972   .     S
O101   C104    1.299   .     A
O101   Cu111   1.969   .     S
O102   C103    1.299   .     A
O102   Cu112   1.969   .     S
C103   C134    1.475   .     S
C104   C133    1.475   .     S
O105   C109    1.290   .     A
O105   Cu111   1.961   .     S
O106   C110    1.290   .     A
O106   Cu112   1.961   .     S
O107   Cu111   1.961   .     S
O107   C110    1.291   .     A
O108   Cu112   1.961   .     S
O108   C109    1.291   .     A
C109   C116    1.450   .     S
C110   C115    1.450   .     S
Cu111  N139    2.017   .     S
Cu111  Cu112   2.684   .     S
Cu112  N140    2.017   .     S
C113   C123    1.413   .     A
C113   C115    1.402   .     A
C113   N141    1.438   .     S
C114   C124    1.413   .     A
C114   N144    1.438   .     S
C114   C116    1.402   .     A
C115   C117    1.401   .     A
C116   C118    1.401   .     A
C117   C119    1.413   .     A
C117   C147    1.518   .     S
C118   C120    1.413   .     A
C118   C151    1.518   .     S
C119   C125    1.419   .     A
C119   C121    1.420   .     A
C120   C126    1.419   .     A
C120   C122    1.420   .     A
C121   C123    1.423   .     A
C121   C1004   1.410   .     S
C122   C124    1.423   .     A
C122   C1003   1.410   1_554 S
C123   C128    1.418   .     A
C124   C127    1.418   .     A
C125   C155    1.519   .     S
C125   C1009   1.409   .     S
C126   C159    1.519   .     S
C126   C1010   1.409   1_554 S
C127   N163    1.438   .     S
C127   C1007   1.409   1_554 S
C128   N166    1.438   .     S
C128   C1008   1.409   .     S
C129   C169    1.519   .     S
C129   C134    1.416   .     A
C130   C173    1.519   .     S
C130   C133    1.415   .     A
C130   C230    1.399   .     S
C131   C133    1.416   .     A
C131   C177    1.518   .     S
C131   C227    1.399   .     S
C132   C181    1.518   .     S
C132   C134    1.416   .     A
C135   N140    1.370   .     A
C135   N185    1.432   .     S
C135   C726    1.428   1_545 S
C136   N139    1.370   .     A
C136   N188    1.432   .     S
C136   C431    1.428   .     S
C137   N191    1.432   .     S
C137   N140    1.371   .     A
C137   C724    1.428   1_545 S
C138   N194    1.432   .     S
C138   N139    1.371   .     A
C138   C429    1.428   .     S
N141   H142    1.046   .     S
N141   H143    1.046   .     S
N144   H146    1.046   .     S
N144   H145    1.046   .     S
C147   H149    1.109   .     S
C147   H150    1.108   .     S
C147   H148    1.109   .     S
C151   H152    1.109   .     S
C151   H153    1.108   .     S
C151   H154    1.109   .     S
C155   H156    1.107   .     S
C155   H158    1.110   .     S
C155   H157    1.109   .     S
C159   H161    1.110   .     S
C159   H162    1.109   .     S
C159   H160    1.107   .     S
N163   H165    1.044   .     S
N163   H164    1.045   .     S
N166   H167    1.044   .     S
N166   H168    1.045   .     S
C169   H171    1.111   .     S
C169   H172    1.107   .     S
C169   H170    1.110   .     S
C173   H174    1.110   .     S
C173   H175    1.107   .     S
C173   H176    1.111   .     S
C177   H180    1.106   .     S
C177   H179    1.111   .     S
C177   H178    1.109   .     S
C181   H182    1.109   .     S
C181   H183    1.106   .     S
C181   H184    1.111   .     S
N185   H186    1.044   .     S
N185   H187    1.045   .     S
N188   H190    1.045   .     S
N188   H189    1.044   .     S
N191   H192    1.044   .     S
N191   H193    1.046   .     S
N194   H196    1.045   .     S
N194   H195    1.043   .     S
O197   C201    1.299   .     A
O197   Cu209   1.972   .     S
O198   C202    1.299   .     A
O198   Cu210   1.972   .     S
O199   C202    1.299   .     A
O199   Cu209   1.969   .     S
O200   C201    1.299   .     A
O200   Cu210   1.969   .     S
C201   C232    1.475   .     S
C202   C231    1.475   .     S
O203   C207    1.290   .     A
O203   Cu209   1.961   .     S
O204   C208    1.290   .     A
O204   Cu210   1.961   .     S
O205   Cu209   1.961   .     S
O205   C208    1.291   .     A
O206   Cu210   1.961   .     S
O206   C207    1.291   .     A
C207   C214    1.450   .     S
C208   C213    1.450   .     S
Cu209  N237    2.017   .     S
Cu209  Cu210   2.684   .     S
Cu210  N238    2.017   .     S
C211   C221    1.413   .     A
C211   C213    1.402   .     A
C211   N239    1.438   .     S
C212   C222    1.413   .     A
C212   N242    1.438   .     S
C212   C214    1.402   .     A
C213   C215    1.401   .     A
C214   C216    1.401   .     A
C215   C217    1.413   .     A
C215   C245    1.518   .     S
C216   C218    1.413   .     A
C216   C249    1.518   .     S
C217   C223    1.419   .     A
C217   C219    1.420   .     A
C218   C224    1.419   .     A
C218   C220    1.420   .     A
C219   C221    1.423   .     A
C219   C1102   1.410   .     S
C220   C222    1.423   .     A
C220   C1101   1.410   1_554 S
C221   C226    1.418   .     A
C222   C225    1.418   .     A
C223   C253    1.519   .     S
C223   C1107   1.409   .     S
C224   C257    1.519   .     S
C224   C1108   1.409   1_554 S
C225   N261    1.438   .     S
C225   C1105   1.409   1_554 S
C226   N264    1.438   .     S
C226   C1106   1.409   .     S
C227   C267    1.519   .     S
C227   C232    1.416   .     A
C228   C271    1.519   .     S
C228   C231    1.415   .     A
C228   C34     1.399   1_655 S
C229   C231    1.416   .     A
C229   C275    1.518   .     S
C229   C31     1.399   1_655 S
C230   C279    1.518   .     S
C230   C232    1.416   .     A
C233   N238    1.370   .     A
C233   N283    1.432   .     S
C233   C824    1.428   1_545 S
C234   N237    1.370   .     A
C234   N286    1.432   .     S
C234   C529    1.428   .     S
C235   N289    1.432   .     S
C235   N238    1.371   .     A
C235   C822    1.428   1_545 S
C236   N292    1.432   .     S
C236   N237    1.371   .     A
C236   C527    1.428   .     S
N239   H240    1.046   .     S
N239   H241    1.046   .     S
N242   H244    1.046   .     S
N242   H243    1.046   .     S
C245   H247    1.109   .     S
C245   H248    1.108   .     S
C245   H246    1.109   .     S
C249   H250    1.109   .     S
C249   H251    1.108   .     S
C249   H252    1.109   .     S
C253   H254    1.107   .     S
C253   H256    1.110   .     S
C253   H255    1.109   .     S
C257   H259    1.110   .     S
C257   H260    1.109   .     S
C257   H258    1.107   .     S
N261   H263    1.044   .     S
N261   H262    1.045   .     S
N264   H265    1.044   .     S
N264   H266    1.045   .     S
C267   H269    1.111   .     S
C267   H270    1.107   .     S
C267   H268    1.110   .     S
C271   H272    1.110   .     S
C271   H273    1.107   .     S
C271   H274    1.111   .     S
C275   H278    1.106   .     S
C275   H277    1.111   .     S
C275   H276    1.109   .     S
C279   H280    1.109   .     S
C279   H281    1.106   .     S
C279   H282    1.111   .     S
N283   H284    1.044   .     S
N283   H285    1.045   .     S
N286   H288    1.045   .     S
N286   H287    1.044   .     S
N289   H290    1.044   .     S
N289   H291    1.046   .     S
N292   H294    1.045   .     S
N292   H293    1.043   .     S
O295   C299    1.299   .     A
O295   Cu307   1.972   .     S
O296   C300    1.299   .     A
O296   Cu308   1.972   .     S
O297   C300    1.299   .     A
O297   Cu307   1.969   .     S
O298   C299    1.299   .     A
O298   Cu308   1.969   .     S
C299   C330    1.475   .     S
C300   C329    1.475   .     S
O301   C305    1.290   .     A
O301   Cu307   1.961   .     S
O302   C306    1.290   .     A
O302   Cu308   1.961   .     S
O303   Cu307   1.961   .     S
O303   C306    1.291   .     A
O304   Cu308   1.961   .     S
O304   C305    1.291   .     A
C305   C312    1.450   .     S
C306   C311    1.450   .     S
Cu307  N335    2.017   .     S
Cu307  Cu308   2.684   .     S
Cu308  N336    2.017   .     S
C309   C319    1.413   .     A
C309   C311    1.402   .     A
C309   N337    1.438   .     S
C310   C320    1.413   .     A
C310   N340    1.438   .     S
C310   C312    1.402   .     A
C311   C313    1.401   .     A
C312   C314    1.401   .     A
C313   C315    1.413   .     A
C313   C343    1.518   .     S
C314   C316    1.413   .     A
C314   C347    1.518   .     S
C315   C321    1.419   .     A
C315   C317    1.420   .     A
C316   C322    1.419   .     A
C316   C318    1.420   .     A
C317   C319    1.423   .     A
C317   C1200   1.410   .     S
C318   C320    1.423   .     A
C318   C1199   1.410   1_554 S
C319   C324    1.418   .     A
C320   C323    1.418   .     A
C321   C351    1.519   .     S
C321   C1205   1.409   .     S
C322   C355    1.519   .     S
C322   C1206   1.409   1_554 S
C323   N359    1.438   .     S
C323   C1203   1.409   1_554 S
C324   N362    1.438   .     S
C324   C1204   1.409   .     S
C325   C365    1.519   .     S
C325   C330    1.416   .     A
C325   C523    1.399   1_455 S
C326   C369    1.519   .     S
C326   C329    1.415   .     A
C326   C426    1.399   .     S
C327   C329    1.416   .     A
C327   C373    1.518   .     S
C327   C423    1.399   .     S
C328   C377    1.518   .     S
C328   C330    1.416   .     A
C328   C522    1.399   1_455 S
C331   N336    1.370   .     A
C331   N381    1.432   .     S
C332   N335    1.370   .     A
C332   N384    1.432   .     S
C332   C627    1.428   .     S
C333   N387    1.432   .     S
C333   N336    1.371   .     A
C334   N390    1.432   .     S
C334   N335    1.371   .     A
C334   C625    1.428   .     S
N337   H338    1.046   .     S
N337   H339    1.046   .     S
N340   H342    1.046   .     S
N340   H341    1.046   .     S
C343   H345    1.109   .     S
C343   H346    1.108   .     S
C343   H344    1.109   .     S
C347   H348    1.109   .     S
C347   H349    1.108   .     S
C347   H350    1.109   .     S
C351   H352    1.107   .     S
C351   H354    1.110   .     S
C351   H353    1.109   .     S
C355   H357    1.110   .     S
C355   H358    1.109   .     S
C355   H356    1.107   .     S
N359   H361    1.044   .     S
N359   H360    1.045   .     S
N362   H363    1.044   .     S
N362   H364    1.045   .     S
C365   H367    1.111   .     S
C365   H368    1.107   .     S
C365   H366    1.110   .     S
C369   H370    1.110   .     S
C369   H371    1.107   .     S
C369   H372    1.111   .     S
C373   H376    1.106   .     S
C373   H375    1.111   .     S
C373   H374    1.109   .     S
C377   H378    1.109   .     S
C377   H379    1.106   .     S
C377   H380    1.111   .     S
N381   H382    1.044   .     S
N381   H383    1.045   .     S
N384   H386    1.045   .     S
N384   H385    1.044   .     S
N387   H388    1.044   .     S
N387   H389    1.046   .     S
N390   H392    1.045   .     S
N390   H391    1.043   .     S
O393   C397    1.299   .     A
O393   Cu405   1.972   .     S
O394   C398    1.299   .     A
O394   Cu406   1.972   .     S
O395   C398    1.299   .     A
O395   Cu405   1.969   .     S
O396   C397    1.299   .     A
O396   Cu406   1.969   .     S
C397   C428    1.475   .     S
C398   C427    1.475   .     S
O399   C403    1.290   .     A
O399   Cu405   1.961   .     S
O400   C404    1.290   .     A
O400   Cu406   1.961   .     S
O401   Cu405   1.961   .     S
O401   C404    1.291   .     A
O402   Cu406   1.961   .     S
O402   C403    1.291   .     A
C403   C410    1.450   .     S
C404   C409    1.450   .     S
Cu405  N433    2.017   .     S
Cu405  Cu406   2.684   .     S
Cu406  N434    2.017   .     S
C407   C417    1.413   .     A
C407   C409    1.402   .     A
C407   N435    1.438   .     S
C408   C418    1.413   .     A
C408   N438    1.438   .     S
C408   C410    1.402   .     A
C409   C411    1.401   .     A
C410   C412    1.401   .     A
C411   C413    1.413   .     A
C411   C441    1.518   .     S
C412   C414    1.413   .     A
C412   C445    1.518   .     S
C413   C419    1.419   .     A
C413   C415    1.420   .     A
C414   C420    1.419   .     A
C414   C416    1.420   .     A
C415   C417    1.423   .     A
C415   C1298   1.410   .     S
C416   C418    1.423   .     A
C416   C1297   1.410   1_554 S
C417   C422    1.418   .     A
C418   C421    1.418   .     A
C419   C449    1.519   .     S
C419   C1303   1.409   .     S
C420   C453    1.519   .     S
C420   C1304   1.409   1_554 S
C421   N457    1.438   .     S
C421   C1301   1.409   1_554 S
C422   N460    1.438   .     S
C422   C1302   1.409   .     S
C423   C463    1.519   .     S
C423   C428    1.416   .     A
C424   C467    1.519   .     S
C424   C427    1.415   .     A
C424   C524    1.399   .     S
C425   C427    1.416   .     A
C425   C471    1.518   .     S
C425   C521    1.399   .     S
C426   C475    1.518   .     S
C426   C428    1.416   .     A
C429   N434    1.370   .     A
C429   N479    1.432   .     S
C430   N433    1.370   .     A
C430   N482    1.432   .     S
C430   C725    1.428   .     S
C431   N485    1.432   .     S
C431   N434    1.371   .     A
C432   N488    1.432   .     S
C432   N433    1.371   .     A
C432   C723    1.428   .     S
N435   H436    1.046   .     S
N435   H437    1.046   .     S
N438   H440    1.046   .     S
N438   H439    1.046   .     S
C441   H443    1.109   .     S
C441   H444    1.108   .     S
C441   H442    1.109   .     S
C445   H446    1.109   .     S
C445   H447    1.108   .     S
C445   H448    1.109   .     S
C449   H450    1.107   .     S
C449   H452    1.110   .     S
C449   H451    1.109   .     S
C453   H455    1.110   .     S
C453   H456    1.109   .     S
C453   H454    1.107   .     S
N457   H459    1.044   .     S
N457   H458    1.045   .     S
N460   H461    1.044   .     S
N460   H462    1.045   .     S
C463   H465    1.111   .     S
C463   H466    1.107   .     S
C463   H464    1.110   .     S
C467   H468    1.110   .     S
C467   H469    1.107   .     S
C467   H470    1.111   .     S
C471   H474    1.106   .     S
C471   H473    1.111   .     S
C471   H472    1.109   .     S
C475   H476    1.109   .     S
C475   H477    1.106   .     S
C475   H478    1.111   .     S
N479   H480    1.044   .     S
N479   H481    1.045   .     S
N482   H484    1.045   .     S
N482   H483    1.044   .     S
N485   H486    1.044   .     S
N485   H487    1.046   .     S
N488   H490    1.045   .     S
N488   H489    1.043   .     S
O491   C495    1.299   .     A
O491   Cu503   1.972   .     S
O492   C496    1.299   .     A
O492   Cu504   1.972   .     S
O493   C496    1.299   .     A
O493   Cu503   1.969   .     S
O494   C495    1.299   .     A
O494   Cu504   1.969   .     S
C495   C526    1.475   .     S
C496   C525    1.475   .     S
O497   C501    1.290   .     A
O497   Cu503   1.961   .     S
O498   C502    1.290   .     A
O498   Cu504   1.961   .     S
O499   Cu503   1.961   .     S
O499   C502    1.291   .     A
O500   Cu504   1.961   .     S
O500   C501    1.291   .     A
C501   C508    1.450   .     S
C502   C507    1.450   .     S
Cu503  N531    2.017   .     S
Cu503  Cu504   2.684   .     S
Cu504  N532    2.017   .     S
C505   C515    1.413   .     A
C505   C507    1.402   .     A
C505   N533    1.438   .     S
C506   C516    1.413   .     A
C506   N536    1.438   .     S
C506   C508    1.402   .     A
C507   C509    1.401   .     A
C508   C510    1.401   .     A
C509   C511    1.413   .     A
C509   C539    1.518   .     S
C510   C512    1.413   .     A
C510   C543    1.518   .     S
C511   C517    1.419   .     A
C511   C513    1.420   .     A
C512   C518    1.419   .     A
C512   C514    1.420   .     A
C513   C515    1.423   .     A
C513   C1396   1.410   .     S
C514   C516    1.423   .     A
C514   C1395   1.410   1_554 S
C515   C520    1.418   .     A
C516   C519    1.418   .     A
C517   C547    1.519   .     S
C517   C1401   1.409   .     S
C518   C551    1.519   .     S
C518   C1402   1.409   1_554 S
C519   N555    1.438   .     S
C519   C1399   1.409   1_554 S
C520   N558    1.438   .     S
C520   C1400   1.409   .     S
C521   C561    1.519   .     S
C521   C526    1.416   .     A
C522   C565    1.519   .     S
C522   C525    1.415   .     A
C522   C328    1.399   1_655 S
C523   C525    1.416   .     A
C523   C569    1.518   .     S
C523   C325    1.399   1_655 S
C524   C573    1.518   .     S
C524   C526    1.416   .     A
C527   N532    1.370   .     A
C527   N577    1.432   .     S
C528   N531    1.370   .     A
C528   N580    1.432   .     S
C528   C823    1.428   .     S
C529   N583    1.432   .     S
C529   N532    1.371   .     A
C530   N586    1.432   .     S
C530   N531    1.371   .     A
C530   C821    1.428   .     S
N533   H534    1.046   .     S
N533   H535    1.046   .     S
N536   H538    1.046   .     S
N536   H537    1.046   .     S
C539   H541    1.109   .     S
C539   H542    1.108   .     S
C539   H540    1.109   .     S
C543   H544    1.109   .     S
C543   H545    1.108   .     S
C543   H546    1.109   .     S
C547   H548    1.107   .     S
C547   H550    1.110   .     S
C547   H549    1.109   .     S
C551   H553    1.110   .     S
C551   H554    1.109   .     S
C551   H552    1.107   .     S
N555   H557    1.044   .     S
N555   H556    1.045   .     S
N558   H559    1.044   .     S
N558   H560    1.045   .     S
C561   H563    1.111   .     S
C561   H564    1.107   .     S
C561   H562    1.110   .     S
C565   H566    1.110   .     S
C565   H567    1.107   .     S
C565   H568    1.111   .     S
C569   H572    1.106   .     S
C569   H571    1.111   .     S
C569   H570    1.109   .     S
C573   H574    1.109   .     S
C573   H575    1.106   .     S
C573   H576    1.111   .     S
N577   H578    1.044   .     S
N577   H579    1.045   .     S
N580   H582    1.045   .     S
N580   H581    1.044   .     S
N583   H584    1.044   .     S
N583   H585    1.046   .     S
N586   H588    1.045   .     S
N586   H587    1.043   .     S
O589   C593    1.299   .     A
O589   Cu601   1.972   .     S
O590   C594    1.299   .     A
O590   Cu602   1.972   .     S
O591   C594    1.299   .     A
O591   Cu601   1.969   .     S
O592   C593    1.299   .     A
O592   Cu602   1.969   .     S
C593   C624    1.475   .     S
C594   C623    1.475   .     S
O595   C599    1.290   .     A
O595   Cu601   1.961   .     S
O596   C600    1.290   .     A
O596   Cu602   1.961   .     S
O597   Cu601   1.961   .     S
O597   C600    1.291   .     A
O598   Cu602   1.961   .     S
O598   C599    1.291   .     A
C599   C606    1.450   .     S
C600   C605    1.450   .     S
Cu601  N629    2.017   .     S
Cu601  Cu602   2.684   .     S
Cu602  N630    2.017   .     S
C603   C613    1.413   .     A
C603   C605    1.402   .     A
C603   N631    1.438   .     S
C604   C614    1.413   .     A
C604   N634    1.438   .     S
C604   C606    1.402   .     A
C605   C607    1.401   .     A
C606   C608    1.401   .     A
C607   C609    1.413   .     A
C607   C637    1.518   .     S
C608   C610    1.413   .     A
C608   C641    1.518   .     S
C609   C615    1.419   .     A
C609   C611    1.420   .     A
C610   C616    1.419   .     A
C610   C612    1.420   .     A
C611   C613    1.423   .     A
C611   C1494   1.410   .     S
C612   C614    1.423   .     A
C612   C1493   1.410   1_554 S
C613   C618    1.418   .     A
C614   C617    1.418   .     A
C615   C645    1.519   .     S
C615   C1499   1.409   .     S
C616   C649    1.519   .     S
C616   C1500   1.409   1_554 S
C617   N653    1.438   .     S
C617   C1497   1.409   1_554 S
C618   N656    1.438   .     S
C618   C1498   1.409   .     S
C619   C659    1.519   .     S
C619   C624    1.416   .     A
C619   C817    1.399   1_455 S
C620   C663    1.519   .     S
C620   C623    1.415   .     A
C620   C720    1.399   .     S
C621   C623    1.416   .     A
C621   C667    1.518   .     S
C621   C717    1.399   .     S
C622   C671    1.518   .     S
C622   C624    1.416   .     A
C622   C816    1.399   1_455 S
C625   N630    1.370   .     A
C625   N675    1.432   .     S
C626   N629    1.370   .     A
C626   N678    1.432   .     S
C626   C39     1.428   1_565 S
C627   N681    1.432   .     S
C627   N630    1.371   .     A
C628   N684    1.432   .     S
C628   N629    1.371   .     A
C628   C37     1.428   1_565 S
N631   H632    1.046   .     S
N631   H633    1.046   .     S
N634   H636    1.046   .     S
N634   H635    1.046   .     S
C637   H639    1.109   .     S
C637   H640    1.108   .     S
C637   H638    1.109   .     S
C641   H642    1.109   .     S
C641   H643    1.108   .     S
C641   H644    1.109   .     S
C645   H646    1.107   .     S
C645   H648    1.110   .     S
C645   H647    1.109   .     S
C649   H651    1.110   .     S
C649   H652    1.109   .     S
C649   H650    1.107   .     S
N653   H655    1.044   .     S
N653   H654    1.045   .     S
N656   H657    1.044   .     S
N656   H658    1.045   .     S
C659   H661    1.111   .     S
C659   H662    1.107   .     S
C659   H660    1.110   .     S
C663   H664    1.110   .     S
C663   H665    1.107   .     S
C663   H666    1.111   .     S
C667   H670    1.106   .     S
C667   H669    1.111   .     S
C667   H668    1.109   .     S
C671   H672    1.109   .     S
C671   H673    1.106   .     S
C671   H674    1.111   .     S
N675   H676    1.044   .     S
N675   H677    1.045   .     S
N678   H680    1.045   .     S
N678   H679    1.044   .     S
N681   H682    1.044   .     S
N681   H683    1.046   .     S
N684   H686    1.045   .     S
N684   H685    1.043   .     S
O687   C691    1.299   .     A
O687   Cu699   1.972   .     S
O688   C692    1.299   .     A
O688   Cu700   1.972   .     S
O689   C692    1.299   .     A
O689   Cu699   1.969   .     S
O690   C691    1.299   .     A
O690   Cu700   1.969   .     S
C691   C722    1.475   .     S
C692   C721    1.475   .     S
O693   C697    1.290   .     A
O693   Cu699   1.961   .     S
O694   C698    1.290   .     A
O694   Cu700   1.961   .     S
O695   Cu699   1.961   .     S
O695   C698    1.291   .     A
O696   Cu700   1.961   .     S
O696   C697    1.291   .     A
C697   C704    1.450   .     S
C698   C703    1.450   .     S
Cu699  N727    2.017   .     S
Cu699  Cu700   2.684   .     S
Cu700  N728    2.017   .     S
C701   C711    1.413   .     A
C701   C703    1.402   .     A
C701   N729    1.438   .     S
C702   C712    1.413   .     A
C702   N732    1.438   .     S
C702   C704    1.402   .     A
C703   C705    1.401   .     A
C704   C706    1.401   .     A
C705   C707    1.413   .     A
C705   C735    1.518   .     S
C706   C708    1.413   .     A
C706   C739    1.518   .     S
C707   C713    1.419   .     A
C707   C709    1.420   .     A
C708   C714    1.419   .     A
C708   C710    1.420   .     A
C709   C711    1.423   .     A
C709   C1592   1.410   .     S
C710   C712    1.423   .     A
C710   C1591   1.410   1_554 S
C711   C716    1.418   .     A
C712   C715    1.418   .     A
C713   C743    1.519   .     S
C713   C1597   1.409   .     S
C714   C747    1.519   .     S
C714   C1598   1.409   1_554 S
C715   N751    1.438   .     S
C715   C1595   1.409   1_554 S
C716   N754    1.438   .     S
C716   C1596   1.409   .     S
C717   C757    1.519   .     S
C717   C722    1.416   .     A
C718   C761    1.519   .     S
C718   C721    1.415   .     A
C718   C818    1.399   .     S
C719   C721    1.416   .     A
C719   C765    1.518   .     S
C719   C815    1.399   .     S
C720   C769    1.518   .     S
C720   C722    1.416   .     A
C723   N728    1.370   .     A
C723   N773    1.432   .     S
C724   N727    1.370   .     A
C724   N776    1.432   .     S
C724   C137    1.428   1_565 S
C725   N779    1.432   .     S
C725   N728    1.371   .     A
C726   N782    1.432   .     S
C726   N727    1.371   .     A
C726   C135    1.428   1_565 S
N729   H730    1.046   .     S
N729   H731    1.046   .     S
N732   H734    1.046   .     S
N732   H733    1.046   .     S
C735   H737    1.109   .     S
C735   H738    1.108   .     S
C735   H736    1.109   .     S
C739   H740    1.109   .     S
C739   H741    1.108   .     S
C739   H742    1.109   .     S
C743   H744    1.107   .     S
C743   H746    1.110   .     S
C743   H745    1.109   .     S
C747   H749    1.110   .     S
C747   H750    1.109   .     S
C747   H748    1.107   .     S
N751   H753    1.044   .     S
N751   H752    1.045   .     S
N754   H755    1.044   .     S
N754   H756    1.045   .     S
C757   H759    1.111   .     S
C757   H760    1.107   .     S
C757   H758    1.110   .     S
C761   H762    1.110   .     S
C761   H763    1.107   .     S
C761   H764    1.111   .     S
C765   H768    1.106   .     S
C765   H767    1.111   .     S
C765   H766    1.109   .     S
C769   H770    1.109   .     S
C769   H771    1.106   .     S
C769   H772    1.111   .     S
N773   H774    1.044   .     S
N773   H775    1.045   .     S
N776   H778    1.045   .     S
N776   H777    1.044   .     S
N779   H780    1.044   .     S
N779   H781    1.046   .     S
N782   H784    1.045   .     S
N782   H783    1.043   .     S
O785   C789    1.299   .     A
O785   Cu797   1.972   .     S
O786   C790    1.299   .     A
O786   Cu798   1.972   .     S
O787   C790    1.299   .     A
O787   Cu797   1.969   .     S
O788   C789    1.299   .     A
O788   Cu798   1.969   .     S
C789   C820    1.475   .     S
C790   C819    1.475   .     S
O791   C795    1.290   .     A
O791   Cu797   1.961   .     S
O792   C796    1.290   .     A
O792   Cu798   1.961   .     S
O793   Cu797   1.961   .     S
O793   C796    1.291   .     A
O794   Cu798   1.961   .     S
O794   C795    1.291   .     A
C795   C802    1.450   .     S
C796   C801    1.450   .     S
Cu797  N825    2.017   .     S
Cu797  Cu798   2.684   .     S
Cu798  N826    2.017   .     S
C799   C809    1.413   .     A
C799   C801    1.402   .     A
C799   N827    1.438   .     S
C800   C810    1.413   .     A
C800   N830    1.438   .     S
C800   C802    1.402   .     A
C801   C803    1.401   .     A
C802   C804    1.401   .     A
C803   C805    1.413   .     A
C803   C833    1.518   .     S
C804   C806    1.413   .     A
C804   C837    1.518   .     S
C805   C811    1.419   .     A
C805   C807    1.420   .     A
C806   C812    1.419   .     A
C806   C808    1.420   .     A
C807   C809    1.423   .     A
C807   C1690   1.410   .     S
C808   C810    1.423   .     A
C808   C1689   1.410   1_554 S
C809   C814    1.418   .     A
C810   C813    1.418   .     A
C811   C841    1.519   .     S
C811   C1695   1.409   .     S
C812   C845    1.519   .     S
C812   C1696   1.409   1_554 S
C813   N849    1.438   .     S
C813   C1693   1.409   1_554 S
C814   N852    1.438   .     S
C814   C1694   1.409   .     S
C815   C855    1.519   .     S
C815   C820    1.416   .     A
C816   C859    1.519   .     S
C816   C819    1.415   .     A
C816   C622    1.399   1_655 S
C817   C819    1.416   .     A
C817   C863    1.518   .     S
C817   C619    1.399   1_655 S
C818   C867    1.518   .     S
C818   C820    1.416   .     A
C821   N826    1.370   .     A
C821   N871    1.432   .     S
C822   N825    1.370   .     A
C822   N874    1.432   .     S
C822   C235    1.428   1_565 S
C823   N877    1.432   .     S
C823   N826    1.371   .     A
C824   N880    1.432   .     S
C824   N825    1.371   .     A
C824   C233    1.428   1_565 S
N827   H828    1.046   .     S
N827   H829    1.046   .     S
N830   H832    1.046   .     S
N830   H831    1.046   .     S
C833   H835    1.109   .     S
C833   H836    1.108   .     S
C833   H834    1.109   .     S
C837   H838    1.109   .     S
C837   H839    1.108   .     S
C837   H840    1.109   .     S
C841   H842    1.107   .     S
C841   H844    1.110   .     S
C841   H843    1.109   .     S
C845   H847    1.110   .     S
C845   H848    1.109   .     S
C845   H846    1.107   .     S
N849   H851    1.044   .     S
N849   H850    1.045   .     S
N852   H853    1.044   .     S
N852   H854    1.045   .     S
C855   H857    1.111   .     S
C855   H858    1.107   .     S
C855   H856    1.110   .     S
C859   H860    1.110   .     S
C859   H861    1.107   .     S
C859   H862    1.111   .     S
C863   H866    1.106   .     S
C863   H865    1.111   .     S
C863   H864    1.109   .     S
C867   H868    1.109   .     S
C867   H869    1.106   .     S
C867   H870    1.111   .     S
N871   H872    1.044   .     S
N871   H873    1.045   .     S
N874   H876    1.045   .     S
N874   H875    1.044   .     S
N877   H878    1.044   .     S
N877   H879    1.046   .     S
N880   H882    1.045   .     S
N880   H881    1.043   .     S
O883   C887    1.299   .     A
O883   Cu895   1.972   .     S
O884   C888    1.299   .     A
O884   Cu896   1.972   .     S
O885   C888    1.299   .     A
O885   Cu895   1.969   .     S
O886   C887    1.299   .     A
O886   Cu896   1.969   .     S
C887   C918    1.475   .     S
C888   C917    1.475   .     S
O889   C893    1.290   .     A
O889   Cu895   1.961   .     S
O890   C894    1.290   .     A
O890   Cu896   1.961   .     S
O891   Cu895   1.961   .     S
O891   C894    1.291   .     A
O892   Cu896   1.961   .     S
O892   C893    1.291   .     A
C893   C900    1.450   .     S
C894   C899    1.450   .     S
Cu895  N923    2.017   .     S
Cu895  Cu896   2.684   .     S
Cu896  N924    2.017   .     S
C897   C907    1.413   .     A
C897   C899    1.402   .     A
C897   N925    1.438   .     S
C898   C908    1.413   .     A
C898   N928    1.438   .     S
C898   C900    1.402   .     A
C899   C901    1.401   .     A
C900   C902    1.401   .     A
C901   C903    1.413   .     A
C901   C931    1.518   .     S
C902   C904    1.413   .     A
C902   C935    1.518   .     S
C903   C909    1.419   .     A
C903   C905    1.420   .     A
C904   C910    1.419   .     A
C904   C906    1.420   .     A
C905   C907    1.423   .     A
C905   C24     1.410   1_556 S
C906   C908    1.423   .     A
C907   C912    1.418   .     A
C908   C911    1.418   .     A
C909   C939    1.519   .     S
C909   C29     1.409   1_556 S
C910   C943    1.519   .     S
C911   N947    1.438   .     S
C912   N950    1.438   .     S
C912   C28     1.409   1_556 S
C913   C953    1.519   .     S
C913   C918    1.416   .     A
C913   C1111   1.399   1_455 S
C914   C957    1.519   .     S
C914   C917    1.415   .     A
C914   C1014   1.399   .     S
C915   C917    1.416   .     A
C915   C961    1.518   .     S
C915   C1011   1.399   .     S
C916   C965    1.518   .     S
C916   C918    1.416   .     A
C916   C1110   1.399   1_455 S
C919   N924    1.370   .     A
C919   N969    1.432   .     S
C919   C1510   1.428   1_545 S
C920   N923    1.370   .     A
C920   N972    1.432   .     S
C920   C1215   1.428   .     S
C921   N975    1.432   .     S
C921   N924    1.371   .     A
C921   C1508   1.428   1_545 S
C922   N978    1.432   .     S
C922   N923    1.371   .     A
C922   C1213   1.428   .     S
N925   H926    1.046   .     S
N925   H927    1.046   .     S
N928   H930    1.046   .     S
N928   H929    1.046   .     S
C931   H933    1.109   .     S
C931   H934    1.108   .     S
C931   H932    1.109   .     S
C935   H936    1.109   .     S
C935   H937    1.108   .     S
C935   H938    1.109   .     S
C939   H940    1.107   .     S
C939   H942    1.110   .     S
C939   H941    1.109   .     S
C943   H945    1.110   .     S
C943   H946    1.109   .     S
C943   H944    1.107   .     S
N947   H949    1.044   .     S
N947   H948    1.045   .     S
N950   H951    1.044   .     S
N950   H952    1.045   .     S
C953   H955    1.111   .     S
C953   H956    1.107   .     S
C953   H954    1.110   .     S
C957   H958    1.110   .     S
C957   H959    1.107   .     S
C957   H960    1.111   .     S
C961   H964    1.106   .     S
C961   H963    1.111   .     S
C961   H962    1.109   .     S
C965   H966    1.109   .     S
C965   H967    1.106   .     S
C965   H968    1.111   .     S
N969   H970    1.044   .     S
N969   H971    1.045   .     S
N972   H974    1.045   .     S
N972   H973    1.044   .     S
N975   H976    1.044   .     S
N975   H977    1.046   .     S
N978   H980    1.045   .     S
N978   H979    1.043   .     S
O981   C985    1.299   .     A
O981   Cu993   1.972   .     S
O982   C986    1.299   .     A
O982   Cu994   1.972   .     S
O983   C986    1.299   .     A
O983   Cu993   1.969   .     S
O984   C985    1.299   .     A
O984   Cu994   1.969   .     S
C985   C1016   1.475   .     S
C986   C1015   1.475   .     S
O987   C991    1.290   .     A
O987   Cu993   1.961   .     S
O988   C992    1.290   .     A
O988   Cu994   1.961   .     S
O989   Cu993   1.961   .     S
O989   C992    1.291   .     A
O990   Cu994   1.961   .     S
O990   C991    1.291   .     A
C991   C998    1.450   .     S
C992   C997    1.450   .     S
Cu993  N1021   2.017   .     S
Cu993  Cu994   2.684   .     S
Cu994  N1022   2.017   .     S
C995   C1005   1.413   .     A
C995   C997    1.402   .     A
C995   N1023   1.438   .     S
C996   C1006   1.413   .     A
C996   N1026   1.438   .     S
C996   C998    1.402   .     A
C997   C999    1.401   .     A
C998   C1000   1.401   .     A
C999   C1001   1.413   .     A
C999   C1029   1.518   .     S
C1000  C1002   1.413   .     A
C1000  C1033   1.518   .     S
C1001  C1007   1.419   .     A
C1001  C1003   1.420   .     A
C1002  C1008   1.419   .     A
C1002  C1004   1.420   .     A
C1003  C1005   1.423   .     A
C1003  C122    1.410   1_556 S
C1004  C1006   1.423   .     A
C1005  C1010   1.418   .     A
C1006  C1009   1.418   .     A
C1007  C1037   1.519   .     S
C1007  C127    1.409   1_556 S
C1008  C1041   1.519   .     S
C1009  N1045   1.438   .     S
C1010  N1048   1.438   .     S
C1010  C126    1.409   1_556 S
C1011  C1051   1.519   .     S
C1011  C1016   1.416   .     A
C1012  C1055   1.519   .     S
C1012  C1015   1.415   .     A
C1012  C1112   1.399   .     S
C1013  C1015   1.416   .     A
C1013  C1059   1.518   .     S
C1013  C1109   1.399   .     S
C1014  C1063   1.518   .     S
C1014  C1016   1.416   .     A
C1017  N1022   1.370   .     A
C1017  N1067   1.432   .     S
C1017  C1608   1.428   1_545 S
C1018  N1021   1.370   .     A
C1018  N1070   1.432   .     S
C1018  C1313   1.428   .     S
C1019  N1073   1.432   .     S
C1019  N1022   1.371   .     A
C1019  C1606   1.428   1_545 S
C1020  N1076   1.432   .     S
C1020  N1021   1.371   .     A
C1020  C1311   1.428   .     S
N1023  H1024   1.046   .     S
N1023  H1025   1.046   .     S
N1026  H1028   1.046   .     S
N1026  H1027   1.046   .     S
C1029  H1031   1.109   .     S
C1029  H1032   1.108   .     S
C1029  H1030   1.109   .     S
C1033  H1034   1.109   .     S
C1033  H1035   1.108   .     S
C1033  H1036   1.109   .     S
C1037  H1038   1.107   .     S
C1037  H1040   1.110   .     S
C1037  H1039   1.109   .     S
C1041  H1043   1.110   .     S
C1041  H1044   1.109   .     S
C1041  H1042   1.107   .     S
N1045  H1047   1.044   .     S
N1045  H1046   1.045   .     S
N1048  H1049   1.044   .     S
N1048  H1050   1.045   .     S
C1051  H1053   1.111   .     S
C1051  H1054   1.107   .     S
C1051  H1052   1.110   .     S
C1055  H1056   1.110   .     S
C1055  H1057   1.107   .     S
C1055  H1058   1.111   .     S
C1059  H1062   1.106   .     S
C1059  H1061   1.111   .     S
C1059  H1060   1.109   .     S
C1063  H1064   1.109   .     S
C1063  H1065   1.106   .     S
C1063  H1066   1.111   .     S
N1067  H1068   1.044   .     S
N1067  H1069   1.045   .     S
N1070  H1072   1.045   .     S
N1070  H1071   1.044   .     S
N1073  H1074   1.044   .     S
N1073  H1075   1.046   .     S
N1076  H1078   1.045   .     S
N1076  H1077   1.043   .     S
O1079  C1083   1.299   .     A
O1079  Cu1091  1.972   .     S
O1080  C1084   1.299   .     A
O1080  Cu1092  1.972   .     S
O1081  C1084   1.299   .     A
O1081  Cu1091  1.969   .     S
O1082  C1083   1.299   .     A
O1082  Cu1092  1.969   .     S
C1083  C1114   1.475   .     S
C1084  C1113   1.475   .     S
O1085  C1089   1.290   .     A
O1085  Cu1091  1.961   .     S
O1086  C1090   1.290   .     A
O1086  Cu1092  1.961   .     S
O1087  Cu1091  1.961   .     S
O1087  C1090   1.291   .     A
O1088  Cu1092  1.961   .     S
O1088  C1089   1.291   .     A
C1089  C1096   1.450   .     S
C1090  C1095   1.450   .     S
Cu1091 N1119   2.017   .     S
Cu1091 Cu1092  2.684   .     S
Cu1092 N1120   2.017   .     S
C1093  C1103   1.413   .     A
C1093  C1095   1.402   .     A
C1093  N1121   1.438   .     S
C1094  C1104   1.413   .     A
C1094  N1124   1.438   .     S
C1094  C1096   1.402   .     A
C1095  C1097   1.401   .     A
C1096  C1098   1.401   .     A
C1097  C1099   1.413   .     A
C1097  C1127   1.518   .     S
C1098  C1100   1.413   .     A
C1098  C1131   1.518   .     S
C1099  C1105   1.419   .     A
C1099  C1101   1.420   .     A
C1100  C1106   1.419   .     A
C1100  C1102   1.420   .     A
C1101  C1103   1.423   .     A
C1101  C220    1.410   1_556 S
C1102  C1104   1.423   .     A
C1103  C1108   1.418   .     A
C1104  C1107   1.418   .     A
C1105  C1135   1.519   .     S
C1105  C225    1.409   1_556 S
C1106  C1139   1.519   .     S
C1107  N1143   1.438   .     S
C1108  N1146   1.438   .     S
C1108  C224    1.409   1_556 S
C1109  C1149   1.519   .     S
C1109  C1114   1.416   .     A
C1110  C1153   1.519   .     S
C1110  C1113   1.415   .     A
C1110  C916    1.399   1_655 S
C1111  C1113   1.416   .     A
C1111  C1157   1.518   .     S
C1111  C913    1.399   1_655 S
C1112  C1161   1.518   .     S
C1112  C1114   1.416   .     A
C1115  N1120   1.370   .     A
C1115  N1165   1.432   .     S
C1115  C1706   1.428   1_545 S
C1116  N1119   1.370   .     A
C1116  N1168   1.432   .     S
C1116  C1411   1.428   .     S
C1117  N1171   1.432   .     S
C1117  N1120   1.371   .     A
C1117  C1704   1.428   1_545 S
C1118  N1174   1.432   .     S
C1118  N1119   1.371   .     A
C1118  C1409   1.428   .     S
N1121  H1122   1.046   .     S
N1121  H1123   1.046   .     S
N1124  H1126   1.046   .     S
N1124  H1125   1.046   .     S
C1127  H1129   1.109   .     S
C1127  H1130   1.108   .     S
C1127  H1128   1.109   .     S
C1131  H1132   1.109   .     S
C1131  H1133   1.108   .     S
C1131  H1134   1.109   .     S
C1135  H1136   1.107   .     S
C1135  H1138   1.110   .     S
C1135  H1137   1.109   .     S
C1139  H1141   1.110   .     S
C1139  H1142   1.109   .     S
C1139  H1140   1.107   .     S
N1143  H1145   1.044   .     S
N1143  H1144   1.045   .     S
N1146  H1147   1.044   .     S
N1146  H1148   1.045   .     S
C1149  H1151   1.111   .     S
C1149  H1152   1.107   .     S
C1149  H1150   1.110   .     S
C1153  H1154   1.110   .     S
C1153  H1155   1.107   .     S
C1153  H1156   1.111   .     S
C1157  H1160   1.106   .     S
C1157  H1159   1.111   .     S
C1157  H1158   1.109   .     S
C1161  H1162   1.109   .     S
C1161  H1163   1.106   .     S
C1161  H1164   1.111   .     S
N1165  H1166   1.044   .     S
N1165  H1167   1.045   .     S
N1168  H1170   1.045   .     S
N1168  H1169   1.044   .     S
N1171  H1172   1.044   .     S
N1171  H1173   1.046   .     S
N1174  H1176   1.045   .     S
N1174  H1175   1.043   .     S
O1177  C1181   1.299   .     A
O1177  Cu1189  1.972   .     S
O1178  C1182   1.299   .     A
O1178  Cu1190  1.972   .     S
O1179  C1182   1.299   .     A
O1179  Cu1189  1.969   .     S
O1180  C1181   1.299   .     A
O1180  Cu1190  1.969   .     S
C1181  C1212   1.475   .     S
C1182  C1211   1.475   .     S
O1183  C1187   1.290   .     A
O1183  Cu1189  1.961   .     S
O1184  C1188   1.290   .     A
O1184  Cu1190  1.961   .     S
O1185  Cu1189  1.961   .     S
O1185  C1188   1.291   .     A
O1186  Cu1190  1.961   .     S
O1186  C1187   1.291   .     A
C1187  C1194   1.450   .     S
C1188  C1193   1.450   .     S
Cu1189 N1217   2.017   .     S
Cu1189 Cu1190  2.684   .     S
Cu1190 N1218   2.017   .     S
C1191  C1201   1.413   .     A
C1191  C1193   1.402   .     A
C1191  N1219   1.438   .     S
C1192  C1202   1.413   .     A
C1192  N1222   1.438   .     S
C1192  C1194   1.402   .     A
C1193  C1195   1.401   .     A
C1194  C1196   1.401   .     A
C1195  C1197   1.413   .     A
C1195  C1225   1.518   .     S
C1196  C1198   1.413   .     A
C1196  C1229   1.518   .     S
C1197  C1203   1.419   .     A
C1197  C1199   1.420   .     A
C1198  C1204   1.419   .     A
C1198  C1200   1.420   .     A
C1199  C1201   1.423   .     A
C1199  C318    1.410   1_556 S
C1200  C1202   1.423   .     A
C1201  C1206   1.418   .     A
C1202  C1205   1.418   .     A
C1203  C1233   1.519   .     S
C1203  C323    1.409   1_556 S
C1204  C1237   1.519   .     S
C1205  N1241   1.438   .     S
C1206  N1244   1.438   .     S
C1206  C322    1.409   1_556 S
C1207  C1247   1.519   .     S
C1207  C1212   1.416   .     A
C1207  C1405   1.399   1_455 S
C1208  C1251   1.519   .     S
C1208  C1211   1.415   .     A
C1208  C1308   1.399   .     S
C1209  C1211   1.416   .     A
C1209  C1255   1.518   .     S
C1209  C1305   1.399   .     S
C1210  C1259   1.518   .     S
C1210  C1212   1.416   .     A
C1210  C1404   1.399   1_455 S
C1213  N1218   1.370   .     A
C1213  N1263   1.432   .     S
C1214  N1217   1.370   .     A
C1214  N1266   1.432   .     S
C1214  C1509   1.428   .     S
C1215  N1269   1.432   .     S
C1215  N1218   1.371   .     A
C1216  N1272   1.432   .     S
C1216  N1217   1.371   .     A
C1216  C1507   1.428   .     S
N1219  H1220   1.046   .     S
N1219  H1221   1.046   .     S
N1222  H1224   1.046   .     S
N1222  H1223   1.046   .     S
C1225  H1227   1.109   .     S
C1225  H1228   1.108   .     S
C1225  H1226   1.109   .     S
C1229  H1230   1.109   .     S
C1229  H1231   1.108   .     S
C1229  H1232   1.109   .     S
C1233  H1234   1.107   .     S
C1233  H1236   1.110   .     S
C1233  H1235   1.109   .     S
C1237  H1239   1.110   .     S
C1237  H1240   1.109   .     S
C1237  H1238   1.107   .     S
N1241  H1243   1.044   .     S
N1241  H1242   1.045   .     S
N1244  H1245   1.044   .     S
N1244  H1246   1.045   .     S
C1247  H1249   1.111   .     S
C1247  H1250   1.107   .     S
C1247  H1248   1.110   .     S
C1251  H1252   1.110   .     S
C1251  H1253   1.107   .     S
C1251  H1254   1.111   .     S
C1255  H1258   1.106   .     S
C1255  H1257   1.111   .     S
C1255  H1256   1.109   .     S
C1259  H1260   1.109   .     S
C1259  H1261   1.106   .     S
C1259  H1262   1.111   .     S
N1263  H1264   1.044   .     S
N1263  H1265   1.045   .     S
N1266  H1268   1.045   .     S
N1266  H1267   1.044   .     S
N1269  H1270   1.044   .     S
N1269  H1271   1.046   .     S
N1272  H1274   1.045   .     S
N1272  H1273   1.043   .     S
O1275  C1279   1.299   .     A
O1275  Cu1287  1.972   .     S
O1276  C1280   1.299   .     A
O1276  Cu1288  1.972   .     S
O1277  C1280   1.299   .     A
O1277  Cu1287  1.969   .     S
O1278  C1279   1.299   .     A
O1278  Cu1288  1.969   .     S
C1279  C1310   1.475   .     S
C1280  C1309   1.475   .     S
O1281  C1285   1.290   .     A
O1281  Cu1287  1.961   .     S
O1282  C1286   1.290   .     A
O1282  Cu1288  1.961   .     S
O1283  Cu1287  1.961   .     S
O1283  C1286   1.291   .     A
O1284  Cu1288  1.961   .     S
O1284  C1285   1.291   .     A
C1285  C1292   1.450   .     S
C1286  C1291   1.450   .     S
Cu1287 N1315   2.017   .     S
Cu1287 Cu1288  2.684   .     S
Cu1288 N1316   2.017   .     S
C1289  C1299   1.413   .     A
C1289  C1291   1.402   .     A
C1289  N1317   1.438   .     S
C1290  C1300   1.413   .     A
C1290  N1320   1.438   .     S
C1290  C1292   1.402   .     A
C1291  C1293   1.401   .     A
C1292  C1294   1.401   .     A
C1293  C1295   1.413   .     A
C1293  C1323   1.518   .     S
C1294  C1296   1.413   .     A
C1294  C1327   1.518   .     S
C1295  C1301   1.419   .     A
C1295  C1297   1.420   .     A
C1296  C1302   1.419   .     A
C1296  C1298   1.420   .     A
C1297  C1299   1.423   .     A
C1297  C416    1.410   1_556 S
C1298  C1300   1.423   .     A
C1299  C1304   1.418   .     A
C1300  C1303   1.418   .     A
C1301  C1331   1.519   .     S
C1301  C421    1.409   1_556 S
C1302  C1335   1.519   .     S
C1303  N1339   1.438   .     S
C1304  N1342   1.438   .     S
C1304  C420    1.409   1_556 S
C1305  C1345   1.519   .     S
C1305  C1310   1.416   .     A
C1306  C1349   1.519   .     S
C1306  C1309   1.415   .     A
C1306  C1406   1.399   .     S
C1307  C1309   1.416   .     A
C1307  C1353   1.518   .     S
C1307  C1403   1.399   .     S
C1308  C1357   1.518   .     S
C1308  C1310   1.416   .     A
C1311  N1316   1.370   .     A
C1311  N1361   1.432   .     S
C1312  N1315   1.370   .     A
C1312  N1364   1.432   .     S
C1312  C1607   1.428   .     S
C1313  N1367   1.432   .     S
C1313  N1316   1.371   .     A
C1314  N1370   1.432   .     S
C1314  N1315   1.371   .     A
C1314  C1605   1.428   .     S
N1317  H1318   1.046   .     S
N1317  H1319   1.046   .     S
N1320  H1322   1.046   .     S
N1320  H1321   1.046   .     S
C1323  H1325   1.109   .     S
C1323  H1326   1.108   .     S
C1323  H1324   1.109   .     S
C1327  H1328   1.109   .     S
C1327  H1329   1.108   .     S
C1327  H1330   1.109   .     S
C1331  H1332   1.107   .     S
C1331  H1334   1.110   .     S
C1331  H1333   1.109   .     S
C1335  H1337   1.110   .     S
C1335  H1338   1.109   .     S
C1335  H1336   1.107   .     S
N1339  H1341   1.044   .     S
N1339  H1340   1.045   .     S
N1342  H1343   1.044   .     S
N1342  H1344   1.045   .     S
C1345  H1347   1.111   .     S
C1345  H1348   1.107   .     S
C1345  H1346   1.110   .     S
C1349  H1350   1.110   .     S
C1349  H1351   1.107   .     S
C1349  H1352   1.111   .     S
C1353  H1356   1.106   .     S
C1353  H1355   1.111   .     S
C1353  H1354   1.109   .     S
C1357  H1358   1.109   .     S
C1357  H1359   1.106   .     S
C1357  H1360   1.111   .     S
N1361  H1362   1.044   .     S
N1361  H1363   1.045   .     S
N1364  H1366   1.045   .     S
N1364  H1365   1.044   .     S
N1367  H1368   1.044   .     S
N1367  H1369   1.046   .     S
N1370  H1372   1.045   .     S
N1370  H1371   1.043   .     S
O1373  C1377   1.299   .     A
O1373  Cu1385  1.972   .     S
O1374  C1378   1.299   .     A
O1374  Cu1386  1.972   .     S
O1375  C1378   1.299   .     A
O1375  Cu1385  1.969   .     S
O1376  C1377   1.299   .     A
O1376  Cu1386  1.969   .     S
C1377  C1408   1.475   .     S
C1378  C1407   1.475   .     S
O1379  C1383   1.290   .     A
O1379  Cu1385  1.961   .     S
O1380  C1384   1.290   .     A
O1380  Cu1386  1.961   .     S
O1381  Cu1385  1.961   .     S
O1381  C1384   1.291   .     A
O1382  Cu1386  1.961   .     S
O1382  C1383   1.291   .     A
C1383  C1390   1.450   .     S
C1384  C1389   1.450   .     S
Cu1385 N1413   2.017   .     S
Cu1385 Cu1386  2.684   .     S
Cu1386 N1414   2.017   .     S
C1387  C1397   1.413   .     A
C1387  C1389   1.402   .     A
C1387  N1415   1.438   .     S
C1388  C1398   1.413   .     A
C1388  N1418   1.438   .     S
C1388  C1390   1.402   .     A
C1389  C1391   1.401   .     A
C1390  C1392   1.401   .     A
C1391  C1393   1.413   .     A
C1391  C1421   1.518   .     S
C1392  C1394   1.413   .     A
C1392  C1425   1.518   .     S
C1393  C1399   1.419   .     A
C1393  C1395   1.420   .     A
C1394  C1400   1.419   .     A
C1394  C1396   1.420   .     A
C1395  C1397   1.423   .     A
C1395  C514    1.410   1_556 S
C1396  C1398   1.423   .     A
C1397  C1402   1.418   .     A
C1398  C1401   1.418   .     A
C1399  C1429   1.519   .     S
C1399  C519    1.409   1_556 S
C1400  C1433   1.519   .     S
C1401  N1437   1.438   .     S
C1402  N1440   1.438   .     S
C1402  C518    1.409   1_556 S
C1403  C1443   1.519   .     S
C1403  C1408   1.416   .     A
C1404  C1447   1.519   .     S
C1404  C1407   1.415   .     A
C1404  C1210   1.399   1_655 S
C1405  C1407   1.416   .     A
C1405  C1451   1.518   .     S
C1405  C1207   1.399   1_655 S
C1406  C1455   1.518   .     S
C1406  C1408   1.416   .     A
C1409  N1414   1.370   .     A
C1409  N1459   1.432   .     S
C1410  N1413   1.370   .     A
C1410  N1462   1.432   .     S
C1410  C1705   1.428   .     S
C1411  N1465   1.432   .     S
C1411  N1414   1.371   .     A
C1412  N1468   1.432   .     S
C1412  N1413   1.371   .     A
C1412  C1703   1.428   .     S
N1415  H1416   1.046   .     S
N1415  H1417   1.046   .     S
N1418  H1420   1.046   .     S
N1418  H1419   1.046   .     S
C1421  H1423   1.109   .     S
C1421  H1424   1.108   .     S
C1421  H1422   1.109   .     S
C1425  H1426   1.109   .     S
C1425  H1427   1.108   .     S
C1425  H1428   1.109   .     S
C1429  H1430   1.107   .     S
C1429  H1432   1.110   .     S
C1429  H1431   1.109   .     S
C1433  H1435   1.110   .     S
C1433  H1436   1.109   .     S
C1433  H1434   1.107   .     S
N1437  H1439   1.044   .     S
N1437  H1438   1.045   .     S
N1440  H1441   1.044   .     S
N1440  H1442   1.045   .     S
C1443  H1445   1.111   .     S
C1443  H1446   1.107   .     S
C1443  H1444   1.110   .     S
C1447  H1448   1.110   .     S
C1447  H1449   1.107   .     S
C1447  H1450   1.111   .     S
C1451  H1454   1.106   .     S
C1451  H1453   1.111   .     S
C1451  H1452   1.109   .     S
C1455  H1456   1.109   .     S
C1455  H1457   1.106   .     S
C1455  H1458   1.111   .     S
N1459  H1460   1.044   .     S
N1459  H1461   1.045   .     S
N1462  H1464   1.045   .     S
N1462  H1463   1.044   .     S
N1465  H1466   1.044   .     S
N1465  H1467   1.046   .     S
N1468  H1470   1.045   .     S
N1468  H1469   1.043   .     S
O1471  C1475   1.299   .     A
O1471  Cu1483  1.972   .     S
O1472  C1476   1.299   .     A
O1472  Cu1484  1.972   .     S
O1473  C1476   1.299   .     A
O1473  Cu1483  1.969   .     S
O1474  C1475   1.299   .     A
O1474  Cu1484  1.969   .     S
C1475  C1506   1.475   .     S
C1476  C1505   1.475   .     S
O1477  C1481   1.290   .     A
O1477  Cu1483  1.961   .     S
O1478  C1482   1.290   .     A
O1478  Cu1484  1.961   .     S
O1479  Cu1483  1.961   .     S
O1479  C1482   1.291   .     A
O1480  Cu1484  1.961   .     S
O1480  C1481   1.291   .     A
C1481  C1488   1.450   .     S
C1482  C1487   1.450   .     S
Cu1483 N1511   2.017   .     S
Cu1483 Cu1484  2.684   .     S
Cu1484 N1512   2.017   .     S
C1485  C1495   1.413   .     A
C1485  C1487   1.402   .     A
C1485  N1513   1.438   .     S
C1486  C1496   1.413   .     A
C1486  N1516   1.438   .     S
C1486  C1488   1.402   .     A
C1487  C1489   1.401   .     A
C1488  C1490   1.401   .     A
C1489  C1491   1.413   .     A
C1489  C1519   1.518   .     S
C1490  C1492   1.413   .     A
C1490  C1523   1.518   .     S
C1491  C1497   1.419   .     A
C1491  C1493   1.420   .     A
C1492  C1498   1.419   .     A
C1492  C1494   1.420   .     A
C1493  C1495   1.423   .     A
C1493  C612    1.410   1_556 S
C1494  C1496   1.423   .     A
C1495  C1500   1.418   .     A
C1496  C1499   1.418   .     A
C1497  C1527   1.519   .     S
C1497  C617    1.409   1_556 S
C1498  C1531   1.519   .     S
C1499  N1535   1.438   .     S
C1500  N1538   1.438   .     S
C1500  C616    1.409   1_556 S
C1501  C1541   1.519   .     S
C1501  C1506   1.416   .     A
C1501  C1699   1.399   1_455 S
C1502  C1545   1.519   .     S
C1502  C1505   1.415   .     A
C1502  C1602   1.399   .     S
C1503  C1505   1.416   .     A
C1503  C1549   1.518   .     S
C1503  C1599   1.399   .     S
C1504  C1553   1.518   .     S
C1504  C1506   1.416   .     A
C1504  C1698   1.399   1_455 S
C1507  N1512   1.370   .     A
C1507  N1557   1.432   .     S
C1508  N1511   1.370   .     A
C1508  N1560   1.432   .     S
C1508  C921    1.428   1_565 S
C1509  N1563   1.432   .     S
C1509  N1512   1.371   .     A
C1510  N1566   1.432   .     S
C1510  N1511   1.371   .     A
C1510  C919    1.428   1_565 S
N1513  H1514   1.046   .     S
N1513  H1515   1.046   .     S
N1516  H1518   1.046   .     S
N1516  H1517   1.046   .     S
C1519  H1521   1.109   .     S
C1519  H1522   1.108   .     S
C1519  H1520   1.109   .     S
C1523  H1524   1.109   .     S
C1523  H1525   1.108   .     S
C1523  H1526   1.109   .     S
C1527  H1528   1.107   .     S
C1527  H1530   1.110   .     S
C1527  H1529   1.109   .     S
C1531  H1533   1.110   .     S
C1531  H1534   1.109   .     S
C1531  H1532   1.107   .     S
N1535  H1537   1.044   .     S
N1535  H1536   1.045   .     S
N1538  H1539   1.044   .     S
N1538  H1540   1.045   .     S
C1541  H1543   1.111   .     S
C1541  H1544   1.107   .     S
C1541  H1542   1.110   .     S
C1545  H1546   1.110   .     S
C1545  H1547   1.107   .     S
C1545  H1548   1.111   .     S
C1549  H1552   1.106   .     S
C1549  H1551   1.111   .     S
C1549  H1550   1.109   .     S
C1553  H1554   1.109   .     S
C1553  H1555   1.106   .     S
C1553  H1556   1.111   .     S
N1557  H1558   1.044   .     S
N1557  H1559   1.045   .     S
N1560  H1562   1.045   .     S
N1560  H1561   1.044   .     S
N1563  H1564   1.044   .     S
N1563  H1565   1.046   .     S
N1566  H1568   1.045   .     S
N1566  H1567   1.043   .     S
O1569  C1573   1.299   .     A
O1569  Cu1581  1.972   .     S
O1570  C1574   1.299   .     A
O1570  Cu1582  1.972   .     S
O1571  C1574   1.299   .     A
O1571  Cu1581  1.969   .     S
O1572  C1573   1.299   .     A
O1572  Cu1582  1.969   .     S
C1573  C1604   1.475   .     S
C1574  C1603   1.475   .     S
O1575  C1579   1.290   .     A
O1575  Cu1581  1.961   .     S
O1576  C1580   1.290   .     A
O1576  Cu1582  1.961   .     S
O1577  Cu1581  1.961   .     S
O1577  C1580   1.291   .     A
O1578  Cu1582  1.961   .     S
O1578  C1579   1.291   .     A
C1579  C1586   1.450   .     S
C1580  C1585   1.450   .     S
Cu1581 N1609   2.017   .     S
Cu1581 Cu1582  2.684   .     S
Cu1582 N1610   2.017   .     S
C1583  C1593   1.413   .     A
C1583  C1585   1.402   .     A
C1583  N1611   1.438   .     S
C1584  C1594   1.413   .     A
C1584  N1614   1.438   .     S
C1584  C1586   1.402   .     A
C1585  C1587   1.401   .     A
C1586  C1588   1.401   .     A
C1587  C1589   1.413   .     A
C1587  C1617   1.518   .     S
C1588  C1590   1.413   .     A
C1588  C1621   1.518   .     S
C1589  C1595   1.419   .     A
C1589  C1591   1.420   .     A
C1590  C1596   1.419   .     A
C1590  C1592   1.420   .     A
C1591  C1593   1.423   .     A
C1591  C710    1.410   1_556 S
C1592  C1594   1.423   .     A
C1593  C1598   1.418   .     A
C1594  C1597   1.418   .     A
C1595  C1625   1.519   .     S
C1595  C715    1.409   1_556 S
C1596  C1629   1.519   .     S
C1597  N1633   1.438   .     S
C1598  N1636   1.438   .     S
C1598  C714    1.409   1_556 S
C1599  C1639   1.519   .     S
C1599  C1604   1.416   .     A
C1600  C1643   1.519   .     S
C1600  C1603   1.415   .     A
C1600  C1700   1.399   .     S
C1601  C1603   1.416   .     A
C1601  C1647   1.518   .     S
C1601  C1697   1.399   .     S
C1602  C1651   1.518   .     S
C1602  C1604   1.416   .     A
C1605  N1610   1.370   .     A
C1605  N1655   1.432   .     S
C1606  N1609   1.370   .     A
C1606  N1658   1.432   .     S
C1606  C1019   1.428   1_565 S
C1607  N1661   1.432   .     S
C1607  N1610   1.371   .     A
C1608  N1664   1.432   .     S
C1608  N1609   1.371   .     A
C1608  C1017   1.428   1_565 S
N1611  H1612   1.046   .     S
N1611  H1613   1.046   .     S
N1614  H1616   1.046   .     S
N1614  H1615   1.046   .     S
C1617  H1619   1.109   .     S
C1617  H1620   1.108   .     S
C1617  H1618   1.109   .     S
C1621  H1622   1.109   .     S
C1621  H1623   1.108   .     S
C1621  H1624   1.109   .     S
C1625  H1626   1.107   .     S
C1625  H1628   1.110   .     S
C1625  H1627   1.109   .     S
C1629  H1631   1.110   .     S
C1629  H1632   1.109   .     S
C1629  H1630   1.107   .     S
N1633  H1635   1.044   .     S
N1633  H1634   1.045   .     S
N1636  H1637   1.044   .     S
N1636  H1638   1.045   .     S
C1639  H1641   1.111   .     S
C1639  H1642   1.107   .     S
C1639  H1640   1.110   .     S
C1643  H1644   1.110   .     S
C1643  H1645   1.107   .     S
C1643  H1646   1.111   .     S
C1647  H1650   1.106   .     S
C1647  H1649   1.111   .     S
C1647  H1648   1.109   .     S
C1651  H1652   1.109   .     S
C1651  H1653   1.106   .     S
C1651  H1654   1.111   .     S
N1655  H1656   1.044   .     S
N1655  H1657   1.045   .     S
N1658  H1660   1.045   .     S
N1658  H1659   1.044   .     S
N1661  H1662   1.044   .     S
N1661  H1663   1.046   .     S
N1664  H1666   1.045   .     S
N1664  H1665   1.043   .     S
O1667  C1671   1.299   .     A
O1667  Cu1679  1.972   .     S
O1668  C1672   1.299   .     A
O1668  Cu1680  1.972   .     S
O1669  C1672   1.299   .     A
O1669  Cu1679  1.969   .     S
O1670  C1671   1.299   .     A
O1670  Cu1680  1.969   .     S
C1671  C1702   1.475   .     S
C1672  C1701   1.475   .     S
O1673  C1677   1.290   .     A
O1673  Cu1679  1.961   .     S
O1674  C1678   1.290   .     A
O1674  Cu1680  1.961   .     S
O1675  Cu1679  1.961   .     S
O1675  C1678   1.291   .     A
O1676  Cu1680  1.961   .     S
O1676  C1677   1.291   .     A
C1677  C1684   1.450   .     S
C1678  C1683   1.450   .     S
Cu1679 N1707   2.017   .     S
Cu1679 Cu1680  2.684   .     S
Cu1680 N1708   2.017   .     S
C1681  C1691   1.413   .     A
C1681  C1683   1.402   .     A
C1681  N1709   1.438   .     S
C1682  C1692   1.413   .     A
C1682  N1712   1.438   .     S
C1682  C1684   1.402   .     A
C1683  C1685   1.401   .     A
C1684  C1686   1.401   .     A
C1685  C1687   1.413   .     A
C1685  C1715   1.518   .     S
C1686  C1688   1.413   .     A
C1686  C1719   1.518   .     S
C1687  C1693   1.419   .     A
C1687  C1689   1.420   .     A
C1688  C1694   1.419   .     A
C1688  C1690   1.420   .     A
C1689  C1691   1.423   .     A
C1689  C808    1.410   1_556 S
C1690  C1692   1.423   .     A
C1691  C1696   1.418   .     A
C1692  C1695   1.418   .     A
C1693  C1723   1.519   .     S
C1693  C813    1.409   1_556 S
C1694  C1727   1.519   .     S
C1695  N1731   1.438   .     S
C1696  N1734   1.438   .     S
C1696  C812    1.409   1_556 S
C1697  C1737   1.519   .     S
C1697  C1702   1.416   .     A
C1698  C1741   1.519   .     S
C1698  C1701   1.415   .     A
C1698  C1504   1.399   1_655 S
C1699  C1701   1.416   .     A
C1699  C1745   1.518   .     S
C1699  C1501   1.399   1_655 S
C1700  C1749   1.518   .     S
C1700  C1702   1.416   .     A
C1703  N1708   1.370   .     A
C1703  N1753   1.432   .     S
C1704  N1707   1.370   .     A
C1704  N1756   1.432   .     S
C1704  C1117   1.428   1_565 S
C1705  N1759   1.432   .     S
C1705  N1708   1.371   .     A
C1706  N1762   1.432   .     S
C1706  N1707   1.371   .     A
C1706  C1115   1.428   1_565 S
N1709  H1710   1.046   .     S
N1709  H1711   1.046   .     S
N1712  H1714   1.046   .     S
N1712  H1713   1.046   .     S
C1715  H1717   1.109   .     S
C1715  H1718   1.108   .     S
C1715  H1716   1.109   .     S
C1719  H1720   1.109   .     S
C1719  H1721   1.108   .     S
C1719  H1722   1.109   .     S
C1723  H1724   1.107   .     S
C1723  H1726   1.110   .     S
C1723  H1725   1.109   .     S
C1727  H1729   1.110   .     S
C1727  H1730   1.109   .     S
C1727  H1728   1.107   .     S
N1731  H1733   1.044   .     S
N1731  H1732   1.045   .     S
N1734  H1735   1.044   .     S
N1734  H1736   1.045   .     S
C1737  H1739   1.111   .     S
C1737  H1740   1.107   .     S
C1737  H1738   1.110   .     S
C1741  H1742   1.110   .     S
C1741  H1743   1.107   .     S
C1741  H1744   1.111   .     S
C1745  H1748   1.106   .     S
C1745  H1747   1.111   .     S
C1745  H1746   1.109   .     S
C1749  H1750   1.109   .     S
C1749  H1751   1.106   .     S
C1749  H1752   1.111   .     S
N1753  H1754   1.044   .     S
N1753  H1755   1.045   .     S
N1756  H1758   1.045   .     S
N1756  H1757   1.044   .     S
N1759  H1760   1.044   .     S
N1759  H1761   1.046   .     S
N1762  H1764   1.045   .     S
N1762  H1763   1.043   .     S
