data_str_m2_o10_o18_pcu_sym.64
_audit_creation_date              2020-01-03
_audit_creation_method            'Materials Studio'
_symmetry_space_group_name_H-M    'P1'
_symmetry_Int_Tables_number       1
_symmetry_cell_setting            triclinic
loop_
_symmetry_equiv_pos_as_xyz
  x,y,z
_cell_length_a                    22.2393
_cell_length_b                    26.1722
_cell_length_c                    31.6062
_cell_angle_alpha                 93.9614
_cell_angle_beta                  75.1272
_cell_angle_gamma                 102.1714
loop_
_atom_site_label
_atom_site_type_symbol
_atom_site_fract_x
_atom_site_fract_y
_atom_site_fract_z
_atom_site_U_iso_or_equiv
_atom_site_adp_type
_atom_site_occupancy
C1     C     0.17984   0.26627   0.25296   0.00000  Uiso   1.00
C2     C     0.20534   0.17063   0.16688   0.00000  Uiso   1.00
C3     C     0.10457   0.15876   0.38089   0.00000  Uiso   1.00
C4     C     0.22876   0.17825   0.11952   0.00000  Uiso   1.00
C5     C     0.02274   0.12754   0.44536   0.00000  Uiso   1.00
C6     C     0.30619   0.22128   0.05752   0.00000  Uiso   1.00
C7     C     0.04135   0.13665   0.40053   0.00000  Uiso   1.00
C8     C     0.28949   0.20700   0.10129   0.00000  Uiso   1.00
C9     C     0.14801   0.17427   0.40676   0.00000  Uiso   1.00
C10    C     0.18606   0.16200   0.09329   0.00000  Uiso   1.00
C11    C     0.13027   0.16645   0.45218   0.00000  Uiso   1.00
C12    C     0.15296   0.06702   0.24770   0.00000  Uiso   1.00
C13    C     0.20046   0.17794   0.04965   0.00000  Uiso   1.00
C14    C     0.06690   0.14115   0.47105   0.00000  Uiso   1.00
C15    C     0.26208   0.20752   0.03178   0.00000  Uiso   1.00
C16    C     0.17423   0.18112   0.47892   0.00000  Uiso   1.00
C17    C     0.15529   0.16610   0.02363   0.00000  Uiso   1.00
C18    C     0.19856   0.00884   0.30507   0.00000  Uiso   1.00
C19    C     0.16669   0.30624   0.34452   0.00000  Uiso   1.00
C20    C     0.18046   0.33185   0.38685   0.00000  Uiso   1.00
C21    C     0.13101   0.32435   0.19757   0.00000  Uiso   1.00
C22    C     0.18736   0.31612   0.15964   0.00000  Uiso   1.00
C23    C     0.09144   0.14090   0.04105   0.00000  Uiso   1.00
C24    C     0.16569   0.29772   0.11806   0.00000  Uiso   1.00
C25    C     0.23609   0.21099   0.46264   0.00000  Uiso   1.00
C26    C     0.04830   0.12902   0.01523   0.00000  Uiso   1.00
C27    C     0.27887   0.22392   0.48867   0.00000  Uiso   1.00
C28    C     0.17848   0.32021   0.26324   0.00000  Uiso   1.00
C29    C     0.15222   0.01270   0.23899   0.00000  Uiso   1.00
C30    C     0.12799   0.16274   0.33315   0.00000  Uiso   1.00
Cu31   Cu    0.10737   0.16108   0.24517   0.00000  Uiso   1.00
Cu32   Cu    0.22596   0.17225   0.25484   0.00000  Uiso   1.00
H33    H     0.33319   0.10992   0.03005   0.00000  Uiso   1.00
H34    H     0.25276   0.22653   0.43010   0.00000  Uiso   1.00
H35    H     0.00141   0.20503   0.28414   0.00000  Uiso   1.00
H36    H     0.33194   0.12832   0.21585   0.00000  Uiso   1.00
H37    H     0.23249   0.00862   0.38374   0.00000  Uiso   1.00
H38    H     0.16050   0.03455   0.39457   0.00000  Uiso   1.00
H39    H     0.15826   0.30425   0.41429   0.00000  Uiso   1.00
H40    H     0.11442   0.29665   0.34841   0.00000  Uiso   1.00
H41    H     0.18488   0.26941   0.33918   0.00000  Uiso   1.00
H42    H     0.25099   0.01393   0.29874   0.00000  Uiso   1.00
H43    H     0.18592   0.04726   0.31542   0.00000  Uiso   1.00
H44    H     0.32564   0.24700   0.47483   0.00000  Uiso   1.00
H45    H     0.13141   0.25978   0.12359   0.00000  Uiso   1.00
H46    H     0.14290   0.32712   0.10790   0.00000  Uiso   1.00
H47    H     0.20736   0.29251   0.09119   0.00000  Uiso   1.00
H48    H     0.22249   0.02024   0.15297   0.00000  Uiso   1.00
H49    H     0.21140   0.28662   0.16811   0.00000  Uiso   1.00
H50    H     0.09374   0.28835   0.20406   0.00000  Uiso   1.00
H51    H     0.10760   0.01912   0.18614   0.00000  Uiso   1.00
H52    H     0.14128   0.13759   0.10833   0.00000  Uiso   1.00
H53    H     0.19626   0.19046   0.39020   0.00000  Uiso   1.00
H54    H     0.32309   0.22003   0.12117   0.00000  Uiso   1.00
H55    H     0.00704   0.12455   0.38106   0.00000  Uiso   1.00
H56    H     0.30732   0.10895   0.45986   0.00000  Uiso   1.00
H57    H     0.01990   0.24405   0.04400   0.00000  Uiso   1.00
H58    H     0.07229   0.13075   0.07495   0.00000  Uiso   1.00
N59    N     0.31506   0.18068   0.26212   0.00000  Uiso   1.00
N60    N     0.01827   0.15265   0.23788   0.00000  Uiso   1.00
O61    O     0.12815   0.23809   0.24686   0.00000  Uiso   1.00
O62    O     0.20518   0.09524   0.25314   0.00000  Uiso   1.00
O63    O     0.22829   0.24753   0.25503   0.00000  Uiso   1.00
O64    O     0.10504   0.08580   0.24498   0.00000  Uiso   1.00
O65    O     0.08851   0.15930   0.30855   0.00000  Uiso   1.00
O66    O     0.24482   0.17403   0.19146   0.00000  Uiso   1.00
O67    O     0.18866   0.16874   0.31671   0.00000  Uiso   1.00
O68    O     0.14468   0.16460   0.18329   0.00000  Uiso   1.00
C69    C     0.51317   0.26627   0.25296   0.00000  Uiso   1.00
C70    C     0.53867   0.17063   0.16688   0.00000  Uiso   1.00
C71    C     0.43791   0.15876   0.38089   0.00000  Uiso   1.00
C72    C     0.56210   0.17825   0.11952   0.00000  Uiso   1.00
C73    C     0.35607   0.12754   0.44536   0.00000  Uiso   1.00
C74    C     0.63952   0.22128   0.05752   0.00000  Uiso   1.00
C75    C     0.37469   0.13665   0.40053   0.00000  Uiso   1.00
C76    C     0.62283   0.20700   0.10129   0.00000  Uiso   1.00
C77    C     0.48134   0.17427   0.40676   0.00000  Uiso   1.00
C78    C     0.51940   0.16200   0.09329   0.00000  Uiso   1.00
C79    C     0.46361   0.16645   0.45218   0.00000  Uiso   1.00
C80    C     0.48629   0.06702   0.24770   0.00000  Uiso   1.00
C81    C     0.53380   0.17794   0.04965   0.00000  Uiso   1.00
C82    C     0.40024   0.14115   0.47105   0.00000  Uiso   1.00
C83    C     0.59542   0.20752   0.03178   0.00000  Uiso   1.00
C84    C     0.50757   0.18112   0.47892   0.00000  Uiso   1.00
C85    C     0.48862   0.16610   0.02363   0.00000  Uiso   1.00
C86    C     0.53189   0.00884   0.30507   0.00000  Uiso   1.00
C87    C     0.50002   0.30624   0.34452   0.00000  Uiso   1.00
C88    C     0.51380   0.33185   0.38685   0.00000  Uiso   1.00
C89    C     0.46434   0.32435   0.19757   0.00000  Uiso   1.00
C90    C     0.52069   0.31612   0.15964   0.00000  Uiso   1.00
C91    C     0.42477   0.14090   0.04105   0.00000  Uiso   1.00
C92    C     0.49902   0.29772   0.11806   0.00000  Uiso   1.00
C93    C     0.56943   0.21099   0.46264   0.00000  Uiso   1.00
C94    C     0.38163   0.12902   0.01523   0.00000  Uiso   1.00
C95    C     0.61220   0.22392   0.48867   0.00000  Uiso   1.00
C96    C     0.51181   0.32021   0.26324   0.00000  Uiso   1.00
C97    C     0.48556   0.01270   0.23899   0.00000  Uiso   1.00
C98    C     0.46132   0.16274   0.33315   0.00000  Uiso   1.00
Cu99   Cu    0.44071   0.16108   0.24517   0.00000  Uiso   1.00
Cu100  Cu    0.55929   0.17225   0.25484   0.00000  Uiso   1.00
H101   H     0.66652   0.10992   0.03005   0.00000  Uiso   1.00
H102   H     0.58609   0.22653   0.43010   0.00000  Uiso   1.00
H103   H     0.33474   0.20503   0.28414   0.00000  Uiso   1.00
H104   H     0.66527   0.12832   0.21585   0.00000  Uiso   1.00
H105   H     0.56582   0.00862   0.38374   0.00000  Uiso   1.00
H106   H     0.49384   0.03455   0.39457   0.00000  Uiso   1.00
H107   H     0.49160   0.30425   0.41429   0.00000  Uiso   1.00
H108   H     0.44775   0.29665   0.34841   0.00000  Uiso   1.00
H109   H     0.51821   0.26941   0.33918   0.00000  Uiso   1.00
H110   H     0.58432   0.01393   0.29874   0.00000  Uiso   1.00
H111   H     0.51925   0.04726   0.31542   0.00000  Uiso   1.00
H112   H     0.65897   0.24700   0.47483   0.00000  Uiso   1.00
H113   H     0.46474   0.25978   0.12359   0.00000  Uiso   1.00
H114   H     0.47624   0.32712   0.10790   0.00000  Uiso   1.00
H115   H     0.54069   0.29251   0.09119   0.00000  Uiso   1.00
H116   H     0.55582   0.02024   0.15297   0.00000  Uiso   1.00
H117   H     0.54473   0.28662   0.16811   0.00000  Uiso   1.00
H118   H     0.42707   0.28835   0.20406   0.00000  Uiso   1.00
H119   H     0.44093   0.01912   0.18614   0.00000  Uiso   1.00
H120   H     0.47462   0.13759   0.10833   0.00000  Uiso   1.00
H121   H     0.52960   0.19046   0.39020   0.00000  Uiso   1.00
H122   H     0.65642   0.22003   0.12117   0.00000  Uiso   1.00
H123   H     0.34037   0.12455   0.38106   0.00000  Uiso   1.00
H124   H     0.64066   0.10895   0.45986   0.00000  Uiso   1.00
H125   H     0.35323   0.24405   0.04400   0.00000  Uiso   1.00
H126   H     0.40563   0.13075   0.07495   0.00000  Uiso   1.00
N127   N     0.64839   0.18068   0.26212   0.00000  Uiso   1.00
N128   N     0.35161   0.15265   0.23788   0.00000  Uiso   1.00
O129   O     0.46148   0.23809   0.24686   0.00000  Uiso   1.00
O130   O     0.53852   0.09524   0.25314   0.00000  Uiso   1.00
O131   O     0.56163   0.24753   0.25503   0.00000  Uiso   1.00
O132   O     0.43837   0.08580   0.24498   0.00000  Uiso   1.00
O133   O     0.42185   0.15930   0.30855   0.00000  Uiso   1.00
O134   O     0.57815   0.17403   0.19146   0.00000  Uiso   1.00
O135   O     0.52199   0.16874   0.31671   0.00000  Uiso   1.00
O136   O     0.47801   0.16460   0.18329   0.00000  Uiso   1.00
C137   C     0.84650   0.26627   0.25296   0.00000  Uiso   1.00
C138   C     0.87200   0.17063   0.16688   0.00000  Uiso   1.00
C139   C     0.77124   0.15876   0.38089   0.00000  Uiso   1.00
C140   C     0.89543   0.17825   0.11952   0.00000  Uiso   1.00
C141   C     0.68940   0.12754   0.44536   0.00000  Uiso   1.00
C142   C     0.97285   0.22128   0.05752   0.00000  Uiso   1.00
C143   C     0.70802   0.13665   0.40053   0.00000  Uiso   1.00
C144   C     0.95616   0.20700   0.10129   0.00000  Uiso   1.00
C145   C     0.81467   0.17427   0.40676   0.00000  Uiso   1.00
C146   C     0.85273   0.16200   0.09329   0.00000  Uiso   1.00
C147   C     0.79694   0.16645   0.45218   0.00000  Uiso   1.00
C148   C     0.81962   0.06702   0.24770   0.00000  Uiso   1.00
C149   C     0.86713   0.17794   0.04965   0.00000  Uiso   1.00
C150   C     0.73357   0.14115   0.47105   0.00000  Uiso   1.00
C151   C     0.92875   0.20752   0.03178   0.00000  Uiso   1.00
C152   C     0.84090   0.18112   0.47892   0.00000  Uiso   1.00
C153   C     0.82196   0.16610   0.02363   0.00000  Uiso   1.00
C154   C     0.86522   0.00884   0.30507   0.00000  Uiso   1.00
C155   C     0.83335   0.30624   0.34452   0.00000  Uiso   1.00
C156   C     0.84713   0.33185   0.38685   0.00000  Uiso   1.00
C157   C     0.79767   0.32435   0.19757   0.00000  Uiso   1.00
C158   C     0.85403   0.31612   0.15964   0.00000  Uiso   1.00
C159   C     0.75811   0.14090   0.04105   0.00000  Uiso   1.00
C160   C     0.83236   0.29772   0.11806   0.00000  Uiso   1.00
C161   C     0.90276   0.21099   0.46264   0.00000  Uiso   1.00
C162   C     0.71497   0.12902   0.01523   0.00000  Uiso   1.00
C163   C     0.94553   0.22392   0.48867   0.00000  Uiso   1.00
C164   C     0.84515   0.32021   0.26324   0.00000  Uiso   1.00
C165   C     0.81889   0.01270   0.23899   0.00000  Uiso   1.00
C166   C     0.79466   0.16274   0.33315   0.00000  Uiso   1.00
Cu167  Cu    0.77404   0.16108   0.24517   0.00000  Uiso   1.00
Cu168  Cu    0.89263   0.17225   0.25484   0.00000  Uiso   1.00
H169   H     0.99985   0.10992   0.03005   0.00000  Uiso   1.00
H170   H     0.91943   0.22653   0.43010   0.00000  Uiso   1.00
H171   H     0.66807   0.20503   0.28414   0.00000  Uiso   1.00
H172   H     0.99860   0.12832   0.21585   0.00000  Uiso   1.00
H173   H     0.89916   0.00862   0.38374   0.00000  Uiso   1.00
H174   H     0.82717   0.03455   0.39457   0.00000  Uiso   1.00
H175   H     0.82493   0.30425   0.41429   0.00000  Uiso   1.00
H176   H     0.78109   0.29665   0.34841   0.00000  Uiso   1.00
H177   H     0.85155   0.26941   0.33918   0.00000  Uiso   1.00
H178   H     0.91765   0.01393   0.29874   0.00000  Uiso   1.00
H179   H     0.85258   0.04726   0.31542   0.00000  Uiso   1.00
H180   H     0.99231   0.24700   0.47483   0.00000  Uiso   1.00
H181   H     0.79808   0.25978   0.12359   0.00000  Uiso   1.00
H182   H     0.80957   0.32712   0.10790   0.00000  Uiso   1.00
H183   H     0.87402   0.29251   0.09119   0.00000  Uiso   1.00
H184   H     0.88916   0.02024   0.15297   0.00000  Uiso   1.00
H185   H     0.87806   0.28662   0.16811   0.00000  Uiso   1.00
H186   H     0.76040   0.28835   0.20406   0.00000  Uiso   1.00
H187   H     0.77426   0.01912   0.18614   0.00000  Uiso   1.00
H188   H     0.80795   0.13759   0.10833   0.00000  Uiso   1.00
H189   H     0.86293   0.19046   0.39020   0.00000  Uiso   1.00
H190   H     0.98975   0.22003   0.12117   0.00000  Uiso   1.00
H191   H     0.67371   0.12455   0.38106   0.00000  Uiso   1.00
H192   H     0.97399   0.10895   0.45986   0.00000  Uiso   1.00
H193   H     0.68656   0.24405   0.04400   0.00000  Uiso   1.00
H194   H     0.73896   0.13075   0.07495   0.00000  Uiso   1.00
N195   N     0.98173   0.18068   0.26212   0.00000  Uiso   1.00
N196   N     0.68494   0.15265   0.23788   0.00000  Uiso   1.00
O197   O     0.79482   0.23809   0.24686   0.00000  Uiso   1.00
O198   O     0.87185   0.09524   0.25314   0.00000  Uiso   1.00
O199   O     0.89496   0.24753   0.25503   0.00000  Uiso   1.00
O200   O     0.77171   0.08580   0.24498   0.00000  Uiso   1.00
O201   O     0.75518   0.15930   0.30855   0.00000  Uiso   1.00
O202   O     0.91149   0.17403   0.19146   0.00000  Uiso   1.00
O203   O     0.85532   0.16874   0.31671   0.00000  Uiso   1.00
O204   O     0.81134   0.16460   0.18329   0.00000  Uiso   1.00
C205   C     0.17984   0.59960   0.25296   0.00000  Uiso   1.00
C206   C     0.20534   0.50396   0.16688   0.00000  Uiso   1.00
C207   C     0.10457   0.49209   0.38089   0.00000  Uiso   1.00
C208   C     0.22876   0.51158   0.11952   0.00000  Uiso   1.00
C209   C     0.02274   0.46087   0.44536   0.00000  Uiso   1.00
C210   C     0.30619   0.55462   0.05752   0.00000  Uiso   1.00
C211   C     0.04135   0.46998   0.40053   0.00000  Uiso   1.00
C212   C     0.28949   0.54033   0.10129   0.00000  Uiso   1.00
C213   C     0.14801   0.50760   0.40676   0.00000  Uiso   1.00
C214   C     0.18606   0.49533   0.09329   0.00000  Uiso   1.00
C215   C     0.13027   0.49978   0.45218   0.00000  Uiso   1.00
C216   C     0.15296   0.40035   0.24770   0.00000  Uiso   1.00
C217   C     0.20046   0.51128   0.04965   0.00000  Uiso   1.00
C218   C     0.06690   0.47448   0.47105   0.00000  Uiso   1.00
C219   C     0.26208   0.54085   0.03178   0.00000  Uiso   1.00
C220   C     0.17423   0.51446   0.47892   0.00000  Uiso   1.00
C221   C     0.15529   0.49943   0.02363   0.00000  Uiso   1.00
C222   C     0.19856   0.34217   0.30507   0.00000  Uiso   1.00
C223   C     0.16669   0.63957   0.34452   0.00000  Uiso   1.00
C224   C     0.18046   0.66519   0.38685   0.00000  Uiso   1.00
C225   C     0.13101   0.65768   0.19757   0.00000  Uiso   1.00
C226   C     0.18736   0.64945   0.15964   0.00000  Uiso   1.00
C227   C     0.09144   0.47423   0.04105   0.00000  Uiso   1.00
C228   C     0.16569   0.63106   0.11806   0.00000  Uiso   1.00
C229   C     0.23609   0.54433   0.46264   0.00000  Uiso   1.00
C230   C     0.04830   0.46236   0.01523   0.00000  Uiso   1.00
C231   C     0.27887   0.55725   0.48867   0.00000  Uiso   1.00
C232   C     0.17848   0.65354   0.26324   0.00000  Uiso   1.00
C233   C     0.15222   0.34603   0.23899   0.00000  Uiso   1.00
C234   C     0.12799   0.49607   0.33315   0.00000  Uiso   1.00
Cu235  Cu    0.10737   0.49441   0.24517   0.00000  Uiso   1.00
Cu236  Cu    0.22596   0.50559   0.25484   0.00000  Uiso   1.00
H237   H     0.33319   0.44325   0.03005   0.00000  Uiso   1.00
H238   H     0.25276   0.55987   0.43010   0.00000  Uiso   1.00
H239   H     0.00141   0.53836   0.28414   0.00000  Uiso   1.00
H240   H     0.33194   0.46166   0.21585   0.00000  Uiso   1.00
H241   H     0.23249   0.34195   0.38374   0.00000  Uiso   1.00
H242   H     0.16050   0.36789   0.39457   0.00000  Uiso   1.00
H243   H     0.15826   0.63759   0.41429   0.00000  Uiso   1.00
H244   H     0.11442   0.62998   0.34841   0.00000  Uiso   1.00
H245   H     0.18488   0.60274   0.33918   0.00000  Uiso   1.00
H246   H     0.25099   0.34726   0.29874   0.00000  Uiso   1.00
H247   H     0.18592   0.38059   0.31542   0.00000  Uiso   1.00
H248   H     0.32564   0.58033   0.47483   0.00000  Uiso   1.00
H249   H     0.13141   0.59311   0.12359   0.00000  Uiso   1.00
H250   H     0.14290   0.66045   0.10790   0.00000  Uiso   1.00
H251   H     0.20736   0.62584   0.09119   0.00000  Uiso   1.00
H252   H     0.22249   0.35357   0.15297   0.00000  Uiso   1.00
H253   H     0.21140   0.61995   0.16811   0.00000  Uiso   1.00
H254   H     0.09374   0.62169   0.20406   0.00000  Uiso   1.00
H255   H     0.10760   0.35246   0.18614   0.00000  Uiso   1.00
H256   H     0.14128   0.47093   0.10833   0.00000  Uiso   1.00
H257   H     0.19626   0.52380   0.39020   0.00000  Uiso   1.00
H258   H     0.32309   0.55336   0.12117   0.00000  Uiso   1.00
H259   H     0.00704   0.45788   0.38106   0.00000  Uiso   1.00
H260   H     0.30732   0.44228   0.45986   0.00000  Uiso   1.00
H261   H     0.01990   0.57738   0.04400   0.00000  Uiso   1.00
H262   H     0.07229   0.46408   0.07495   0.00000  Uiso   1.00
N263   N     0.31506   0.51401   0.26212   0.00000  Uiso   1.00
N264   N     0.01827   0.48599   0.23788   0.00000  Uiso   1.00
O265   O     0.12815   0.57142   0.24686   0.00000  Uiso   1.00
O266   O     0.20518   0.42858   0.25314   0.00000  Uiso   1.00
O267   O     0.22829   0.58086   0.25503   0.00000  Uiso   1.00
O268   O     0.10504   0.41914   0.24498   0.00000  Uiso   1.00
O269   O     0.08851   0.49263   0.30855   0.00000  Uiso   1.00
O270   O     0.24482   0.50737   0.19146   0.00000  Uiso   1.00
O271   O     0.18866   0.50207   0.31671   0.00000  Uiso   1.00
O272   O     0.14468   0.49793   0.18329   0.00000  Uiso   1.00
C273   C     0.51317   0.59960   0.25296   0.00000  Uiso   1.00
C274   C     0.53867   0.50396   0.16688   0.00000  Uiso   1.00
C275   C     0.43791   0.49209   0.38089   0.00000  Uiso   1.00
C276   C     0.56210   0.51158   0.11952   0.00000  Uiso   1.00
C277   C     0.35607   0.46087   0.44536   0.00000  Uiso   1.00
C278   C     0.63952   0.55462   0.05752   0.00000  Uiso   1.00
C279   C     0.37469   0.46998   0.40053   0.00000  Uiso   1.00
C280   C     0.62283   0.54033   0.10129   0.00000  Uiso   1.00
C281   C     0.48134   0.50760   0.40676   0.00000  Uiso   1.00
C282   C     0.51940   0.49533   0.09329   0.00000  Uiso   1.00
C283   C     0.46361   0.49978   0.45218   0.00000  Uiso   1.00
C284   C     0.48629   0.40035   0.24770   0.00000  Uiso   1.00
C285   C     0.53380   0.51128   0.04965   0.00000  Uiso   1.00
C286   C     0.40024   0.47448   0.47105   0.00000  Uiso   1.00
C287   C     0.59542   0.54085   0.03178   0.00000  Uiso   1.00
C288   C     0.50757   0.51446   0.47892   0.00000  Uiso   1.00
C289   C     0.48862   0.49943   0.02363   0.00000  Uiso   1.00
C290   C     0.53189   0.34217   0.30507   0.00000  Uiso   1.00
C291   C     0.50002   0.63957   0.34452   0.00000  Uiso   1.00
C292   C     0.51380   0.66519   0.38685   0.00000  Uiso   1.00
C293   C     0.46434   0.65768   0.19757   0.00000  Uiso   1.00
C294   C     0.52069   0.64945   0.15964   0.00000  Uiso   1.00
C295   C     0.42477   0.47423   0.04105   0.00000  Uiso   1.00
C296   C     0.49902   0.63106   0.11806   0.00000  Uiso   1.00
C297   C     0.56943   0.54433   0.46264   0.00000  Uiso   1.00
C298   C     0.38163   0.46236   0.01523   0.00000  Uiso   1.00
C299   C     0.61220   0.55725   0.48867   0.00000  Uiso   1.00
C300   C     0.51181   0.65354   0.26324   0.00000  Uiso   1.00
C301   C     0.48556   0.34603   0.23899   0.00000  Uiso   1.00
C302   C     0.46132   0.49607   0.33315   0.00000  Uiso   1.00
Cu303  Cu    0.44071   0.49441   0.24517   0.00000  Uiso   1.00
Cu304  Cu    0.55929   0.50559   0.25484   0.00000  Uiso   1.00
H305   H     0.66652   0.44325   0.03005   0.00000  Uiso   1.00
H306   H     0.58609   0.55987   0.43010   0.00000  Uiso   1.00
H307   H     0.33474   0.53836   0.28414   0.00000  Uiso   1.00
H308   H     0.66527   0.46166   0.21585   0.00000  Uiso   1.00
H309   H     0.56582   0.34195   0.38374   0.00000  Uiso   1.00
H310   H     0.49384   0.36789   0.39457   0.00000  Uiso   1.00
H311   H     0.49160   0.63759   0.41429   0.00000  Uiso   1.00
H312   H     0.44775   0.62998   0.34841   0.00000  Uiso   1.00
H313   H     0.51821   0.60274   0.33918   0.00000  Uiso   1.00
H314   H     0.58432   0.34726   0.29874   0.00000  Uiso   1.00
H315   H     0.51925   0.38059   0.31542   0.00000  Uiso   1.00
H316   H     0.65897   0.58033   0.47483   0.00000  Uiso   1.00
H317   H     0.46474   0.59311   0.12359   0.00000  Uiso   1.00
H318   H     0.47624   0.66045   0.10790   0.00000  Uiso   1.00
H319   H     0.54069   0.62584   0.09119   0.00000  Uiso   1.00
H320   H     0.55582   0.35357   0.15297   0.00000  Uiso   1.00
H321   H     0.54473   0.61995   0.16811   0.00000  Uiso   1.00
H322   H     0.42707   0.62169   0.20406   0.00000  Uiso   1.00
H323   H     0.44093   0.35246   0.18614   0.00000  Uiso   1.00
H324   H     0.47462   0.47093   0.10833   0.00000  Uiso   1.00
H325   H     0.52960   0.52380   0.39020   0.00000  Uiso   1.00
H326   H     0.65642   0.55336   0.12117   0.00000  Uiso   1.00
H327   H     0.34037   0.45788   0.38106   0.00000  Uiso   1.00
H328   H     0.64066   0.44228   0.45986   0.00000  Uiso   1.00
H329   H     0.35323   0.57738   0.04400   0.00000  Uiso   1.00
H330   H     0.40563   0.46408   0.07495   0.00000  Uiso   1.00
N331   N     0.64839   0.51401   0.26212   0.00000  Uiso   1.00
N332   N     0.35161   0.48599   0.23788   0.00000  Uiso   1.00
O333   O     0.46148   0.57142   0.24686   0.00000  Uiso   1.00
O334   O     0.53852   0.42858   0.25314   0.00000  Uiso   1.00
O335   O     0.56163   0.58086   0.25503   0.00000  Uiso   1.00
O336   O     0.43837   0.41914   0.24498   0.00000  Uiso   1.00
O337   O     0.42185   0.49263   0.30855   0.00000  Uiso   1.00
O338   O     0.57815   0.50737   0.19146   0.00000  Uiso   1.00
O339   O     0.52199   0.50207   0.31671   0.00000  Uiso   1.00
O340   O     0.47801   0.49793   0.18329   0.00000  Uiso   1.00
C341   C     0.84650   0.59960   0.25296   0.00000  Uiso   1.00
C342   C     0.87200   0.50396   0.16688   0.00000  Uiso   1.00
C343   C     0.77124   0.49209   0.38089   0.00000  Uiso   1.00
C344   C     0.89543   0.51158   0.11952   0.00000  Uiso   1.00
C345   C     0.68940   0.46087   0.44536   0.00000  Uiso   1.00
C346   C     0.97285   0.55462   0.05752   0.00000  Uiso   1.00
C347   C     0.70802   0.46998   0.40053   0.00000  Uiso   1.00
C348   C     0.95616   0.54033   0.10129   0.00000  Uiso   1.00
C349   C     0.81467   0.50760   0.40676   0.00000  Uiso   1.00
C350   C     0.85273   0.49533   0.09329   0.00000  Uiso   1.00
C351   C     0.79694   0.49978   0.45218   0.00000  Uiso   1.00
C352   C     0.81962   0.40035   0.24770   0.00000  Uiso   1.00
C353   C     0.86713   0.51128   0.04965   0.00000  Uiso   1.00
C354   C     0.73357   0.47448   0.47105   0.00000  Uiso   1.00
C355   C     0.92875   0.54085   0.03178   0.00000  Uiso   1.00
C356   C     0.84090   0.51446   0.47892   0.00000  Uiso   1.00
C357   C     0.82196   0.49943   0.02363   0.00000  Uiso   1.00
C358   C     0.86522   0.34217   0.30507   0.00000  Uiso   1.00
C359   C     0.83335   0.63957   0.34452   0.00000  Uiso   1.00
C360   C     0.84713   0.66519   0.38685   0.00000  Uiso   1.00
C361   C     0.79767   0.65768   0.19757   0.00000  Uiso   1.00
C362   C     0.85403   0.64945   0.15964   0.00000  Uiso   1.00
C363   C     0.75811   0.47423   0.04105   0.00000  Uiso   1.00
C364   C     0.83236   0.63106   0.11806   0.00000  Uiso   1.00
C365   C     0.90276   0.54433   0.46264   0.00000  Uiso   1.00
C366   C     0.71497   0.46236   0.01523   0.00000  Uiso   1.00
C367   C     0.94553   0.55725   0.48867   0.00000  Uiso   1.00
C368   C     0.84515   0.65354   0.26324   0.00000  Uiso   1.00
C369   C     0.81889   0.34603   0.23899   0.00000  Uiso   1.00
C370   C     0.79466   0.49607   0.33315   0.00000  Uiso   1.00
Cu371  Cu    0.77404   0.49441   0.24517   0.00000  Uiso   1.00
Cu372  Cu    0.89263   0.50559   0.25484   0.00000  Uiso   1.00
H373   H     0.99985   0.44325   0.03005   0.00000  Uiso   1.00
H374   H     0.91943   0.55987   0.43010   0.00000  Uiso   1.00
H375   H     0.66807   0.53836   0.28414   0.00000  Uiso   1.00
H376   H     0.99860   0.46166   0.21585   0.00000  Uiso   1.00
H377   H     0.89916   0.34195   0.38374   0.00000  Uiso   1.00
H378   H     0.82717   0.36789   0.39457   0.00000  Uiso   1.00
H379   H     0.82493   0.63759   0.41429   0.00000  Uiso   1.00
H380   H     0.78109   0.62998   0.34841   0.00000  Uiso   1.00
H381   H     0.85155   0.60274   0.33918   0.00000  Uiso   1.00
H382   H     0.91765   0.34726   0.29874   0.00000  Uiso   1.00
H383   H     0.85258   0.38059   0.31542   0.00000  Uiso   1.00
H384   H     0.99231   0.58033   0.47483   0.00000  Uiso   1.00
H385   H     0.79808   0.59311   0.12359   0.00000  Uiso   1.00
H386   H     0.80957   0.66045   0.10790   0.00000  Uiso   1.00
H387   H     0.87402   0.62584   0.09119   0.00000  Uiso   1.00
H388   H     0.88916   0.35357   0.15297   0.00000  Uiso   1.00
H389   H     0.87806   0.61995   0.16811   0.00000  Uiso   1.00
H390   H     0.76040   0.62169   0.20406   0.00000  Uiso   1.00
H391   H     0.77426   0.35246   0.18614   0.00000  Uiso   1.00
H392   H     0.80795   0.47093   0.10833   0.00000  Uiso   1.00
H393   H     0.86293   0.52380   0.39020   0.00000  Uiso   1.00
H394   H     0.98975   0.55336   0.12117   0.00000  Uiso   1.00
H395   H     0.67371   0.45788   0.38106   0.00000  Uiso   1.00
H396   H     0.97399   0.44228   0.45986   0.00000  Uiso   1.00
H397   H     0.68656   0.57738   0.04400   0.00000  Uiso   1.00
H398   H     0.73896   0.46408   0.07495   0.00000  Uiso   1.00
N399   N     0.98173   0.51401   0.26212   0.00000  Uiso   1.00
N400   N     0.68494   0.48599   0.23788   0.00000  Uiso   1.00
O401   O     0.79482   0.57142   0.24686   0.00000  Uiso   1.00
O402   O     0.87185   0.42858   0.25314   0.00000  Uiso   1.00
O403   O     0.89496   0.58086   0.25503   0.00000  Uiso   1.00
O404   O     0.77171   0.41914   0.24498   0.00000  Uiso   1.00
O405   O     0.75518   0.49263   0.30855   0.00000  Uiso   1.00
O406   O     0.91149   0.50737   0.19146   0.00000  Uiso   1.00
O407   O     0.85532   0.50207   0.31671   0.00000  Uiso   1.00
O408   O     0.81134   0.49793   0.18329   0.00000  Uiso   1.00
C409   C     0.17984   0.93294   0.25296   0.00000  Uiso   1.00
C410   C     0.20534   0.83729   0.16688   0.00000  Uiso   1.00
C411   C     0.10457   0.82542   0.38089   0.00000  Uiso   1.00
C412   C     0.22876   0.84492   0.11952   0.00000  Uiso   1.00
C413   C     0.02274   0.79421   0.44536   0.00000  Uiso   1.00
C414   C     0.30619   0.88795   0.05752   0.00000  Uiso   1.00
C415   C     0.04135   0.80332   0.40053   0.00000  Uiso   1.00
C416   C     0.28949   0.87366   0.10129   0.00000  Uiso   1.00
C417   C     0.14801   0.84093   0.40676   0.00000  Uiso   1.00
C418   C     0.18606   0.82866   0.09329   0.00000  Uiso   1.00
C419   C     0.13027   0.83311   0.45218   0.00000  Uiso   1.00
C420   C     0.15296   0.73369   0.24770   0.00000  Uiso   1.00
C421   C     0.20046   0.84461   0.04965   0.00000  Uiso   1.00
C422   C     0.06690   0.80781   0.47105   0.00000  Uiso   1.00
C423   C     0.26208   0.87419   0.03178   0.00000  Uiso   1.00
C424   C     0.17423   0.84779   0.47892   0.00000  Uiso   1.00
C425   C     0.15529   0.83277   0.02363   0.00000  Uiso   1.00
C426   C     0.19856   0.67550   0.30507   0.00000  Uiso   1.00
C427   C     0.16669   0.97291   0.34452   0.00000  Uiso   1.00
C428   C     0.18046   0.99852   0.38685   0.00000  Uiso   1.00
C429   C     0.13101   0.99102   0.19757   0.00000  Uiso   1.00
C430   C     0.18736   0.98279   0.15964   0.00000  Uiso   1.00
C431   C     0.09144   0.80757   0.04105   0.00000  Uiso   1.00
C432   C     0.16569   0.96439   0.11806   0.00000  Uiso   1.00
C433   C     0.23609   0.87766   0.46264   0.00000  Uiso   1.00
C434   C     0.04830   0.79569   0.01523   0.00000  Uiso   1.00
C435   C     0.27887   0.89059   0.48867   0.00000  Uiso   1.00
C436   C     0.17848   0.98688   0.26324   0.00000  Uiso   1.00
C437   C     0.15222   0.67936   0.23899   0.00000  Uiso   1.00
C438   C     0.12799   0.82941   0.33315   0.00000  Uiso   1.00
Cu439  Cu    0.10737   0.82775   0.24517   0.00000  Uiso   1.00
Cu440  Cu    0.22596   0.83892   0.25484   0.00000  Uiso   1.00
H441   H     0.33319   0.77659   0.03005   0.00000  Uiso   1.00
H442   H     0.25276   0.89320   0.43010   0.00000  Uiso   1.00
H443   H     0.00141   0.87169   0.28414   0.00000  Uiso   1.00
H444   H     0.33194   0.79499   0.21585   0.00000  Uiso   1.00
H445   H     0.23249   0.67528   0.38374   0.00000  Uiso   1.00
H446   H     0.16050   0.70122   0.39457   0.00000  Uiso   1.00
H447   H     0.15826   0.97092   0.41429   0.00000  Uiso   1.00
H448   H     0.11442   0.96331   0.34841   0.00000  Uiso   1.00
H449   H     0.18488   0.93608   0.33918   0.00000  Uiso   1.00
H450   H     0.25099   0.68060   0.29874   0.00000  Uiso   1.00
H451   H     0.18592   0.71393   0.31542   0.00000  Uiso   1.00
H452   H     0.32564   0.91367   0.47483   0.00000  Uiso   1.00
H453   H     0.13141   0.92644   0.12359   0.00000  Uiso   1.00
H454   H     0.14290   0.99379   0.10790   0.00000  Uiso   1.00
H455   H     0.20736   0.95917   0.09119   0.00000  Uiso   1.00
H456   H     0.22249   0.68690   0.15297   0.00000  Uiso   1.00
H457   H     0.21140   0.95329   0.16811   0.00000  Uiso   1.00
H458   H     0.09374   0.95502   0.20406   0.00000  Uiso   1.00
H459   H     0.10760   0.68579   0.18614   0.00000  Uiso   1.00
H460   H     0.14128   0.80426   0.10833   0.00000  Uiso   1.00
H461   H     0.19626   0.85713   0.39020   0.00000  Uiso   1.00
H462   H     0.32309   0.88670   0.12117   0.00000  Uiso   1.00
H463   H     0.00704   0.79122   0.38106   0.00000  Uiso   1.00
H464   H     0.30732   0.77562   0.45986   0.00000  Uiso   1.00
H465   H     0.01990   0.91071   0.04400   0.00000  Uiso   1.00
H466   H     0.07229   0.79742   0.07495   0.00000  Uiso   1.00
N467   N     0.31506   0.84735   0.26212   0.00000  Uiso   1.00
N468   N     0.01827   0.81932   0.23788   0.00000  Uiso   1.00
O469   O     0.12815   0.90476   0.24686   0.00000  Uiso   1.00
O470   O     0.20518   0.76191   0.25314   0.00000  Uiso   1.00
O471   O     0.22829   0.91420   0.25503   0.00000  Uiso   1.00
O472   O     0.10504   0.75247   0.24498   0.00000  Uiso   1.00
O473   O     0.08851   0.82597   0.30855   0.00000  Uiso   1.00
O474   O     0.24482   0.84070   0.19146   0.00000  Uiso   1.00
O475   O     0.18866   0.83540   0.31671   0.00000  Uiso   1.00
O476   O     0.14468   0.83126   0.18329   0.00000  Uiso   1.00
C477   C     0.51317   0.93294   0.25296   0.00000  Uiso   1.00
C478   C     0.53867   0.83729   0.16688   0.00000  Uiso   1.00
C479   C     0.43791   0.82542   0.38089   0.00000  Uiso   1.00
C480   C     0.56210   0.84492   0.11952   0.00000  Uiso   1.00
C481   C     0.35607   0.79421   0.44536   0.00000  Uiso   1.00
C482   C     0.63952   0.88795   0.05752   0.00000  Uiso   1.00
C483   C     0.37469   0.80332   0.40053   0.00000  Uiso   1.00
C484   C     0.62283   0.87366   0.10129   0.00000  Uiso   1.00
C485   C     0.48134   0.84093   0.40676   0.00000  Uiso   1.00
C486   C     0.51940   0.82866   0.09329   0.00000  Uiso   1.00
C487   C     0.46361   0.83311   0.45218   0.00000  Uiso   1.00
C488   C     0.48629   0.73369   0.24770   0.00000  Uiso   1.00
C489   C     0.53380   0.84461   0.04965   0.00000  Uiso   1.00
C490   C     0.40024   0.80781   0.47105   0.00000  Uiso   1.00
C491   C     0.59542   0.87419   0.03178   0.00000  Uiso   1.00
C492   C     0.50757   0.84779   0.47892   0.00000  Uiso   1.00
C493   C     0.48862   0.83277   0.02363   0.00000  Uiso   1.00
C494   C     0.53189   0.67550   0.30507   0.00000  Uiso   1.00
C495   C     0.50002   0.97291   0.34452   0.00000  Uiso   1.00
C496   C     0.51380   0.99852   0.38685   0.00000  Uiso   1.00
C497   C     0.46434   0.99102   0.19757   0.00000  Uiso   1.00
C498   C     0.52069   0.98279   0.15964   0.00000  Uiso   1.00
C499   C     0.42477   0.80757   0.04105   0.00000  Uiso   1.00
C500   C     0.49902   0.96439   0.11806   0.00000  Uiso   1.00
C501   C     0.56943   0.87766   0.46264   0.00000  Uiso   1.00
C502   C     0.38163   0.79569   0.01523   0.00000  Uiso   1.00
C503   C     0.61220   0.89059   0.48867   0.00000  Uiso   1.00
C504   C     0.51181   0.98688   0.26324   0.00000  Uiso   1.00
C505   C     0.48556   0.67936   0.23899   0.00000  Uiso   1.00
C506   C     0.46132   0.82941   0.33315   0.00000  Uiso   1.00
Cu507  Cu    0.44071   0.82775   0.24517   0.00000  Uiso   1.00
Cu508  Cu    0.55929   0.83892   0.25484   0.00000  Uiso   1.00
H509   H     0.66652   0.77659   0.03005   0.00000  Uiso   1.00
H510   H     0.58609   0.89320   0.43010   0.00000  Uiso   1.00
H511   H     0.33474   0.87169   0.28414   0.00000  Uiso   1.00
H512   H     0.66527   0.79499   0.21585   0.00000  Uiso   1.00
H513   H     0.56582   0.67528   0.38374   0.00000  Uiso   1.00
H514   H     0.49384   0.70122   0.39457   0.00000  Uiso   1.00
H515   H     0.49160   0.97092   0.41429   0.00000  Uiso   1.00
H516   H     0.44775   0.96331   0.34841   0.00000  Uiso   1.00
H517   H     0.51821   0.93608   0.33918   0.00000  Uiso   1.00
H518   H     0.58432   0.68060   0.29874   0.00000  Uiso   1.00
H519   H     0.51925   0.71393   0.31542   0.00000  Uiso   1.00
H520   H     0.65897   0.91367   0.47483   0.00000  Uiso   1.00
H521   H     0.46474   0.92644   0.12359   0.00000  Uiso   1.00
H522   H     0.47624   0.99379   0.10790   0.00000  Uiso   1.00
H523   H     0.54069   0.95917   0.09119   0.00000  Uiso   1.00
H524   H     0.55582   0.68690   0.15297   0.00000  Uiso   1.00
H525   H     0.54473   0.95329   0.16811   0.00000  Uiso   1.00
H526   H     0.42707   0.95502   0.20406   0.00000  Uiso   1.00
H527   H     0.44093   0.68579   0.18614   0.00000  Uiso   1.00
H528   H     0.47462   0.80426   0.10833   0.00000  Uiso   1.00
H529   H     0.52960   0.85713   0.39020   0.00000  Uiso   1.00
H530   H     0.65642   0.88670   0.12117   0.00000  Uiso   1.00
H531   H     0.34037   0.79122   0.38106   0.00000  Uiso   1.00
H532   H     0.64066   0.77562   0.45986   0.00000  Uiso   1.00
H533   H     0.35323   0.91071   0.04400   0.00000  Uiso   1.00
H534   H     0.40563   0.79742   0.07495   0.00000  Uiso   1.00
N535   N     0.64839   0.84735   0.26212   0.00000  Uiso   1.00
N536   N     0.35161   0.81932   0.23788   0.00000  Uiso   1.00
O537   O     0.46148   0.90476   0.24686   0.00000  Uiso   1.00
O538   O     0.53852   0.76191   0.25314   0.00000  Uiso   1.00
O539   O     0.56163   0.91420   0.25503   0.00000  Uiso   1.00
O540   O     0.43837   0.75247   0.24498   0.00000  Uiso   1.00
O541   O     0.42185   0.82597   0.30855   0.00000  Uiso   1.00
O542   O     0.57815   0.84070   0.19146   0.00000  Uiso   1.00
O543   O     0.52199   0.83540   0.31671   0.00000  Uiso   1.00
O544   O     0.47801   0.83126   0.18329   0.00000  Uiso   1.00
C545   C     0.84650   0.93294   0.25296   0.00000  Uiso   1.00
C546   C     0.87200   0.83729   0.16688   0.00000  Uiso   1.00
C547   C     0.77124   0.82542   0.38089   0.00000  Uiso   1.00
C548   C     0.89543   0.84492   0.11952   0.00000  Uiso   1.00
C549   C     0.68940   0.79421   0.44536   0.00000  Uiso   1.00
C550   C     0.97285   0.88795   0.05752   0.00000  Uiso   1.00
C551   C     0.70802   0.80332   0.40053   0.00000  Uiso   1.00
C552   C     0.95616   0.87366   0.10129   0.00000  Uiso   1.00
C553   C     0.81467   0.84093   0.40676   0.00000  Uiso   1.00
C554   C     0.85273   0.82866   0.09329   0.00000  Uiso   1.00
C555   C     0.79694   0.83311   0.45218   0.00000  Uiso   1.00
C556   C     0.81962   0.73369   0.24770   0.00000  Uiso   1.00
C557   C     0.86713   0.84461   0.04965   0.00000  Uiso   1.00
C558   C     0.73357   0.80781   0.47105   0.00000  Uiso   1.00
C559   C     0.92875   0.87419   0.03178   0.00000  Uiso   1.00
C560   C     0.84090   0.84779   0.47892   0.00000  Uiso   1.00
C561   C     0.82196   0.83277   0.02363   0.00000  Uiso   1.00
C562   C     0.86522   0.67550   0.30507   0.00000  Uiso   1.00
C563   C     0.83335   0.97291   0.34452   0.00000  Uiso   1.00
C564   C     0.84713   0.99852   0.38685   0.00000  Uiso   1.00
C565   C     0.79767   0.99102   0.19757   0.00000  Uiso   1.00
C566   C     0.85403   0.98279   0.15964   0.00000  Uiso   1.00
C567   C     0.75811   0.80757   0.04105   0.00000  Uiso   1.00
C568   C     0.83236   0.96439   0.11806   0.00000  Uiso   1.00
C569   C     0.90276   0.87766   0.46264   0.00000  Uiso   1.00
C570   C     0.71497   0.79569   0.01523   0.00000  Uiso   1.00
C571   C     0.94553   0.89059   0.48867   0.00000  Uiso   1.00
C572   C     0.84515   0.98688   0.26324   0.00000  Uiso   1.00
C573   C     0.81889   0.67936   0.23899   0.00000  Uiso   1.00
C574   C     0.79466   0.82941   0.33315   0.00000  Uiso   1.00
Cu575  Cu    0.77404   0.82775   0.24517   0.00000  Uiso   1.00
Cu576  Cu    0.89263   0.83892   0.25484   0.00000  Uiso   1.00
H577   H     0.99985   0.77659   0.03005   0.00000  Uiso   1.00
H578   H     0.91943   0.89320   0.43010   0.00000  Uiso   1.00
H579   H     0.66807   0.87169   0.28414   0.00000  Uiso   1.00
H580   H     0.99860   0.79499   0.21585   0.00000  Uiso   1.00
H581   H     0.89916   0.67528   0.38374   0.00000  Uiso   1.00
H582   H     0.82717   0.70122   0.39457   0.00000  Uiso   1.00
H583   H     0.82493   0.97092   0.41429   0.00000  Uiso   1.00
H584   H     0.78109   0.96331   0.34841   0.00000  Uiso   1.00
H585   H     0.85155   0.93608   0.33918   0.00000  Uiso   1.00
H586   H     0.91765   0.68060   0.29874   0.00000  Uiso   1.00
H587   H     0.85258   0.71393   0.31542   0.00000  Uiso   1.00
H588   H     0.99231   0.91367   0.47483   0.00000  Uiso   1.00
H589   H     0.79808   0.92644   0.12359   0.00000  Uiso   1.00
H590   H     0.80957   0.99379   0.10790   0.00000  Uiso   1.00
H591   H     0.87402   0.95917   0.09119   0.00000  Uiso   1.00
H592   H     0.88916   0.68690   0.15297   0.00000  Uiso   1.00
H593   H     0.87806   0.95329   0.16811   0.00000  Uiso   1.00
H594   H     0.76040   0.95502   0.20406   0.00000  Uiso   1.00
H595   H     0.77426   0.68579   0.18614   0.00000  Uiso   1.00
H596   H     0.80795   0.80426   0.10833   0.00000  Uiso   1.00
H597   H     0.86293   0.85713   0.39020   0.00000  Uiso   1.00
H598   H     0.98975   0.88670   0.12117   0.00000  Uiso   1.00
H599   H     0.67371   0.79122   0.38106   0.00000  Uiso   1.00
H600   H     0.97399   0.77562   0.45986   0.00000  Uiso   1.00
H601   H     0.68656   0.91071   0.04400   0.00000  Uiso   1.00
H602   H     0.73896   0.79742   0.07495   0.00000  Uiso   1.00
N603   N     0.98173   0.84735   0.26212   0.00000  Uiso   1.00
N604   N     0.68494   0.81932   0.23788   0.00000  Uiso   1.00
O605   O     0.79482   0.90476   0.24686   0.00000  Uiso   1.00
O606   O     0.87185   0.76191   0.25314   0.00000  Uiso   1.00
O607   O     0.89496   0.91420   0.25503   0.00000  Uiso   1.00
O608   O     0.77171   0.75247   0.24498   0.00000  Uiso   1.00
O609   O     0.75518   0.82597   0.30855   0.00000  Uiso   1.00
O610   O     0.91149   0.84070   0.19146   0.00000  Uiso   1.00
O611   O     0.85532   0.83540   0.31671   0.00000  Uiso   1.00
O612   O     0.81134   0.83126   0.18329   0.00000  Uiso   1.00
C613   C     0.17984   0.26627   0.75296   0.00000  Uiso   1.00
C614   C     0.20534   0.17063   0.66688   0.00000  Uiso   1.00
C615   C     0.10457   0.15876   0.88089   0.00000  Uiso   1.00
C616   C     0.22876   0.17825   0.61952   0.00000  Uiso   1.00
C617   C     0.02274   0.12754   0.94536   0.00000  Uiso   1.00
C618   C     0.30619   0.22128   0.55752   0.00000  Uiso   1.00
C619   C     0.04135   0.13665   0.90053   0.00000  Uiso   1.00
C620   C     0.28949   0.20700   0.60129   0.00000  Uiso   1.00
C621   C     0.14801   0.17427   0.90676   0.00000  Uiso   1.00
C622   C     0.18606   0.16200   0.59329   0.00000  Uiso   1.00
C623   C     0.13027   0.16645   0.95218   0.00000  Uiso   1.00
C624   C     0.15296   0.06702   0.74770   0.00000  Uiso   1.00
C625   C     0.20046   0.17794   0.54965   0.00000  Uiso   1.00
C626   C     0.06690   0.14115   0.97105   0.00000  Uiso   1.00
C627   C     0.26208   0.20752   0.53178   0.00000  Uiso   1.00
C628   C     0.17423   0.18112   0.97892   0.00000  Uiso   1.00
C629   C     0.15529   0.16610   0.52363   0.00000  Uiso   1.00
C630   C     0.19856   0.00884   0.80507   0.00000  Uiso   1.00
C631   C     0.16669   0.30624   0.84452   0.00000  Uiso   1.00
C632   C     0.18046   0.33185   0.88685   0.00000  Uiso   1.00
C633   C     0.13101   0.32435   0.69757   0.00000  Uiso   1.00
C634   C     0.18736   0.31612   0.65964   0.00000  Uiso   1.00
C635   C     0.09144   0.14090   0.54105   0.00000  Uiso   1.00
C636   C     0.16569   0.29772   0.61806   0.00000  Uiso   1.00
C637   C     0.23609   0.21099   0.96264   0.00000  Uiso   1.00
C638   C     0.04830   0.12902   0.51523   0.00000  Uiso   1.00
C639   C     0.27887   0.22392   0.98867   0.00000  Uiso   1.00
C640   C     0.17848   0.32021   0.76324   0.00000  Uiso   1.00
C641   C     0.15222   0.01270   0.73899   0.00000  Uiso   1.00
C642   C     0.12799   0.16274   0.83315   0.00000  Uiso   1.00
Cu643  Cu    0.10737   0.16108   0.74517   0.00000  Uiso   1.00
Cu644  Cu    0.22596   0.17225   0.75484   0.00000  Uiso   1.00
H645   H     0.33319   0.10992   0.53005   0.00000  Uiso   1.00
H646   H     0.25276   0.22653   0.93010   0.00000  Uiso   1.00
H647   H     0.00141   0.20503   0.78414   0.00000  Uiso   1.00
H648   H     0.33194   0.12832   0.71585   0.00000  Uiso   1.00
H649   H     0.23249   0.00862   0.88374   0.00000  Uiso   1.00
H650   H     0.16050   0.03455   0.89457   0.00000  Uiso   1.00
H651   H     0.15826   0.30425   0.91429   0.00000  Uiso   1.00
H652   H     0.11442   0.29665   0.84841   0.00000  Uiso   1.00
H653   H     0.18488   0.26941   0.83918   0.00000  Uiso   1.00
H654   H     0.25099   0.01393   0.79874   0.00000  Uiso   1.00
H655   H     0.18592   0.04726   0.81542   0.00000  Uiso   1.00
H656   H     0.32564   0.24700   0.97483   0.00000  Uiso   1.00
H657   H     0.13141   0.25978   0.62359   0.00000  Uiso   1.00
H658   H     0.14290   0.32712   0.60790   0.00000  Uiso   1.00
H659   H     0.20736   0.29251   0.59119   0.00000  Uiso   1.00
H660   H     0.22249   0.02024   0.65297   0.00000  Uiso   1.00
H661   H     0.21140   0.28662   0.66811   0.00000  Uiso   1.00
H662   H     0.09374   0.28835   0.70406   0.00000  Uiso   1.00
H663   H     0.10760   0.01912   0.68614   0.00000  Uiso   1.00
H664   H     0.14128   0.13759   0.60833   0.00000  Uiso   1.00
H665   H     0.19626   0.19046   0.89020   0.00000  Uiso   1.00
H666   H     0.32309   0.22003   0.62117   0.00000  Uiso   1.00
H667   H     0.00704   0.12455   0.88106   0.00000  Uiso   1.00
H668   H     0.30732   0.10895   0.95986   0.00000  Uiso   1.00
H669   H     0.01990   0.24405   0.54400   0.00000  Uiso   1.00
H670   H     0.07229   0.13075   0.57495   0.00000  Uiso   1.00
N671   N     0.31506   0.18068   0.76212   0.00000  Uiso   1.00
N672   N     0.01827   0.15265   0.73788   0.00000  Uiso   1.00
O673   O     0.12815   0.23809   0.74686   0.00000  Uiso   1.00
O674   O     0.20518   0.09524   0.75314   0.00000  Uiso   1.00
O675   O     0.22829   0.24753   0.75503   0.00000  Uiso   1.00
O676   O     0.10504   0.08580   0.74498   0.00000  Uiso   1.00
O677   O     0.08851   0.15930   0.80855   0.00000  Uiso   1.00
O678   O     0.24482   0.17403   0.69146   0.00000  Uiso   1.00
O679   O     0.18866   0.16874   0.81671   0.00000  Uiso   1.00
O680   O     0.14468   0.16460   0.68329   0.00000  Uiso   1.00
C681   C     0.51317   0.26627   0.75296   0.00000  Uiso   1.00
C682   C     0.53867   0.17063   0.66688   0.00000  Uiso   1.00
C683   C     0.43791   0.15876   0.88089   0.00000  Uiso   1.00
C684   C     0.56210   0.17825   0.61952   0.00000  Uiso   1.00
C685   C     0.35607   0.12754   0.94536   0.00000  Uiso   1.00
C686   C     0.63952   0.22128   0.55752   0.00000  Uiso   1.00
C687   C     0.37469   0.13665   0.90053   0.00000  Uiso   1.00
C688   C     0.62283   0.20700   0.60129   0.00000  Uiso   1.00
C689   C     0.48134   0.17427   0.90676   0.00000  Uiso   1.00
C690   C     0.51940   0.16200   0.59329   0.00000  Uiso   1.00
C691   C     0.46361   0.16645   0.95218   0.00000  Uiso   1.00
C692   C     0.48629   0.06702   0.74770   0.00000  Uiso   1.00
C693   C     0.53380   0.17794   0.54965   0.00000  Uiso   1.00
C694   C     0.40024   0.14115   0.97105   0.00000  Uiso   1.00
C695   C     0.59542   0.20752   0.53178   0.00000  Uiso   1.00
C696   C     0.50757   0.18112   0.97892   0.00000  Uiso   1.00
C697   C     0.48862   0.16610   0.52363   0.00000  Uiso   1.00
C698   C     0.53189   0.00884   0.80507   0.00000  Uiso   1.00
C699   C     0.50002   0.30624   0.84452   0.00000  Uiso   1.00
C700   C     0.51380   0.33185   0.88685   0.00000  Uiso   1.00
C701   C     0.46434   0.32435   0.69757   0.00000  Uiso   1.00
C702   C     0.52069   0.31612   0.65964   0.00000  Uiso   1.00
C703   C     0.42477   0.14090   0.54105   0.00000  Uiso   1.00
C704   C     0.49902   0.29772   0.61806   0.00000  Uiso   1.00
C705   C     0.56943   0.21099   0.96264   0.00000  Uiso   1.00
C706   C     0.38163   0.12902   0.51523   0.00000  Uiso   1.00
C707   C     0.61220   0.22392   0.98867   0.00000  Uiso   1.00
C708   C     0.51181   0.32021   0.76324   0.00000  Uiso   1.00
C709   C     0.48556   0.01270   0.73899   0.00000  Uiso   1.00
C710   C     0.46132   0.16274   0.83315   0.00000  Uiso   1.00
Cu711  Cu    0.44071   0.16108   0.74517   0.00000  Uiso   1.00
Cu712  Cu    0.55929   0.17225   0.75484   0.00000  Uiso   1.00
H713   H     0.66652   0.10992   0.53005   0.00000  Uiso   1.00
H714   H     0.58609   0.22653   0.93010   0.00000  Uiso   1.00
H715   H     0.33474   0.20503   0.78414   0.00000  Uiso   1.00
H716   H     0.66527   0.12832   0.71585   0.00000  Uiso   1.00
H717   H     0.56582   0.00862   0.88374   0.00000  Uiso   1.00
H718   H     0.49384   0.03455   0.89457   0.00000  Uiso   1.00
H719   H     0.49160   0.30425   0.91429   0.00000  Uiso   1.00
H720   H     0.44775   0.29665   0.84841   0.00000  Uiso   1.00
H721   H     0.51821   0.26941   0.83918   0.00000  Uiso   1.00
H722   H     0.58432   0.01393   0.79874   0.00000  Uiso   1.00
H723   H     0.51925   0.04726   0.81542   0.00000  Uiso   1.00
H724   H     0.65897   0.24700   0.97483   0.00000  Uiso   1.00
H725   H     0.46474   0.25978   0.62359   0.00000  Uiso   1.00
H726   H     0.47624   0.32712   0.60790   0.00000  Uiso   1.00
H727   H     0.54069   0.29251   0.59119   0.00000  Uiso   1.00
H728   H     0.55582   0.02024   0.65297   0.00000  Uiso   1.00
H729   H     0.54473   0.28662   0.66811   0.00000  Uiso   1.00
H730   H     0.42707   0.28835   0.70406   0.00000  Uiso   1.00
H731   H     0.44093   0.01912   0.68614   0.00000  Uiso   1.00
H732   H     0.47462   0.13759   0.60833   0.00000  Uiso   1.00
H733   H     0.52960   0.19046   0.89020   0.00000  Uiso   1.00
H734   H     0.65642   0.22003   0.62117   0.00000  Uiso   1.00
H735   H     0.34037   0.12455   0.88106   0.00000  Uiso   1.00
H736   H     0.64066   0.10895   0.95986   0.00000  Uiso   1.00
H737   H     0.35323   0.24405   0.54400   0.00000  Uiso   1.00
H738   H     0.40563   0.13075   0.57495   0.00000  Uiso   1.00
N739   N     0.64839   0.18068   0.76212   0.00000  Uiso   1.00
N740   N     0.35161   0.15265   0.73788   0.00000  Uiso   1.00
O741   O     0.46148   0.23809   0.74686   0.00000  Uiso   1.00
O742   O     0.53852   0.09524   0.75314   0.00000  Uiso   1.00
O743   O     0.56163   0.24753   0.75503   0.00000  Uiso   1.00
O744   O     0.43837   0.08580   0.74498   0.00000  Uiso   1.00
O745   O     0.42185   0.15930   0.80855   0.00000  Uiso   1.00
O746   O     0.57815   0.17403   0.69146   0.00000  Uiso   1.00
O747   O     0.52199   0.16874   0.81671   0.00000  Uiso   1.00
O748   O     0.47801   0.16460   0.68329   0.00000  Uiso   1.00
C749   C     0.84650   0.26627   0.75296   0.00000  Uiso   1.00
C750   C     0.87200   0.17063   0.66688   0.00000  Uiso   1.00
C751   C     0.77124   0.15876   0.88089   0.00000  Uiso   1.00
C752   C     0.89543   0.17825   0.61952   0.00000  Uiso   1.00
C753   C     0.68940   0.12754   0.94536   0.00000  Uiso   1.00
C754   C     0.97285   0.22128   0.55752   0.00000  Uiso   1.00
C755   C     0.70802   0.13665   0.90053   0.00000  Uiso   1.00
C756   C     0.95616   0.20700   0.60129   0.00000  Uiso   1.00
C757   C     0.81467   0.17427   0.90676   0.00000  Uiso   1.00
C758   C     0.85273   0.16200   0.59329   0.00000  Uiso   1.00
C759   C     0.79694   0.16645   0.95218   0.00000  Uiso   1.00
C760   C     0.81962   0.06702   0.74770   0.00000  Uiso   1.00
C761   C     0.86713   0.17794   0.54965   0.00000  Uiso   1.00
C762   C     0.73357   0.14115   0.97105   0.00000  Uiso   1.00
C763   C     0.92875   0.20752   0.53178   0.00000  Uiso   1.00
C764   C     0.84090   0.18112   0.97892   0.00000  Uiso   1.00
C765   C     0.82196   0.16610   0.52363   0.00000  Uiso   1.00
C766   C     0.86522   0.00884   0.80507   0.00000  Uiso   1.00
C767   C     0.83335   0.30624   0.84452   0.00000  Uiso   1.00
C768   C     0.84713   0.33185   0.88685   0.00000  Uiso   1.00
C769   C     0.79767   0.32435   0.69757   0.00000  Uiso   1.00
C770   C     0.85403   0.31612   0.65964   0.00000  Uiso   1.00
C771   C     0.75811   0.14090   0.54105   0.00000  Uiso   1.00
C772   C     0.83236   0.29772   0.61806   0.00000  Uiso   1.00
C773   C     0.90276   0.21099   0.96264   0.00000  Uiso   1.00
C774   C     0.71497   0.12902   0.51523   0.00000  Uiso   1.00
C775   C     0.94553   0.22392   0.98867   0.00000  Uiso   1.00
C776   C     0.84515   0.32021   0.76324   0.00000  Uiso   1.00
C777   C     0.81889   0.01270   0.73899   0.00000  Uiso   1.00
C778   C     0.79466   0.16274   0.83315   0.00000  Uiso   1.00
Cu779  Cu    0.77404   0.16108   0.74517   0.00000  Uiso   1.00
Cu780  Cu    0.89263   0.17225   0.75484   0.00000  Uiso   1.00
H781   H     0.99985   0.10992   0.53005   0.00000  Uiso   1.00
H782   H     0.91943   0.22653   0.93010   0.00000  Uiso   1.00
H783   H     0.66807   0.20503   0.78414   0.00000  Uiso   1.00
H784   H     0.99860   0.12832   0.71585   0.00000  Uiso   1.00
H785   H     0.89916   0.00862   0.88374   0.00000  Uiso   1.00
H786   H     0.82717   0.03455   0.89457   0.00000  Uiso   1.00
H787   H     0.82493   0.30425   0.91429   0.00000  Uiso   1.00
H788   H     0.78109   0.29665   0.84841   0.00000  Uiso   1.00
H789   H     0.85155   0.26941   0.83918   0.00000  Uiso   1.00
H790   H     0.91765   0.01393   0.79874   0.00000  Uiso   1.00
H791   H     0.85258   0.04726   0.81542   0.00000  Uiso   1.00
H792   H     0.99231   0.24700   0.97483   0.00000  Uiso   1.00
H793   H     0.79808   0.25978   0.62359   0.00000  Uiso   1.00
H794   H     0.80957   0.32712   0.60790   0.00000  Uiso   1.00
H795   H     0.87402   0.29251   0.59119   0.00000  Uiso   1.00
H796   H     0.88916   0.02024   0.65297   0.00000  Uiso   1.00
H797   H     0.87806   0.28662   0.66811   0.00000  Uiso   1.00
H798   H     0.76040   0.28835   0.70406   0.00000  Uiso   1.00
H799   H     0.77426   0.01912   0.68614   0.00000  Uiso   1.00
H800   H     0.80795   0.13759   0.60833   0.00000  Uiso   1.00
H801   H     0.86293   0.19046   0.89020   0.00000  Uiso   1.00
H802   H     0.98975   0.22003   0.62117   0.00000  Uiso   1.00
H803   H     0.67371   0.12455   0.88106   0.00000  Uiso   1.00
H804   H     0.97399   0.10895   0.95986   0.00000  Uiso   1.00
H805   H     0.68656   0.24405   0.54400   0.00000  Uiso   1.00
H806   H     0.73896   0.13075   0.57495   0.00000  Uiso   1.00
N807   N     0.98173   0.18068   0.76212   0.00000  Uiso   1.00
N808   N     0.68494   0.15265   0.73788   0.00000  Uiso   1.00
O809   O     0.79482   0.23809   0.74686   0.00000  Uiso   1.00
O810   O     0.87185   0.09524   0.75314   0.00000  Uiso   1.00
O811   O     0.89496   0.24753   0.75503   0.00000  Uiso   1.00
O812   O     0.77171   0.08580   0.74498   0.00000  Uiso   1.00
O813   O     0.75518   0.15930   0.80855   0.00000  Uiso   1.00
O814   O     0.91149   0.17403   0.69146   0.00000  Uiso   1.00
O815   O     0.85532   0.16874   0.81671   0.00000  Uiso   1.00
O816   O     0.81134   0.16460   0.68329   0.00000  Uiso   1.00
C817   C     0.17984   0.59960   0.75296   0.00000  Uiso   1.00
C818   C     0.20534   0.50396   0.66688   0.00000  Uiso   1.00
C819   C     0.10457   0.49209   0.88089   0.00000  Uiso   1.00
C820   C     0.22876   0.51158   0.61952   0.00000  Uiso   1.00
C821   C     0.02274   0.46087   0.94536   0.00000  Uiso   1.00
C822   C     0.30619   0.55462   0.55752   0.00000  Uiso   1.00
C823   C     0.04135   0.46998   0.90053   0.00000  Uiso   1.00
C824   C     0.28949   0.54033   0.60129   0.00000  Uiso   1.00
C825   C     0.14801   0.50760   0.90676   0.00000  Uiso   1.00
C826   C     0.18606   0.49533   0.59329   0.00000  Uiso   1.00
C827   C     0.13027   0.49978   0.95218   0.00000  Uiso   1.00
C828   C     0.15296   0.40035   0.74770   0.00000  Uiso   1.00
C829   C     0.20046   0.51128   0.54965   0.00000  Uiso   1.00
C830   C     0.06690   0.47448   0.97105   0.00000  Uiso   1.00
C831   C     0.26208   0.54085   0.53178   0.00000  Uiso   1.00
C832   C     0.17423   0.51446   0.97892   0.00000  Uiso   1.00
C833   C     0.15529   0.49943   0.52363   0.00000  Uiso   1.00
C834   C     0.19856   0.34217   0.80507   0.00000  Uiso   1.00
C835   C     0.16669   0.63957   0.84452   0.00000  Uiso   1.00
C836   C     0.18046   0.66519   0.88685   0.00000  Uiso   1.00
C837   C     0.13101   0.65768   0.69757   0.00000  Uiso   1.00
C838   C     0.18736   0.64945   0.65964   0.00000  Uiso   1.00
C839   C     0.09144   0.47423   0.54105   0.00000  Uiso   1.00
C840   C     0.16569   0.63106   0.61806   0.00000  Uiso   1.00
C841   C     0.23609   0.54433   0.96264   0.00000  Uiso   1.00
C842   C     0.04830   0.46236   0.51523   0.00000  Uiso   1.00
C843   C     0.27887   0.55725   0.98867   0.00000  Uiso   1.00
C844   C     0.17848   0.65354   0.76324   0.00000  Uiso   1.00
C845   C     0.15222   0.34603   0.73899   0.00000  Uiso   1.00
C846   C     0.12799   0.49607   0.83315   0.00000  Uiso   1.00
Cu847  Cu    0.10737   0.49441   0.74517   0.00000  Uiso   1.00
Cu848  Cu    0.22596   0.50559   0.75484   0.00000  Uiso   1.00
H849   H     0.33319   0.44325   0.53005   0.00000  Uiso   1.00
H850   H     0.25276   0.55987   0.93010   0.00000  Uiso   1.00
H851   H     0.00141   0.53836   0.78414   0.00000  Uiso   1.00
H852   H     0.33194   0.46166   0.71585   0.00000  Uiso   1.00
H853   H     0.23249   0.34195   0.88374   0.00000  Uiso   1.00
H854   H     0.16050   0.36789   0.89457   0.00000  Uiso   1.00
H855   H     0.15826   0.63759   0.91429   0.00000  Uiso   1.00
H856   H     0.11442   0.62998   0.84841   0.00000  Uiso   1.00
H857   H     0.18488   0.60274   0.83918   0.00000  Uiso   1.00
H858   H     0.25099   0.34726   0.79874   0.00000  Uiso   1.00
H859   H     0.18592   0.38059   0.81542   0.00000  Uiso   1.00
H860   H     0.32564   0.58033   0.97483   0.00000  Uiso   1.00
H861   H     0.13141   0.59311   0.62359   0.00000  Uiso   1.00
H862   H     0.14290   0.66045   0.60790   0.00000  Uiso   1.00
H863   H     0.20736   0.62584   0.59119   0.00000  Uiso   1.00
H864   H     0.22249   0.35357   0.65297   0.00000  Uiso   1.00
H865   H     0.21140   0.61995   0.66811   0.00000  Uiso   1.00
H866   H     0.09374   0.62169   0.70406   0.00000  Uiso   1.00
H867   H     0.10760   0.35246   0.68614   0.00000  Uiso   1.00
H868   H     0.14128   0.47093   0.60833   0.00000  Uiso   1.00
H869   H     0.19626   0.52380   0.89020   0.00000  Uiso   1.00
H870   H     0.32309   0.55336   0.62117   0.00000  Uiso   1.00
H871   H     0.00704   0.45788   0.88106   0.00000  Uiso   1.00
H872   H     0.30732   0.44228   0.95986   0.00000  Uiso   1.00
H873   H     0.01990   0.57738   0.54400   0.00000  Uiso   1.00
H874   H     0.07229   0.46408   0.57495   0.00000  Uiso   1.00
N875   N     0.31506   0.51401   0.76212   0.00000  Uiso   1.00
N876   N     0.01827   0.48599   0.73788   0.00000  Uiso   1.00
O877   O     0.12815   0.57142   0.74686   0.00000  Uiso   1.00
O878   O     0.20518   0.42858   0.75314   0.00000  Uiso   1.00
O879   O     0.22829   0.58086   0.75503   0.00000  Uiso   1.00
O880   O     0.10504   0.41914   0.74498   0.00000  Uiso   1.00
O881   O     0.08851   0.49263   0.80855   0.00000  Uiso   1.00
O882   O     0.24482   0.50737   0.69146   0.00000  Uiso   1.00
O883   O     0.18866   0.50207   0.81671   0.00000  Uiso   1.00
O884   O     0.14468   0.49793   0.68329   0.00000  Uiso   1.00
C885   C     0.51317   0.59960   0.75296   0.00000  Uiso   1.00
C886   C     0.53867   0.50396   0.66688   0.00000  Uiso   1.00
C887   C     0.43791   0.49209   0.88089   0.00000  Uiso   1.00
C888   C     0.56210   0.51158   0.61952   0.00000  Uiso   1.00
C889   C     0.35607   0.46087   0.94536   0.00000  Uiso   1.00
C890   C     0.63952   0.55462   0.55752   0.00000  Uiso   1.00
C891   C     0.37469   0.46998   0.90053   0.00000  Uiso   1.00
C892   C     0.62283   0.54033   0.60129   0.00000  Uiso   1.00
C893   C     0.48134   0.50760   0.90676   0.00000  Uiso   1.00
C894   C     0.51940   0.49533   0.59329   0.00000  Uiso   1.00
C895   C     0.46361   0.49978   0.95218   0.00000  Uiso   1.00
C896   C     0.48629   0.40035   0.74770   0.00000  Uiso   1.00
C897   C     0.53380   0.51128   0.54965   0.00000  Uiso   1.00
C898   C     0.40024   0.47448   0.97105   0.00000  Uiso   1.00
C899   C     0.59542   0.54085   0.53178   0.00000  Uiso   1.00
C900   C     0.50757   0.51446   0.97892   0.00000  Uiso   1.00
C901   C     0.48862   0.49943   0.52363   0.00000  Uiso   1.00
C902   C     0.53189   0.34217   0.80507   0.00000  Uiso   1.00
C903   C     0.50002   0.63957   0.84452   0.00000  Uiso   1.00
C904   C     0.51380   0.66519   0.88685   0.00000  Uiso   1.00
C905   C     0.46434   0.65768   0.69757   0.00000  Uiso   1.00
C906   C     0.52069   0.64945   0.65964   0.00000  Uiso   1.00
C907   C     0.42477   0.47423   0.54105   0.00000  Uiso   1.00
C908   C     0.49902   0.63106   0.61806   0.00000  Uiso   1.00
C909   C     0.56943   0.54433   0.96264   0.00000  Uiso   1.00
C910   C     0.38163   0.46236   0.51523   0.00000  Uiso   1.00
C911   C     0.61220   0.55725   0.98867   0.00000  Uiso   1.00
C912   C     0.51181   0.65354   0.76324   0.00000  Uiso   1.00
C913   C     0.48556   0.34603   0.73899   0.00000  Uiso   1.00
C914   C     0.46132   0.49607   0.83315   0.00000  Uiso   1.00
Cu915  Cu    0.44071   0.49441   0.74517   0.00000  Uiso   1.00
Cu916  Cu    0.55929   0.50559   0.75484   0.00000  Uiso   1.00
H917   H     0.66652   0.44325   0.53005   0.00000  Uiso   1.00
H918   H     0.58609   0.55987   0.93010   0.00000  Uiso   1.00
H919   H     0.33474   0.53836   0.78414   0.00000  Uiso   1.00
H920   H     0.66527   0.46166   0.71585   0.00000  Uiso   1.00
H921   H     0.56582   0.34195   0.88374   0.00000  Uiso   1.00
H922   H     0.49384   0.36789   0.89457   0.00000  Uiso   1.00
H923   H     0.49160   0.63759   0.91429   0.00000  Uiso   1.00
H924   H     0.44775   0.62998   0.84841   0.00000  Uiso   1.00
H925   H     0.51821   0.60274   0.83918   0.00000  Uiso   1.00
H926   H     0.58432   0.34726   0.79874   0.00000  Uiso   1.00
H927   H     0.51925   0.38059   0.81542   0.00000  Uiso   1.00
H928   H     0.65897   0.58033   0.97483   0.00000  Uiso   1.00
H929   H     0.46474   0.59311   0.62359   0.00000  Uiso   1.00
H930   H     0.47624   0.66045   0.60790   0.00000  Uiso   1.00
H931   H     0.54069   0.62584   0.59119   0.00000  Uiso   1.00
H932   H     0.55582   0.35357   0.65297   0.00000  Uiso   1.00
H933   H     0.54473   0.61995   0.66811   0.00000  Uiso   1.00
H934   H     0.42707   0.62169   0.70406   0.00000  Uiso   1.00
H935   H     0.44093   0.35246   0.68614   0.00000  Uiso   1.00
H936   H     0.47462   0.47093   0.60833   0.00000  Uiso   1.00
H937   H     0.52960   0.52380   0.89020   0.00000  Uiso   1.00
H938   H     0.65642   0.55336   0.62117   0.00000  Uiso   1.00
H939   H     0.34037   0.45788   0.88106   0.00000  Uiso   1.00
H940   H     0.64066   0.44228   0.95986   0.00000  Uiso   1.00
H941   H     0.35323   0.57738   0.54400   0.00000  Uiso   1.00
H942   H     0.40563   0.46408   0.57495   0.00000  Uiso   1.00
N943   N     0.64839   0.51401   0.76212   0.00000  Uiso   1.00
N944   N     0.35161   0.48599   0.73788   0.00000  Uiso   1.00
O945   O     0.46148   0.57142   0.74686   0.00000  Uiso   1.00
O946   O     0.53852   0.42858   0.75314   0.00000  Uiso   1.00
O947   O     0.56163   0.58086   0.75503   0.00000  Uiso   1.00
O948   O     0.43837   0.41914   0.74498   0.00000  Uiso   1.00
O949   O     0.42185   0.49263   0.80855   0.00000  Uiso   1.00
O950   O     0.57815   0.50737   0.69146   0.00000  Uiso   1.00
O951   O     0.52199   0.50207   0.81671   0.00000  Uiso   1.00
O952   O     0.47801   0.49793   0.68329   0.00000  Uiso   1.00
C953   C     0.84650   0.59960   0.75296   0.00000  Uiso   1.00
C954   C     0.87200   0.50396   0.66688   0.00000  Uiso   1.00
C955   C     0.77124   0.49209   0.88089   0.00000  Uiso   1.00
C956   C     0.89543   0.51158   0.61952   0.00000  Uiso   1.00
C957   C     0.68940   0.46087   0.94536   0.00000  Uiso   1.00
C958   C     0.97285   0.55462   0.55752   0.00000  Uiso   1.00
C959   C     0.70802   0.46998   0.90053   0.00000  Uiso   1.00
C960   C     0.95616   0.54033   0.60129   0.00000  Uiso   1.00
C961   C     0.81467   0.50760   0.90676   0.00000  Uiso   1.00
C962   C     0.85273   0.49533   0.59329   0.00000  Uiso   1.00
C963   C     0.79694   0.49978   0.95218   0.00000  Uiso   1.00
C964   C     0.81962   0.40035   0.74770   0.00000  Uiso   1.00
C965   C     0.86713   0.51128   0.54965   0.00000  Uiso   1.00
C966   C     0.73357   0.47448   0.97105   0.00000  Uiso   1.00
C967   C     0.92875   0.54085   0.53178   0.00000  Uiso   1.00
C968   C     0.84090   0.51446   0.97892   0.00000  Uiso   1.00
C969   C     0.82196   0.49943   0.52363   0.00000  Uiso   1.00
C970   C     0.86522   0.34217   0.80507   0.00000  Uiso   1.00
C971   C     0.83335   0.63957   0.84452   0.00000  Uiso   1.00
C972   C     0.84713   0.66519   0.88685   0.00000  Uiso   1.00
C973   C     0.79767   0.65768   0.69757   0.00000  Uiso   1.00
C974   C     0.85403   0.64945   0.65964   0.00000  Uiso   1.00
C975   C     0.75811   0.47423   0.54105   0.00000  Uiso   1.00
C976   C     0.83236   0.63106   0.61806   0.00000  Uiso   1.00
C977   C     0.90276   0.54433   0.96264   0.00000  Uiso   1.00
C978   C     0.71497   0.46236   0.51523   0.00000  Uiso   1.00
C979   C     0.94553   0.55725   0.98867   0.00000  Uiso   1.00
C980   C     0.84515   0.65354   0.76324   0.00000  Uiso   1.00
C981   C     0.81889   0.34603   0.73899   0.00000  Uiso   1.00
C982   C     0.79466   0.49607   0.83315   0.00000  Uiso   1.00
Cu983  Cu    0.77404   0.49441   0.74517   0.00000  Uiso   1.00
Cu984  Cu    0.89263   0.50559   0.75484   0.00000  Uiso   1.00
H985   H     0.99985   0.44325   0.53005   0.00000  Uiso   1.00
H986   H     0.91943   0.55987   0.93010   0.00000  Uiso   1.00
H987   H     0.66807   0.53836   0.78414   0.00000  Uiso   1.00
H988   H     0.99860   0.46166   0.71585   0.00000  Uiso   1.00
H989   H     0.89916   0.34195   0.88374   0.00000  Uiso   1.00
H990   H     0.82717   0.36789   0.89457   0.00000  Uiso   1.00
H991   H     0.82493   0.63759   0.91429   0.00000  Uiso   1.00
H992   H     0.78109   0.62998   0.84841   0.00000  Uiso   1.00
H993   H     0.85155   0.60274   0.83918   0.00000  Uiso   1.00
H994   H     0.91765   0.34726   0.79874   0.00000  Uiso   1.00
H995   H     0.85258   0.38059   0.81542   0.00000  Uiso   1.00
H996   H     0.99231   0.58033   0.97483   0.00000  Uiso   1.00
H997   H     0.79808   0.59311   0.62359   0.00000  Uiso   1.00
H998   H     0.80957   0.66045   0.60790   0.00000  Uiso   1.00
H999   H     0.87402   0.62584   0.59119   0.00000  Uiso   1.00
H1000  H     0.88916   0.35357   0.65297   0.00000  Uiso   1.00
H1001  H     0.87806   0.61995   0.66811   0.00000  Uiso   1.00
H1002  H     0.76040   0.62169   0.70406   0.00000  Uiso   1.00
H1003  H     0.77426   0.35246   0.68614   0.00000  Uiso   1.00
H1004  H     0.80795   0.47093   0.60833   0.00000  Uiso   1.00
H1005  H     0.86293   0.52380   0.89020   0.00000  Uiso   1.00
H1006  H     0.98975   0.55336   0.62117   0.00000  Uiso   1.00
H1007  H     0.67371   0.45788   0.88106   0.00000  Uiso   1.00
H1008  H     0.97399   0.44228   0.95986   0.00000  Uiso   1.00
H1009  H     0.68656   0.57738   0.54400   0.00000  Uiso   1.00
H1010  H     0.73896   0.46408   0.57495   0.00000  Uiso   1.00
N1011  N     0.98173   0.51401   0.76212   0.00000  Uiso   1.00
N1012  N     0.68494   0.48599   0.73788   0.00000  Uiso   1.00
O1013  O     0.79482   0.57142   0.74686   0.00000  Uiso   1.00
O1014  O     0.87185   0.42858   0.75314   0.00000  Uiso   1.00
O1015  O     0.89496   0.58086   0.75503   0.00000  Uiso   1.00
O1016  O     0.77171   0.41914   0.74498   0.00000  Uiso   1.00
O1017  O     0.75518   0.49263   0.80855   0.00000  Uiso   1.00
O1018  O     0.91149   0.50737   0.69146   0.00000  Uiso   1.00
O1019  O     0.85532   0.50207   0.81671   0.00000  Uiso   1.00
O1020  O     0.81134   0.49793   0.68329   0.00000  Uiso   1.00
C1021  C     0.17984   0.93294   0.75296   0.00000  Uiso   1.00
C1022  C     0.20534   0.83729   0.66688   0.00000  Uiso   1.00
C1023  C     0.10457   0.82542   0.88089   0.00000  Uiso   1.00
C1024  C     0.22876   0.84492   0.61952   0.00000  Uiso   1.00
C1025  C     0.02274   0.79421   0.94536   0.00000  Uiso   1.00
C1026  C     0.30619   0.88795   0.55752   0.00000  Uiso   1.00
C1027  C     0.04135   0.80332   0.90053   0.00000  Uiso   1.00
C1028  C     0.28949   0.87366   0.60129   0.00000  Uiso   1.00
C1029  C     0.14801   0.84093   0.90676   0.00000  Uiso   1.00
C1030  C     0.18606   0.82866   0.59329   0.00000  Uiso   1.00
C1031  C     0.13027   0.83311   0.95218   0.00000  Uiso   1.00
C1032  C     0.15296   0.73369   0.74770   0.00000  Uiso   1.00
C1033  C     0.20046   0.84461   0.54965   0.00000  Uiso   1.00
C1034  C     0.06690   0.80781   0.97105   0.00000  Uiso   1.00
C1035  C     0.26208   0.87419   0.53178   0.00000  Uiso   1.00
C1036  C     0.17423   0.84779   0.97892   0.00000  Uiso   1.00
C1037  C     0.15529   0.83277   0.52363   0.00000  Uiso   1.00
C1038  C     0.19856   0.67550   0.80507   0.00000  Uiso   1.00
C1039  C     0.16669   0.97291   0.84452   0.00000  Uiso   1.00
C1040  C     0.18046   0.99852   0.88685   0.00000  Uiso   1.00
C1041  C     0.13101   0.99102   0.69757   0.00000  Uiso   1.00
C1042  C     0.18736   0.98279   0.65964   0.00000  Uiso   1.00
C1043  C     0.09144   0.80757   0.54105   0.00000  Uiso   1.00
C1044  C     0.16569   0.96439   0.61806   0.00000  Uiso   1.00
C1045  C     0.23609   0.87766   0.96264   0.00000  Uiso   1.00
C1046  C     0.04830   0.79569   0.51523   0.00000  Uiso   1.00
C1047  C     0.27887   0.89059   0.98867   0.00000  Uiso   1.00
C1048  C     0.17848   0.98688   0.76324   0.00000  Uiso   1.00
C1049  C     0.15222   0.67936   0.73899   0.00000  Uiso   1.00
C1050  C     0.12799   0.82941   0.83315   0.00000  Uiso   1.00
Cu1051 Cu    0.10737   0.82775   0.74517   0.00000  Uiso   1.00
Cu1052 Cu    0.22596   0.83892   0.75484   0.00000  Uiso   1.00
H1053  H     0.33319   0.77659   0.53005   0.00000  Uiso   1.00
H1054  H     0.25276   0.89320   0.93010   0.00000  Uiso   1.00
H1055  H     0.00141   0.87169   0.78414   0.00000  Uiso   1.00
H1056  H     0.33194   0.79499   0.71585   0.00000  Uiso   1.00
H1057  H     0.23249   0.67528   0.88374   0.00000  Uiso   1.00
H1058  H     0.16050   0.70122   0.89457   0.00000  Uiso   1.00
H1059  H     0.15826   0.97092   0.91429   0.00000  Uiso   1.00
H1060  H     0.11442   0.96331   0.84841   0.00000  Uiso   1.00
H1061  H     0.18488   0.93608   0.83918   0.00000  Uiso   1.00
H1062  H     0.25099   0.68060   0.79874   0.00000  Uiso   1.00
H1063  H     0.18592   0.71393   0.81542   0.00000  Uiso   1.00
H1064  H     0.32564   0.91367   0.97483   0.00000  Uiso   1.00
H1065  H     0.13141   0.92644   0.62359   0.00000  Uiso   1.00
H1066  H     0.14290   0.99379   0.60790   0.00000  Uiso   1.00
H1067  H     0.20736   0.95917   0.59119   0.00000  Uiso   1.00
H1068  H     0.22249   0.68690   0.65297   0.00000  Uiso   1.00
H1069  H     0.21140   0.95329   0.66811   0.00000  Uiso   1.00
H1070  H     0.09374   0.95502   0.70406   0.00000  Uiso   1.00
H1071  H     0.10760   0.68579   0.68614   0.00000  Uiso   1.00
H1072  H     0.14128   0.80426   0.60833   0.00000  Uiso   1.00
H1073  H     0.19626   0.85713   0.89020   0.00000  Uiso   1.00
H1074  H     0.32309   0.88670   0.62117   0.00000  Uiso   1.00
H1075  H     0.00704   0.79122   0.88106   0.00000  Uiso   1.00
H1076  H     0.30732   0.77562   0.95986   0.00000  Uiso   1.00
H1077  H     0.01990   0.91071   0.54400   0.00000  Uiso   1.00
H1078  H     0.07229   0.79742   0.57495   0.00000  Uiso   1.00
N1079  N     0.31506   0.84735   0.76212   0.00000  Uiso   1.00
N1080  N     0.01827   0.81932   0.73788   0.00000  Uiso   1.00
O1081  O     0.12815   0.90476   0.74686   0.00000  Uiso   1.00
O1082  O     0.20518   0.76191   0.75314   0.00000  Uiso   1.00
O1083  O     0.22829   0.91420   0.75503   0.00000  Uiso   1.00
O1084  O     0.10504   0.75247   0.74498   0.00000  Uiso   1.00
O1085  O     0.08851   0.82597   0.80855   0.00000  Uiso   1.00
O1086  O     0.24482   0.84070   0.69146   0.00000  Uiso   1.00
O1087  O     0.18866   0.83540   0.81671   0.00000  Uiso   1.00
O1088  O     0.14468   0.83126   0.68329   0.00000  Uiso   1.00
C1089  C     0.51317   0.93294   0.75296   0.00000  Uiso   1.00
C1090  C     0.53867   0.83729   0.66688   0.00000  Uiso   1.00
C1091  C     0.43791   0.82542   0.88089   0.00000  Uiso   1.00
C1092  C     0.56210   0.84492   0.61952   0.00000  Uiso   1.00
C1093  C     0.35607   0.79421   0.94536   0.00000  Uiso   1.00
C1094  C     0.63952   0.88795   0.55752   0.00000  Uiso   1.00
C1095  C     0.37469   0.80332   0.90053   0.00000  Uiso   1.00
C1096  C     0.62283   0.87366   0.60129   0.00000  Uiso   1.00
C1097  C     0.48134   0.84093   0.90676   0.00000  Uiso   1.00
C1098  C     0.51940   0.82866   0.59329   0.00000  Uiso   1.00
C1099  C     0.46361   0.83311   0.95218   0.00000  Uiso   1.00
C1100  C     0.48629   0.73369   0.74770   0.00000  Uiso   1.00
C1101  C     0.53380   0.84461   0.54965   0.00000  Uiso   1.00
C1102  C     0.40024   0.80781   0.97105   0.00000  Uiso   1.00
C1103  C     0.59542   0.87419   0.53178   0.00000  Uiso   1.00
C1104  C     0.50757   0.84779   0.97892   0.00000  Uiso   1.00
C1105  C     0.48862   0.83277   0.52363   0.00000  Uiso   1.00
C1106  C     0.53189   0.67550   0.80507   0.00000  Uiso   1.00
C1107  C     0.50002   0.97291   0.84452   0.00000  Uiso   1.00
C1108  C     0.51380   0.99852   0.88685   0.00000  Uiso   1.00
C1109  C     0.46434   0.99102   0.69757   0.00000  Uiso   1.00
C1110  C     0.52069   0.98279   0.65964   0.00000  Uiso   1.00
C1111  C     0.42477   0.80757   0.54105   0.00000  Uiso   1.00
C1112  C     0.49902   0.96439   0.61806   0.00000  Uiso   1.00
C1113  C     0.56943   0.87766   0.96264   0.00000  Uiso   1.00
C1114  C     0.38163   0.79569   0.51523   0.00000  Uiso   1.00
C1115  C     0.61220   0.89059   0.98867   0.00000  Uiso   1.00
C1116  C     0.51181   0.98688   0.76324   0.00000  Uiso   1.00
C1117  C     0.48556   0.67936   0.73899   0.00000  Uiso   1.00
C1118  C     0.46132   0.82941   0.83315   0.00000  Uiso   1.00
Cu1119 Cu    0.44071   0.82775   0.74517   0.00000  Uiso   1.00
Cu1120 Cu    0.55929   0.83892   0.75484   0.00000  Uiso   1.00
H1121  H     0.66652   0.77659   0.53005   0.00000  Uiso   1.00
H1122  H     0.58609   0.89320   0.93010   0.00000  Uiso   1.00
H1123  H     0.33474   0.87169   0.78414   0.00000  Uiso   1.00
H1124  H     0.66527   0.79499   0.71585   0.00000  Uiso   1.00
H1125  H     0.56582   0.67528   0.88374   0.00000  Uiso   1.00
H1126  H     0.49384   0.70122   0.89457   0.00000  Uiso   1.00
H1127  H     0.49160   0.97092   0.91429   0.00000  Uiso   1.00
H1128  H     0.44775   0.96331   0.84841   0.00000  Uiso   1.00
H1129  H     0.51821   0.93608   0.83918   0.00000  Uiso   1.00
H1130  H     0.58432   0.68060   0.79874   0.00000  Uiso   1.00
H1131  H     0.51925   0.71393   0.81542   0.00000  Uiso   1.00
H1132  H     0.65897   0.91367   0.97483   0.00000  Uiso   1.00
H1133  H     0.46474   0.92644   0.62359   0.00000  Uiso   1.00
H1134  H     0.47624   0.99379   0.60790   0.00000  Uiso   1.00
H1135  H     0.54069   0.95917   0.59119   0.00000  Uiso   1.00
H1136  H     0.55582   0.68690   0.65297   0.00000  Uiso   1.00
H1137  H     0.54473   0.95329   0.66811   0.00000  Uiso   1.00
H1138  H     0.42707   0.95502   0.70406   0.00000  Uiso   1.00
H1139  H     0.44093   0.68579   0.68614   0.00000  Uiso   1.00
H1140  H     0.47462   0.80426   0.60833   0.00000  Uiso   1.00
H1141  H     0.52960   0.85713   0.89020   0.00000  Uiso   1.00
H1142  H     0.65642   0.88670   0.62117   0.00000  Uiso   1.00
H1143  H     0.34037   0.79122   0.88106   0.00000  Uiso   1.00
H1144  H     0.64066   0.77562   0.95986   0.00000  Uiso   1.00
H1145  H     0.35323   0.91071   0.54400   0.00000  Uiso   1.00
H1146  H     0.40563   0.79742   0.57495   0.00000  Uiso   1.00
N1147  N     0.64839   0.84735   0.76212   0.00000  Uiso   1.00
N1148  N     0.35161   0.81932   0.73788   0.00000  Uiso   1.00
O1149  O     0.46148   0.90476   0.74686   0.00000  Uiso   1.00
O1150  O     0.53852   0.76191   0.75314   0.00000  Uiso   1.00
O1151  O     0.56163   0.91420   0.75503   0.00000  Uiso   1.00
O1152  O     0.43837   0.75247   0.74498   0.00000  Uiso   1.00
O1153  O     0.42185   0.82597   0.80855   0.00000  Uiso   1.00
O1154  O     0.57815   0.84070   0.69146   0.00000  Uiso   1.00
O1155  O     0.52199   0.83540   0.81671   0.00000  Uiso   1.00
O1156  O     0.47801   0.83126   0.68329   0.00000  Uiso   1.00
C1157  C     0.84650   0.93294   0.75296   0.00000  Uiso   1.00
C1158  C     0.87200   0.83729   0.66688   0.00000  Uiso   1.00
C1159  C     0.77124   0.82542   0.88089   0.00000  Uiso   1.00
C1160  C     0.89543   0.84492   0.61952   0.00000  Uiso   1.00
C1161  C     0.68940   0.79421   0.94536   0.00000  Uiso   1.00
C1162  C     0.97285   0.88795   0.55752   0.00000  Uiso   1.00
C1163  C     0.70802   0.80332   0.90053   0.00000  Uiso   1.00
C1164  C     0.95616   0.87366   0.60129   0.00000  Uiso   1.00
C1165  C     0.81467   0.84093   0.90676   0.00000  Uiso   1.00
C1166  C     0.85273   0.82866   0.59329   0.00000  Uiso   1.00
C1167  C     0.79694   0.83311   0.95218   0.00000  Uiso   1.00
C1168  C     0.81962   0.73369   0.74770   0.00000  Uiso   1.00
C1169  C     0.86713   0.84461   0.54965   0.00000  Uiso   1.00
C1170  C     0.73357   0.80781   0.97105   0.00000  Uiso   1.00
C1171  C     0.92875   0.87419   0.53178   0.00000  Uiso   1.00
C1172  C     0.84090   0.84779   0.97892   0.00000  Uiso   1.00
C1173  C     0.82196   0.83277   0.52363   0.00000  Uiso   1.00
C1174  C     0.86522   0.67550   0.80507   0.00000  Uiso   1.00
C1175  C     0.83335   0.97291   0.84452   0.00000  Uiso   1.00
C1176  C     0.84713   0.99852   0.88685   0.00000  Uiso   1.00
C1177  C     0.79767   0.99102   0.69757   0.00000  Uiso   1.00
C1178  C     0.85403   0.98279   0.65964   0.00000  Uiso   1.00
C1179  C     0.75811   0.80757   0.54105   0.00000  Uiso   1.00
C1180  C     0.83236   0.96439   0.61806   0.00000  Uiso   1.00
C1181  C     0.90276   0.87766   0.96264   0.00000  Uiso   1.00
C1182  C     0.71497   0.79569   0.51523   0.00000  Uiso   1.00
C1183  C     0.94553   0.89059   0.98867   0.00000  Uiso   1.00
C1184  C     0.84515   0.98688   0.76324   0.00000  Uiso   1.00
C1185  C     0.81889   0.67936   0.73899   0.00000  Uiso   1.00
C1186  C     0.79466   0.82941   0.83315   0.00000  Uiso   1.00
Cu1187 Cu    0.77404   0.82775   0.74517   0.00000  Uiso   1.00
Cu1188 Cu    0.89263   0.83892   0.75484   0.00000  Uiso   1.00
H1189  H     0.99985   0.77659   0.53005   0.00000  Uiso   1.00
H1190  H     0.91943   0.89320   0.93010   0.00000  Uiso   1.00
H1191  H     0.66807   0.87169   0.78414   0.00000  Uiso   1.00
H1192  H     0.99860   0.79499   0.71585   0.00000  Uiso   1.00
H1193  H     0.89916   0.67528   0.88374   0.00000  Uiso   1.00
H1194  H     0.82717   0.70122   0.89457   0.00000  Uiso   1.00
H1195  H     0.82493   0.97092   0.91429   0.00000  Uiso   1.00
H1196  H     0.78109   0.96331   0.84841   0.00000  Uiso   1.00
H1197  H     0.85155   0.93608   0.83918   0.00000  Uiso   1.00
H1198  H     0.91765   0.68060   0.79874   0.00000  Uiso   1.00
H1199  H     0.85258   0.71393   0.81542   0.00000  Uiso   1.00
H1200  H     0.99231   0.91367   0.97483   0.00000  Uiso   1.00
H1201  H     0.79808   0.92644   0.62359   0.00000  Uiso   1.00
H1202  H     0.80957   0.99379   0.60790   0.00000  Uiso   1.00
H1203  H     0.87402   0.95917   0.59119   0.00000  Uiso   1.00
H1204  H     0.88916   0.68690   0.65297   0.00000  Uiso   1.00
H1205  H     0.87806   0.95329   0.66811   0.00000  Uiso   1.00
H1206  H     0.76040   0.95502   0.70406   0.00000  Uiso   1.00
H1207  H     0.77426   0.68579   0.68614   0.00000  Uiso   1.00
H1208  H     0.80795   0.80426   0.60833   0.00000  Uiso   1.00
H1209  H     0.86293   0.85713   0.89020   0.00000  Uiso   1.00
H1210  H     0.98975   0.88670   0.62117   0.00000  Uiso   1.00
H1211  H     0.67371   0.79122   0.88106   0.00000  Uiso   1.00
H1212  H     0.97399   0.77562   0.95986   0.00000  Uiso   1.00
H1213  H     0.68656   0.91071   0.54400   0.00000  Uiso   1.00
H1214  H     0.73896   0.79742   0.57495   0.00000  Uiso   1.00
N1215  N     0.98173   0.84735   0.76212   0.00000  Uiso   1.00
N1216  N     0.68494   0.81932   0.73788   0.00000  Uiso   1.00
O1217  O     0.79482   0.90476   0.74686   0.00000  Uiso   1.00
O1218  O     0.87185   0.76191   0.75314   0.00000  Uiso   1.00
O1219  O     0.89496   0.91420   0.75503   0.00000  Uiso   1.00
O1220  O     0.77171   0.75247   0.74498   0.00000  Uiso   1.00
O1221  O     0.75518   0.82597   0.80855   0.00000  Uiso   1.00
O1222  O     0.91149   0.84070   0.69146   0.00000  Uiso   1.00
O1223  O     0.85532   0.83540   0.81671   0.00000  Uiso   1.00
O1224  O     0.81134   0.83126   0.68329   0.00000  Uiso   1.00
loop_
_geom_bond_atom_site_label_1
_geom_bond_atom_site_label_2
_geom_bond_distance
_geom_bond_site_symmetry_2
_ccdc_geom_bond_type
C1     C28     1.431   .     S
C1     O63     1.292   .     A
C1     O61     1.280   .     A
C2     C4      1.466   .     S
C2     O68     1.295   .     A
C2     O66     1.300   .     A
C3     C9      1.400   .     A
C3     C30     1.468   .     S
C3     C7      1.398   .     A
C4     C8      1.398   .     A
C4     C10     1.398   .     A
C5     C14     1.405   .     A
C5     C7      1.393   .     A
C5     H192    1.084   1_455 S
C6     C8      1.393   .     A
C6     C15     1.405   .     A
C6     H125    1.084   .     S
C7     H55     1.083   .     S
C8     H54     1.083   .     S
C9     C11     1.405   .     A
C9     H53     1.075   .     S
C10    H52     1.075   .     S
C10    C13     1.406   .     A
C11    C16     1.428   .     A
C11    C14     1.418   .     A
C12    C29     1.427   .     S
C12    O64     1.288   .     A
C12    O62     1.283   .     A
C13    C17     1.428   .     A
C13    C15     1.418   .     A
C14    C638    1.390   .     S
C15    C639    1.390   1_554 S
C16    C25     1.417   .     A
C16    C629    1.425   .     S
C17    C23     1.417   .     A
C17    C628    1.425   1_554 S
C18    H42     1.112   .     S
C18    H43     1.106   .     S
C18    C427    1.539   1_545 S
C18    C436    1.539   1_545 S
C19    C20     1.528   .     S
C19    H41     1.108   .     S
C19    H40     1.112   .     S
C19    C222    1.539   .     S
C20    H39     1.111   .     S
C20    H241    1.111   .     S
C20    H242    1.111   .     S
C21    C22     1.537   .     S
C21    H50     1.108   .     S
C21    C233    1.536   .     S
C21    H255    1.112   .     S
C22    C24     1.527   .     S
C22    H49     1.109   .     S
C22    H252    1.112   .     S
C23    H58     1.076   .     S
C23    C26     1.387   .     A
C24    H47     1.110   .     S
C24    H46     1.111   .     S
C24    H45     1.111   .     S
C25    H34     1.076   .     S
C25    C27     1.387   .     A
C26    C626    1.390   1_554 S
C26    H169    1.085   1_455 S
C27    H44     1.085   .     S
C27    C627    1.390   .     S
C28    C222    1.539   .     S
C28    C233    1.361   .     S
C29    C436    1.361   1_545 S
C29    C429    1.536   1_545 S
C30    O65     1.301   .     A
C30    O67     1.295   .     A
Cu31   N60     2.018   .     S
Cu31   O61     1.971   .     S
Cu31   Cu32    2.685   .     S
Cu31   O68     1.919   .     S
Cu31   O65     1.940   .     S
Cu31   O64     1.960   .     S
Cu32   O67     1.919   .     S
Cu32   O63     1.960   .     S
Cu32   O66     1.940   .     S
Cu32   O62     1.971   .     S
Cu32   N59     2.018   .     S
H33    C94     1.085   .     S
H35    N195    1.029   1_455 S
H36    N128    1.029   .     S
H37    C428    1.111   1_545 S
H38    C428    1.111   1_545 S
H48    C430    1.112   1_545 S
H51    C429    1.112   1_545 S
H56    C73     1.084   .     S
H57    C142    1.084   1_455 S
N59    H103    1.029   .     S
N59    N128    1.281   .     S
N60    H172    1.029   1_455 S
N60    N195    1.281   1_455 S
C69    C96     1.431   .     S
C69    O131    1.292   .     A
C69    O129    1.280   .     A
C70    C72     1.466   .     S
C70    O136    1.295   .     A
C70    O134    1.300   .     A
C71    C77     1.400   .     A
C71    C98     1.468   .     S
C71    C75     1.398   .     A
C72    C76     1.398   .     A
C72    C78     1.398   .     A
C73    C82     1.405   .     A
C73    C75     1.393   .     A
C74    C76     1.393   .     A
C74    C83     1.405   .     A
C74    H193    1.084   .     S
C75    H123    1.083   .     S
C76    H122    1.083   .     S
C77    C79     1.405   .     A
C77    H121    1.075   .     S
C78    H120    1.075   .     S
C78    C81     1.406   .     A
C79    C84     1.428   .     A
C79    C82     1.418   .     A
C80    C97     1.427   .     S
C80    O132    1.288   .     A
C80    O130    1.283   .     A
C81    C85     1.428   .     A
C81    C83     1.418   .     A
C82    C706    1.390   .     S
C83    C707    1.390   1_554 S
C84    C93     1.417   .     A
C84    C697    1.425   .     S
C85    C91     1.417   .     A
C85    C696    1.425   1_554 S
C86    H110    1.112   .     S
C86    H111    1.106   .     S
C86    C495    1.539   1_545 S
C86    C504    1.539   1_545 S
C87    C88     1.528   .     S
C87    H109    1.108   .     S
C87    H108    1.112   .     S
C87    C290    1.539   .     S
C88    H107    1.111   .     S
C88    H309    1.111   .     S
C88    H310    1.111   .     S
C89    C90     1.537   .     S
C89    H118    1.108   .     S
C89    C301    1.536   .     S
C89    H323    1.112   .     S
C90    C92     1.527   .     S
C90    H117    1.109   .     S
C90    H320    1.112   .     S
C91    H126    1.076   .     S
C91    C94     1.387   .     A
C92    H115    1.110   .     S
C92    H114    1.111   .     S
C92    H113    1.111   .     S
C93    H102    1.076   .     S
C93    C95     1.387   .     A
C94    C694    1.390   1_554 S
C95    H112    1.085   .     S
C95    C695    1.390   .     S
C96    C290    1.539   .     S
C96    C301    1.361   .     S
C97    C504    1.361   1_545 S
C97    C497    1.536   1_545 S
C98    O133    1.301   .     A
C98    O135    1.295   .     A
Cu99   N128    2.018   .     S
Cu99   O129    1.971   .     S
Cu99   Cu100   2.685   .     S
Cu99   O136    1.919   .     S
Cu99   O133    1.940   .     S
Cu99   O132    1.960   .     S
Cu100  O135    1.919   .     S
Cu100  O131    1.960   .     S
Cu100  O134    1.940   .     S
Cu100  O130    1.971   .     S
Cu100  N127    2.018   .     S
H101   C162    1.085   .     S
H104   N196    1.029   .     S
H105   C496    1.111   1_545 S
H106   C496    1.111   1_545 S
H116   C498    1.112   1_545 S
H119   C497    1.112   1_545 S
H124   C141    1.084   .     S
N127   H171    1.029   .     S
N127   N196    1.281   .     S
C137   C164    1.431   .     S
C137   O199    1.292   .     A
C137   O197    1.280   .     A
C138   C140    1.466   .     S
C138   O204    1.295   .     A
C138   O202    1.300   .     A
C139   C145    1.400   .     A
C139   C166    1.468   .     S
C139   C143    1.398   .     A
C140   C144    1.398   .     A
C140   C146    1.398   .     A
C141   C150    1.405   .     A
C141   C143    1.393   .     A
C142   C144    1.393   .     A
C142   C151    1.405   .     A
C142   H57     1.084   1_655 S
C143   H191    1.083   .     S
C144   H190    1.083   .     S
C145   C147    1.405   .     A
C145   H189    1.075   .     S
C146   H188    1.075   .     S
C146   C149    1.406   .     A
C147   C152    1.428   .     A
C147   C150    1.418   .     A
C148   C165    1.427   .     S
C148   O200    1.288   .     A
C148   O198    1.283   .     A
C149   C153    1.428   .     A
C149   C151    1.418   .     A
C150   C774    1.390   .     S
C151   C775    1.390   1_554 S
C152   C161    1.417   .     A
C152   C765    1.425   .     S
C153   C159    1.417   .     A
C153   C764    1.425   1_554 S
C154   H178    1.112   .     S
C154   H179    1.106   .     S
C154   C563    1.539   1_545 S
C154   C572    1.539   1_545 S
C155   C156    1.528   .     S
C155   H177    1.108   .     S
C155   H176    1.112   .     S
C155   C358    1.539   .     S
C156   H175    1.111   .     S
C156   H377    1.111   .     S
C156   H378    1.111   .     S
C157   C158    1.537   .     S
C157   H186    1.108   .     S
C157   C369    1.536   .     S
C157   H391    1.112   .     S
C158   C160    1.527   .     S
C158   H185    1.109   .     S
C158   H388    1.112   .     S
C159   H194    1.076   .     S
C159   C162    1.387   .     A
C160   H183    1.110   .     S
C160   H182    1.111   .     S
C160   H181    1.111   .     S
C161   H170    1.076   .     S
C161   C163    1.387   .     A
C162   C762    1.390   1_554 S
C163   H180    1.085   .     S
C163   C763    1.390   .     S
C164   C358    1.539   .     S
C164   C369    1.361   .     S
C165   C572    1.361   1_545 S
C165   C565    1.536   1_545 S
C166   O201    1.301   .     A
C166   O203    1.295   .     A
Cu167  N196    2.018   .     S
Cu167  O197    1.971   .     S
Cu167  Cu168   2.685   .     S
Cu167  O204    1.919   .     S
Cu167  O201    1.940   .     S
Cu167  O200    1.960   .     S
Cu168  O203    1.919   .     S
Cu168  O199    1.960   .     S
Cu168  O202    1.940   .     S
Cu168  O198    1.971   .     S
Cu168  N195    2.018   .     S
H169   C26     1.085   1_655 S
H172   N60     1.029   1_655 S
H173   C564    1.111   1_545 S
H174   C564    1.111   1_545 S
H184   C566    1.112   1_545 S
H187   C565    1.112   1_545 S
H192   C5      1.084   1_655 S
N195   H35     1.029   1_655 S
N195   N60     1.281   1_655 S
C205   C232    1.431   .     S
C205   O267    1.292   .     A
C205   O265    1.280   .     A
C206   C208    1.466   .     S
C206   O272    1.295   .     A
C206   O270    1.300   .     A
C207   C213    1.400   .     A
C207   C234    1.468   .     S
C207   C211    1.398   .     A
C208   C212    1.398   .     A
C208   C214    1.398   .     A
C209   C218    1.405   .     A
C209   C211    1.393   .     A
C209   H396    1.084   1_455 S
C210   C212    1.393   .     A
C210   C219    1.405   .     A
C210   H329    1.084   .     S
C211   H259    1.083   .     S
C212   H258    1.083   .     S
C213   C215    1.405   .     A
C213   H257    1.075   .     S
C214   H256    1.075   .     S
C214   C217    1.406   .     A
C215   C220    1.428   .     A
C215   C218    1.418   .     A
C216   C233    1.427   .     S
C216   O268    1.288   .     A
C216   O266    1.283   .     A
C217   C221    1.428   .     A
C217   C219    1.418   .     A
C218   C842    1.390   .     S
C219   C843    1.390   1_554 S
C220   C229    1.417   .     A
C220   C833    1.425   .     S
C221   C227    1.417   .     A
C221   C832    1.425   1_554 S
C222   H246    1.112   .     S
C222   H247    1.106   .     S
C223   C224    1.528   .     S
C223   H245    1.108   .     S
C223   H244    1.112   .     S
C223   C426    1.539   .     S
C224   H243    1.111   .     S
C224   H445    1.111   .     S
C224   H446    1.111   .     S
C225   C226    1.537   .     S
C225   H254    1.108   .     S
C225   C437    1.536   .     S
C225   H459    1.112   .     S
C226   C228    1.527   .     S
C226   H253    1.109   .     S
C226   H456    1.112   .     S
C227   H262    1.076   .     S
C227   C230    1.387   .     A
C228   H251    1.110   .     S
C228   H250    1.111   .     S
C228   H249    1.111   .     S
C229   H238    1.076   .     S
C229   C231    1.387   .     A
C230   C830    1.390   1_554 S
C230   H373    1.085   1_455 S
C231   H248    1.085   .     S
C231   C831    1.390   .     S
C232   C426    1.539   .     S
C232   C437    1.361   .     S
C234   O269    1.301   .     A
C234   O271    1.295   .     A
Cu235  N264    2.018   .     S
Cu235  O265    1.971   .     S
Cu235  Cu236   2.685   .     S
Cu235  O272    1.919   .     S
Cu235  O269    1.940   .     S
Cu235  O268    1.960   .     S
Cu236  O271    1.919   .     S
Cu236  O267    1.960   .     S
Cu236  O270    1.940   .     S
Cu236  O266    1.971   .     S
Cu236  N263    2.018   .     S
H237   C298    1.085   .     S
H239   N399    1.029   1_455 S
H240   N332    1.029   .     S
H260   C277    1.084   .     S
H261   C346    1.084   1_455 S
N263   H307    1.029   .     S
N263   N332    1.281   .     S
N264   H376    1.029   1_455 S
N264   N399    1.281   1_455 S
C273   C300    1.431   .     S
C273   O335    1.292   .     A
C273   O333    1.280   .     A
C274   C276    1.466   .     S
C274   O340    1.295   .     A
C274   O338    1.300   .     A
C275   C281    1.400   .     A
C275   C302    1.468   .     S
C275   C279    1.398   .     A
C276   C280    1.398   .     A
C276   C282    1.398   .     A
C277   C286    1.405   .     A
C277   C279    1.393   .     A
C278   C280    1.393   .     A
C278   C287    1.405   .     A
C278   H397    1.084   .     S
C279   H327    1.083   .     S
C280   H326    1.083   .     S
C281   C283    1.405   .     A
C281   H325    1.075   .     S
C282   H324    1.075   .     S
C282   C285    1.406   .     A
C283   C288    1.428   .     A
C283   C286    1.418   .     A
C284   C301    1.427   .     S
C284   O336    1.288   .     A
C284   O334    1.283   .     A
C285   C289    1.428   .     A
C285   C287    1.418   .     A
C286   C910    1.390   .     S
C287   C911    1.390   1_554 S
C288   C297    1.417   .     A
C288   C901    1.425   .     S
C289   C295    1.417   .     A
C289   C900    1.425   1_554 S
C290   H314    1.112   .     S
C290   H315    1.106   .     S
C291   C292    1.528   .     S
C291   H313    1.108   .     S
C291   H312    1.112   .     S
C291   C494    1.539   .     S
C292   H311    1.111   .     S
C292   H513    1.111   .     S
C292   H514    1.111   .     S
C293   C294    1.537   .     S
C293   H322    1.108   .     S
C293   C505    1.536   .     S
C293   H527    1.112   .     S
C294   C296    1.527   .     S
C294   H321    1.109   .     S
C294   H524    1.112   .     S
C295   H330    1.076   .     S
C295   C298    1.387   .     A
C296   H319    1.110   .     S
C296   H318    1.111   .     S
C296   H317    1.111   .     S
C297   H306    1.076   .     S
C297   C299    1.387   .     A
C298   C898    1.390   1_554 S
C299   H316    1.085   .     S
C299   C899    1.390   .     S
C300   C494    1.539   .     S
C300   C505    1.361   .     S
C302   O337    1.301   .     A
C302   O339    1.295   .     A
Cu303  N332    2.018   .     S
Cu303  O333    1.971   .     S
Cu303  Cu304   2.685   .     S
Cu303  O340    1.919   .     S
Cu303  O337    1.940   .     S
Cu303  O336    1.960   .     S
Cu304  O339    1.919   .     S
Cu304  O335    1.960   .     S
Cu304  O338    1.940   .     S
Cu304  O334    1.971   .     S
Cu304  N331    2.018   .     S
H305   C366    1.085   .     S
H308   N400    1.029   .     S
H328   C345    1.084   .     S
N331   H375    1.029   .     S
N331   N400    1.281   .     S
C341   C368    1.431   .     S
C341   O403    1.292   .     A
C341   O401    1.280   .     A
C342   C344    1.466   .     S
C342   O408    1.295   .     A
C342   O406    1.300   .     A
C343   C349    1.400   .     A
C343   C370    1.468   .     S
C343   C347    1.398   .     A
C344   C348    1.398   .     A
C344   C350    1.398   .     A
C345   C354    1.405   .     A
C345   C347    1.393   .     A
C346   C348    1.393   .     A
C346   C355    1.405   .     A
C346   H261    1.084   1_655 S
C347   H395    1.083   .     S
C348   H394    1.083   .     S
C349   C351    1.405   .     A
C349   H393    1.075   .     S
C350   H392    1.075   .     S
C350   C353    1.406   .     A
C351   C356    1.428   .     A
C351   C354    1.418   .     A
C352   C369    1.427   .     S
C352   O404    1.288   .     A
C352   O402    1.283   .     A
C353   C357    1.428   .     A
C353   C355    1.418   .     A
C354   C978    1.390   .     S
C355   C979    1.390   1_554 S
C356   C365    1.417   .     A
C356   C969    1.425   .     S
C357   C363    1.417   .     A
C357   C968    1.425   1_554 S
C358   H382    1.112   .     S
C358   H383    1.106   .     S
C359   C360    1.528   .     S
C359   H381    1.108   .     S
C359   H380    1.112   .     S
C359   C562    1.539   .     S
C360   H379    1.111   .     S
C360   H581    1.111   .     S
C360   H582    1.111   .     S
C361   C362    1.537   .     S
C361   H390    1.108   .     S
C361   C573    1.536   .     S
C361   H595    1.112   .     S
C362   C364    1.527   .     S
C362   H389    1.109   .     S
C362   H592    1.112   .     S
C363   H398    1.076   .     S
C363   C366    1.387   .     A
C364   H387    1.110   .     S
C364   H386    1.111   .     S
C364   H385    1.111   .     S
C365   H374    1.076   .     S
C365   C367    1.387   .     A
C366   C966    1.390   1_554 S
C367   H384    1.085   .     S
C367   C967    1.390   .     S
C368   C562    1.539   .     S
C368   C573    1.361   .     S
C370   O405    1.301   .     A
C370   O407    1.295   .     A
Cu371  N400    2.018   .     S
Cu371  O401    1.971   .     S
Cu371  Cu372   2.685   .     S
Cu371  O408    1.919   .     S
Cu371  O405    1.940   .     S
Cu371  O404    1.960   .     S
Cu372  O407    1.919   .     S
Cu372  O403    1.960   .     S
Cu372  O406    1.940   .     S
Cu372  O402    1.971   .     S
Cu372  N399    2.018   .     S
H373   C230    1.085   1_655 S
H376   N264    1.029   1_655 S
H396   C209    1.084   1_655 S
N399   H239    1.029   1_655 S
N399   N264    1.281   1_655 S
C409   C436    1.431   .     S
C409   O471    1.292   .     A
C409   O469    1.280   .     A
C410   C412    1.466   .     S
C410   O476    1.295   .     A
C410   O474    1.300   .     A
C411   C417    1.400   .     A
C411   C438    1.468   .     S
C411   C415    1.398   .     A
C412   C416    1.398   .     A
C412   C418    1.398   .     A
C413   C422    1.405   .     A
C413   C415    1.393   .     A
C413   H600    1.084   1_455 S
C414   C416    1.393   .     A
C414   C423    1.405   .     A
C414   H533    1.084   .     S
C415   H463    1.083   .     S
C416   H462    1.083   .     S
C417   C419    1.405   .     A
C417   H461    1.075   .     S
C418   H460    1.075   .     S
C418   C421    1.406   .     A
C419   C424    1.428   .     A
C419   C422    1.418   .     A
C420   C437    1.427   .     S
C420   O472    1.288   .     A
C420   O470    1.283   .     A
C421   C425    1.428   .     A
C421   C423    1.418   .     A
C422   C1046   1.390   .     S
C423   C1047   1.390   1_554 S
C424   C433    1.417   .     A
C424   C1037   1.425   .     S
C425   C431    1.417   .     A
C425   C1036   1.425   1_554 S
C426   H450    1.112   .     S
C426   H451    1.106   .     S
C427   C428    1.528   .     S
C427   H449    1.108   .     S
C427   H448    1.112   .     S
C427   C18     1.539   1_565 S
C428   H447    1.111   .     S
C428   H37     1.111   1_565 S
C428   H38     1.111   1_565 S
C429   C430    1.537   .     S
C429   H458    1.108   .     S
C429   C29     1.536   1_565 S
C429   H51     1.112   1_565 S
C430   C432    1.527   .     S
C430   H457    1.109   .     S
C430   H48     1.112   1_565 S
C431   H466    1.076   .     S
C431   C434    1.387   .     A
C432   H455    1.110   .     S
C432   H454    1.111   .     S
C432   H453    1.111   .     S
C433   H442    1.076   .     S
C433   C435    1.387   .     A
C434   C1034   1.390   1_554 S
C434   H577    1.085   1_455 S
C435   H452    1.085   .     S
C435   C1035   1.390   .     S
C436   C18     1.539   1_565 S
C436   C29     1.361   1_565 S
C438   O473    1.301   .     A
C438   O475    1.295   .     A
Cu439  N468    2.018   .     S
Cu439  O469    1.971   .     S
Cu439  Cu440   2.685   .     S
Cu439  O476    1.919   .     S
Cu439  O473    1.940   .     S
Cu439  O472    1.960   .     S
Cu440  O475    1.919   .     S
Cu440  O471    1.960   .     S
Cu440  O474    1.940   .     S
Cu440  O470    1.971   .     S
Cu440  N467    2.018   .     S
H441   C502    1.085   .     S
H443   N603    1.029   1_455 S
H444   N536    1.029   .     S
H464   C481    1.084   .     S
H465   C550    1.084   1_455 S
N467   H511    1.029   .     S
N467   N536    1.281   .     S
N468   H580    1.029   1_455 S
N468   N603    1.281   1_455 S
C477   C504    1.431   .     S
C477   O539    1.292   .     A
C477   O537    1.280   .     A
C478   C480    1.466   .     S
C478   O544    1.295   .     A
C478   O542    1.300   .     A
C479   C485    1.400   .     A
C479   C506    1.468   .     S
C479   C483    1.398   .     A
C480   C484    1.398   .     A
C480   C486    1.398   .     A
C481   C490    1.405   .     A
C481   C483    1.393   .     A
C482   C484    1.393   .     A
C482   C491    1.405   .     A
C482   H601    1.084   .     S
C483   H531    1.083   .     S
C484   H530    1.083   .     S
C485   C487    1.405   .     A
C485   H529    1.075   .     S
C486   H528    1.075   .     S
C486   C489    1.406   .     A
C487   C492    1.428   .     A
C487   C490    1.418   .     A
C488   C505    1.427   .     S
C488   O540    1.288   .     A
C488   O538    1.283   .     A
C489   C493    1.428   .     A
C489   C491    1.418   .     A
C490   C1114   1.390   .     S
C491   C1115   1.390   1_554 S
C492   C501    1.417   .     A
C492   C1105   1.425   .     S
C493   C499    1.417   .     A
C493   C1104   1.425   1_554 S
C494   H518    1.112   .     S
C494   H519    1.106   .     S
C495   C496    1.528   .     S
C495   H517    1.108   .     S
C495   H516    1.112   .     S
C495   C86     1.539   1_565 S
C496   H515    1.111   .     S
C496   H105    1.111   1_565 S
C496   H106    1.111   1_565 S
C497   C498    1.537   .     S
C497   H526    1.108   .     S
C497   C97     1.536   1_565 S
C497   H119    1.112   1_565 S
C498   C500    1.527   .     S
C498   H525    1.109   .     S
C498   H116    1.112   1_565 S
C499   H534    1.076   .     S
C499   C502    1.387   .     A
C500   H523    1.110   .     S
C500   H522    1.111   .     S
C500   H521    1.111   .     S
C501   H510    1.076   .     S
C501   C503    1.387   .     A
C502   C1102   1.390   1_554 S
C503   H520    1.085   .     S
C503   C1103   1.390   .     S
C504   C86     1.539   1_565 S
C504   C97     1.361   1_565 S
C506   O541    1.301   .     A
C506   O543    1.295   .     A
Cu507  N536    2.018   .     S
Cu507  O537    1.971   .     S
Cu507  Cu508   2.685   .     S
Cu507  O544    1.919   .     S
Cu507  O541    1.940   .     S
Cu507  O540    1.960   .     S
Cu508  O543    1.919   .     S
Cu508  O539    1.960   .     S
Cu508  O542    1.940   .     S
Cu508  O538    1.971   .     S
Cu508  N535    2.018   .     S
H509   C570    1.085   .     S
H512   N604    1.029   .     S
H532   C549    1.084   .     S
N535   H579    1.029   .     S
N535   N604    1.281   .     S
C545   C572    1.431   .     S
C545   O607    1.292   .     A
C545   O605    1.280   .     A
C546   C548    1.466   .     S
C546   O612    1.295   .     A
C546   O610    1.300   .     A
C547   C553    1.400   .     A
C547   C574    1.468   .     S
C547   C551    1.398   .     A
C548   C552    1.398   .     A
C548   C554    1.398   .     A
C549   C558    1.405   .     A
C549   C551    1.393   .     A
C550   C552    1.393   .     A
C550   C559    1.405   .     A
C550   H465    1.084   1_655 S
C551   H599    1.083   .     S
C552   H598    1.083   .     S
C553   C555    1.405   .     A
C553   H597    1.075   .     S
C554   H596    1.075   .     S
C554   C557    1.406   .     A
C555   C560    1.428   .     A
C555   C558    1.418   .     A
C556   C573    1.427   .     S
C556   O608    1.288   .     A
C556   O606    1.283   .     A
C557   C561    1.428   .     A
C557   C559    1.418   .     A
C558   C1182   1.390   .     S
C559   C1183   1.390   1_554 S
C560   C569    1.417   .     A
C560   C1173   1.425   .     S
C561   C567    1.417   .     A
C561   C1172   1.425   1_554 S
C562   H586    1.112   .     S
C562   H587    1.106   .     S
C563   C564    1.528   .     S
C563   H585    1.108   .     S
C563   H584    1.112   .     S
C563   C154    1.539   1_565 S
C564   H583    1.111   .     S
C564   H173    1.111   1_565 S
C564   H174    1.111   1_565 S
C565   C566    1.537   .     S
C565   H594    1.108   .     S
C565   C165    1.536   1_565 S
C565   H187    1.112   1_565 S
C566   C568    1.527   .     S
C566   H593    1.109   .     S
C566   H184    1.112   1_565 S
C567   H602    1.076   .     S
C567   C570    1.387   .     A
C568   H591    1.110   .     S
C568   H590    1.111   .     S
C568   H589    1.111   .     S
C569   H578    1.076   .     S
C569   C571    1.387   .     A
C570   C1170   1.390   1_554 S
C571   H588    1.085   .     S
C571   C1171   1.390   .     S
C572   C154    1.539   1_565 S
C572   C165    1.361   1_565 S
C574   O609    1.301   .     A
C574   O611    1.295   .     A
Cu575  N604    2.018   .     S
Cu575  O605    1.971   .     S
Cu575  Cu576   2.685   .     S
Cu575  O612    1.919   .     S
Cu575  O609    1.940   .     S
Cu575  O608    1.960   .     S
Cu576  O611    1.919   .     S
Cu576  O607    1.960   .     S
Cu576  O610    1.940   .     S
Cu576  O606    1.971   .     S
Cu576  N603    2.018   .     S
H577   C434    1.085   1_655 S
H580   N468    1.029   1_655 S
H600   C413    1.084   1_655 S
N603   H443    1.029   1_655 S
N603   N468    1.281   1_655 S
C613   C640    1.431   .     S
C613   O675    1.292   .     A
C613   O673    1.280   .     A
C614   C616    1.466   .     S
C614   O680    1.295   .     A
C614   O678    1.300   .     A
C615   C621    1.400   .     A
C615   C642    1.468   .     S
C615   C619    1.398   .     A
C616   C620    1.398   .     A
C616   C622    1.398   .     A
C617   C626    1.405   .     A
C617   C619    1.393   .     A
C617   H804    1.084   1_455 S
C618   C620    1.393   .     A
C618   C627    1.405   .     A
C618   H737    1.084   .     S
C619   H667    1.083   .     S
C620   H666    1.083   .     S
C621   C623    1.405   .     A
C621   H665    1.075   .     S
C622   H664    1.075   .     S
C622   C625    1.406   .     A
C623   C628    1.428   .     A
C623   C626    1.418   .     A
C624   C641    1.427   .     S
C624   O676    1.288   .     A
C624   O674    1.283   .     A
C625   C629    1.428   .     A
C625   C627    1.418   .     A
C626   C26     1.390   1_556 S
C628   C637    1.417   .     A
C628   C17     1.425   1_556 S
C629   C635    1.417   .     A
C630   H654    1.112   .     S
C630   H655    1.106   .     S
C630   C1039   1.539   1_545 S
C630   C1048   1.539   1_545 S
C631   C632    1.528   .     S
C631   H653    1.108   .     S
C631   H652    1.112   .     S
C631   C834    1.539   .     S
C632   H651    1.111   .     S
C632   H853    1.111   .     S
C632   H854    1.111   .     S
C633   C634    1.537   .     S
C633   H662    1.108   .     S
C633   C845    1.536   .     S
C633   H867    1.112   .     S
C634   C636    1.527   .     S
C634   H661    1.109   .     S
C634   H864    1.112   .     S
C635   H670    1.076   .     S
C635   C638    1.387   .     A
C636   H659    1.110   .     S
C636   H658    1.111   .     S
C636   H657    1.111   .     S
C637   H646    1.076   .     S
C637   C639    1.387   .     A
C638   H781    1.085   1_455 S
C639   H656    1.085   .     S
C639   C15     1.390   1_556 S
C640   C834    1.539   .     S
C640   C845    1.361   .     S
C641   C1048   1.361   1_545 S
C641   C1041   1.536   1_545 S
C642   O677    1.301   .     A
C642   O679    1.295   .     A
Cu643  N672    2.018   .     S
Cu643  O673    1.971   .     S
Cu643  Cu644   2.685   .     S
Cu643  O680    1.919   .     S
Cu643  O677    1.940   .     S
Cu643  O676    1.960   .     S
Cu644  O679    1.919   .     S
Cu644  O675    1.960   .     S
Cu644  O678    1.940   .     S
Cu644  O674    1.971   .     S
Cu644  N671    2.018   .     S
H645   C706    1.085   .     S
H647   N807    1.029   1_455 S
H648   N740    1.029   .     S
H649   C1040   1.111   1_545 S
H650   C1040   1.111   1_545 S
H660   C1042   1.112   1_545 S
H663   C1041   1.112   1_545 S
H668   C685    1.084   .     S
H669   C754    1.084   1_455 S
N671   H715    1.029   .     S
N671   N740    1.281   .     S
N672   H784    1.029   1_455 S
N672   N807    1.281   1_455 S
C681   C708    1.431   .     S
C681   O743    1.292   .     A
C681   O741    1.280   .     A
C682   C684    1.466   .     S
C682   O748    1.295   .     A
C682   O746    1.300   .     A
C683   C689    1.400   .     A
C683   C710    1.468   .     S
C683   C687    1.398   .     A
C684   C688    1.398   .     A
C684   C690    1.398   .     A
C685   C694    1.405   .     A
C685   C687    1.393   .     A
C686   C688    1.393   .     A
C686   C695    1.405   .     A
C686   H805    1.084   .     S
C687   H735    1.083   .     S
C688   H734    1.083   .     S
C689   C691    1.405   .     A
C689   H733    1.075   .     S
C690   H732    1.075   .     S
C690   C693    1.406   .     A
C691   C696    1.428   .     A
C691   C694    1.418   .     A
C692   C709    1.427   .     S
C692   O744    1.288   .     A
C692   O742    1.283   .     A
C693   C697    1.428   .     A
C693   C695    1.418   .     A
C694   C94     1.390   1_556 S
C696   C705    1.417   .     A
C696   C85     1.425   1_556 S
C697   C703    1.417   .     A
C698   H722    1.112   .     S
C698   H723    1.106   .     S
C698   C1107   1.539   1_545 S
C698   C1116   1.539   1_545 S
C699   C700    1.528   .     S
C699   H721    1.108   .     S
C699   H720    1.112   .     S
C699   C902    1.539   .     S
C700   H719    1.111   .     S
C700   H921    1.111   .     S
C700   H922    1.111   .     S
C701   C702    1.537   .     S
C701   H730    1.108   .     S
C701   C913    1.536   .     S
C701   H935    1.112   .     S
C702   C704    1.527   .     S
C702   H729    1.109   .     S
C702   H932    1.112   .     S
C703   H738    1.076   .     S
C703   C706    1.387   .     A
C704   H727    1.110   .     S
C704   H726    1.111   .     S
C704   H725    1.111   .     S
C705   H714    1.076   .     S
C705   C707    1.387   .     A
C707   H724    1.085   .     S
C707   C83     1.390   1_556 S
C708   C902    1.539   .     S
C708   C913    1.361   .     S
C709   C1116   1.361   1_545 S
C709   C1109   1.536   1_545 S
C710   O745    1.301   .     A
C710   O747    1.295   .     A
Cu711  N740    2.018   .     S
Cu711  O741    1.971   .     S
Cu711  Cu712   2.685   .     S
Cu711  O748    1.919   .     S
Cu711  O745    1.940   .     S
Cu711  O744    1.960   .     S
Cu712  O747    1.919   .     S
Cu712  O743    1.960   .     S
Cu712  O746    1.940   .     S
Cu712  O742    1.971   .     S
Cu712  N739    2.018   .     S
H713   C774    1.085   .     S
H716   N808    1.029   .     S
H717   C1108   1.111   1_545 S
H718   C1108   1.111   1_545 S
H728   C1110   1.112   1_545 S
H731   C1109   1.112   1_545 S
H736   C753    1.084   .     S
N739   H783    1.029   .     S
N739   N808    1.281   .     S
C749   C776    1.431   .     S
C749   O811    1.292   .     A
C749   O809    1.280   .     A
C750   C752    1.466   .     S
C750   O816    1.295   .     A
C750   O814    1.300   .     A
C751   C757    1.400   .     A
C751   C778    1.468   .     S
C751   C755    1.398   .     A
C752   C756    1.398   .     A
C752   C758    1.398   .     A
C753   C762    1.405   .     A
C753   C755    1.393   .     A
C754   C756    1.393   .     A
C754   C763    1.405   .     A
C754   H669    1.084   1_655 S
C755   H803    1.083   .     S
C756   H802    1.083   .     S
C757   C759    1.405   .     A
C757   H801    1.075   .     S
C758   H800    1.075   .     S
C758   C761    1.406   .     A
C759   C764    1.428   .     A
C759   C762    1.418   .     A
C760   C777    1.427   .     S
C760   O812    1.288   .     A
C760   O810    1.283   .     A
C761   C765    1.428   .     A
C761   C763    1.418   .     A
C762   C162    1.390   1_556 S
C764   C773    1.417   .     A
C764   C153    1.425   1_556 S
C765   C771    1.417   .     A
C766   H790    1.112   .     S
C766   H791    1.106   .     S
C766   C1175   1.539   1_545 S
C766   C1184   1.539   1_545 S
C767   C768    1.528   .     S
C767   H789    1.108   .     S
C767   H788    1.112   .     S
C767   C970    1.539   .     S
C768   H787    1.111   .     S
C768   H989    1.111   .     S
C768   H990    1.111   .     S
C769   C770    1.537   .     S
C769   H798    1.108   .     S
C769   C981    1.536   .     S
C769   H1003   1.112   .     S
C770   C772    1.527   .     S
C770   H797    1.109   .     S
C770   H1000   1.112   .     S
C771   H806    1.076   .     S
C771   C774    1.387   .     A
C772   H795    1.110   .     S
C772   H794    1.111   .     S
C772   H793    1.111   .     S
C773   H782    1.076   .     S
C773   C775    1.387   .     A
C775   H792    1.085   .     S
C775   C151    1.390   1_556 S
C776   C970    1.539   .     S
C776   C981    1.361   .     S
C777   C1184   1.361   1_545 S
C777   C1177   1.536   1_545 S
C778   O813    1.301   .     A
C778   O815    1.295   .     A
Cu779  N808    2.018   .     S
Cu779  O809    1.971   .     S
Cu779  Cu780   2.685   .     S
Cu779  O816    1.919   .     S
Cu779  O813    1.940   .     S
Cu779  O812    1.960   .     S
Cu780  O815    1.919   .     S
Cu780  O811    1.960   .     S
Cu780  O814    1.940   .     S
Cu780  O810    1.971   .     S
Cu780  N807    2.018   .     S
H781   C638    1.085   1_655 S
H784   N672    1.029   1_655 S
H785   C1176   1.111   1_545 S
H786   C1176   1.111   1_545 S
H796   C1178   1.112   1_545 S
H799   C1177   1.112   1_545 S
H804   C617    1.084   1_655 S
N807   H647    1.029   1_655 S
N807   N672    1.281   1_655 S
C817   C844    1.431   .     S
C817   O879    1.292   .     A
C817   O877    1.280   .     A
C818   C820    1.466   .     S
C818   O884    1.295   .     A
C818   O882    1.300   .     A
C819   C825    1.400   .     A
C819   C846    1.468   .     S
C819   C823    1.398   .     A
C820   C824    1.398   .     A
C820   C826    1.398   .     A
C821   C830    1.405   .     A
C821   C823    1.393   .     A
C821   H1008   1.084   1_455 S
C822   C824    1.393   .     A
C822   C831    1.405   .     A
C822   H941    1.084   .     S
C823   H871    1.083   .     S
C824   H870    1.083   .     S
C825   C827    1.405   .     A
C825   H869    1.075   .     S
C826   H868    1.075   .     S
C826   C829    1.406   .     A
C827   C832    1.428   .     A
C827   C830    1.418   .     A
C828   C845    1.427   .     S
C828   O880    1.288   .     A
C828   O878    1.283   .     A
C829   C833    1.428   .     A
C829   C831    1.418   .     A
C830   C230    1.390   1_556 S
C832   C841    1.417   .     A
C832   C221    1.425   1_556 S
C833   C839    1.417   .     A
C834   H858    1.112   .     S
C834   H859    1.106   .     S
C835   C836    1.528   .     S
C835   H857    1.108   .     S
C835   H856    1.112   .     S
C835   C1038   1.539   .     S
C836   H855    1.111   .     S
C836   H1057   1.111   .     S
C836   H1058   1.111   .     S
C837   C838    1.537   .     S
C837   H866    1.108   .     S
C837   C1049   1.536   .     S
C837   H1071   1.112   .     S
C838   C840    1.527   .     S
C838   H865    1.109   .     S
C838   H1068   1.112   .     S
C839   H874    1.076   .     S
C839   C842    1.387   .     A
C840   H863    1.110   .     S
C840   H862    1.111   .     S
C840   H861    1.111   .     S
C841   H850    1.076   .     S
C841   C843    1.387   .     A
C842   H985    1.085   1_455 S
C843   H860    1.085   .     S
C843   C219    1.390   1_556 S
C844   C1038   1.539   .     S
C844   C1049   1.361   .     S
C846   O881    1.301   .     A
C846   O883    1.295   .     A
Cu847  N876    2.018   .     S
Cu847  O877    1.971   .     S
Cu847  Cu848   2.685   .     S
Cu847  O884    1.919   .     S
Cu847  O881    1.940   .     S
Cu847  O880    1.960   .     S
Cu848  O883    1.919   .     S
Cu848  O879    1.960   .     S
Cu848  O882    1.940   .     S
Cu848  O878    1.971   .     S
Cu848  N875    2.018   .     S
H849   C910    1.085   .     S
H851   N1011   1.029   1_455 S
H852   N944    1.029   .     S
H872   C889    1.084   .     S
H873   C958    1.084   1_455 S
N875   H919    1.029   .     S
N875   N944    1.281   .     S
N876   H988    1.029   1_455 S
N876   N1011   1.281   1_455 S
C885   C912    1.431   .     S
C885   O947    1.292   .     A
C885   O945    1.280   .     A
C886   C888    1.466   .     S
C886   O952    1.295   .     A
C886   O950    1.300   .     A
C887   C893    1.400   .     A
C887   C914    1.468   .     S
C887   C891    1.398   .     A
C888   C892    1.398   .     A
C888   C894    1.398   .     A
C889   C898    1.405   .     A
C889   C891    1.393   .     A
C890   C892    1.393   .     A
C890   C899    1.405   .     A
C890   H1009   1.084   .     S
C891   H939    1.083   .     S
C892   H938    1.083   .     S
C893   C895    1.405   .     A
C893   H937    1.075   .     S
C894   H936    1.075   .     S
C894   C897    1.406   .     A
C895   C900    1.428   .     A
C895   C898    1.418   .     A
C896   C913    1.427   .     S
C896   O948    1.288   .     A
C896   O946    1.283   .     A
C897   C901    1.428   .     A
C897   C899    1.418   .     A
C898   C298    1.390   1_556 S
C900   C909    1.417   .     A
C900   C289    1.425   1_556 S
C901   C907    1.417   .     A
C902   H926    1.112   .     S
C902   H927    1.106   .     S
C903   C904    1.528   .     S
C903   H925    1.108   .     S
C903   H924    1.112   .     S
C903   C1106   1.539   .     S
C904   H923    1.111   .     S
C904   H1125   1.111   .     S
C904   H1126   1.111   .     S
C905   C906    1.537   .     S
C905   H934    1.108   .     S
C905   C1117   1.536   .     S
C905   H1139   1.112   .     S
C906   C908    1.527   .     S
C906   H933    1.109   .     S
C906   H1136   1.112   .     S
C907   H942    1.076   .     S
C907   C910    1.387   .     A
C908   H931    1.110   .     S
C908   H930    1.111   .     S
C908   H929    1.111   .     S
C909   H918    1.076   .     S
C909   C911    1.387   .     A
C911   H928    1.085   .     S
C911   C287    1.390   1_556 S
C912   C1106   1.539   .     S
C912   C1117   1.361   .     S
C914   O949    1.301   .     A
C914   O951    1.295   .     A
Cu915  N944    2.018   .     S
Cu915  O945    1.971   .     S
Cu915  Cu916   2.685   .     S
Cu915  O952    1.919   .     S
Cu915  O949    1.940   .     S
Cu915  O948    1.960   .     S
Cu916  O951    1.919   .     S
Cu916  O947    1.960   .     S
Cu916  O950    1.940   .     S
Cu916  O946    1.971   .     S
Cu916  N943    2.018   .     S
H917   C978    1.085   .     S
H920   N1012   1.029   .     S
H940   C957    1.084   .     S
N943   H987    1.029   .     S
N943   N1012   1.281   .     S
C953   C980    1.431   .     S
C953   O1015   1.292   .     A
C953   O1013   1.280   .     A
C954   C956    1.466   .     S
C954   O1020   1.295   .     A
C954   O1018   1.300   .     A
C955   C961    1.400   .     A
C955   C982    1.468   .     S
C955   C959    1.398   .     A
C956   C960    1.398   .     A
C956   C962    1.398   .     A
C957   C966    1.405   .     A
C957   C959    1.393   .     A
C958   C960    1.393   .     A
C958   C967    1.405   .     A
C958   H873    1.084   1_655 S
C959   H1007   1.083   .     S
C960   H1006   1.083   .     S
C961   C963    1.405   .     A
C961   H1005   1.075   .     S
C962   H1004   1.075   .     S
C962   C965    1.406   .     A
C963   C968    1.428   .     A
C963   C966    1.418   .     A
C964   C981    1.427   .     S
C964   O1016   1.288   .     A
C964   O1014   1.283   .     A
C965   C969    1.428   .     A
C965   C967    1.418   .     A
C966   C366    1.390   1_556 S
C968   C977    1.417   .     A
C968   C357    1.425   1_556 S
C969   C975    1.417   .     A
C970   H994    1.112   .     S
C970   H995    1.106   .     S
C971   C972    1.528   .     S
C971   H993    1.108   .     S
C971   H992    1.112   .     S
C971   C1174   1.539   .     S
C972   H991    1.111   .     S
C972   H1193   1.111   .     S
C972   H1194   1.111   .     S
C973   C974    1.537   .     S
C973   H1002   1.108   .     S
C973   C1185   1.536   .     S
C973   H1207   1.112   .     S
C974   C976    1.527   .     S
C974   H1001   1.109   .     S
C974   H1204   1.112   .     S
C975   H1010   1.076   .     S
C975   C978    1.387   .     A
C976   H999    1.110   .     S
C976   H998    1.111   .     S
C976   H997    1.111   .     S
C977   H986    1.076   .     S
C977   C979    1.387   .     A
C979   H996    1.085   .     S
C979   C355    1.390   1_556 S
C980   C1174   1.539   .     S
C980   C1185   1.361   .     S
C982   O1017   1.301   .     A
C982   O1019   1.295   .     A
Cu983  N1012   2.018   .     S
Cu983  O1013   1.971   .     S
Cu983  Cu984   2.685   .     S
Cu983  O1020   1.919   .     S
Cu983  O1017   1.940   .     S
Cu983  O1016   1.960   .     S
Cu984  O1019   1.919   .     S
Cu984  O1015   1.960   .     S
Cu984  O1018   1.940   .     S
Cu984  O1014   1.971   .     S
Cu984  N1011   2.018   .     S
H985   C842    1.085   1_655 S
H988   N876    1.029   1_655 S
H1008  C821    1.084   1_655 S
N1011  H851    1.029   1_655 S
N1011  N876    1.281   1_655 S
C1021  C1048   1.431   .     S
C1021  O1083   1.292   .     A
C1021  O1081   1.280   .     A
C1022  C1024   1.466   .     S
C1022  O1088   1.295   .     A
C1022  O1086   1.300   .     A
C1023  C1029   1.400   .     A
C1023  C1050   1.468   .     S
C1023  C1027   1.398   .     A
C1024  C1028   1.398   .     A
C1024  C1030   1.398   .     A
C1025  C1034   1.405   .     A
C1025  C1027   1.393   .     A
C1025  H1212   1.084   1_455 S
C1026  C1028   1.393   .     A
C1026  C1035   1.405   .     A
C1026  H1145   1.084   .     S
C1027  H1075   1.083   .     S
C1028  H1074   1.083   .     S
C1029  C1031   1.405   .     A
C1029  H1073   1.075   .     S
C1030  H1072   1.075   .     S
C1030  C1033   1.406   .     A
C1031  C1036   1.428   .     A
C1031  C1034   1.418   .     A
C1032  C1049   1.427   .     S
C1032  O1084   1.288   .     A
C1032  O1082   1.283   .     A
C1033  C1037   1.428   .     A
C1033  C1035   1.418   .     A
C1034  C434    1.390   1_556 S
C1036  C1045   1.417   .     A
C1036  C425    1.425   1_556 S
C1037  C1043   1.417   .     A
C1038  H1062   1.112   .     S
C1038  H1063   1.106   .     S
C1039  C1040   1.528   .     S
C1039  H1061   1.108   .     S
C1039  H1060   1.112   .     S
C1039  C630    1.539   1_565 S
C1040  H1059   1.111   .     S
C1040  H649    1.111   1_565 S
C1040  H650    1.111   1_565 S
C1041  C1042   1.537   .     S
C1041  H1070   1.108   .     S
C1041  C641    1.536   1_565 S
C1041  H663    1.112   1_565 S
C1042  C1044   1.527   .     S
C1042  H1069   1.109   .     S
C1042  H660    1.112   1_565 S
C1043  H1078   1.076   .     S
C1043  C1046   1.387   .     A
C1044  H1067   1.110   .     S
C1044  H1066   1.111   .     S
C1044  H1065   1.111   .     S
C1045  H1054   1.076   .     S
C1045  C1047   1.387   .     A
C1046  H1189   1.085   1_455 S
C1047  H1064   1.085   .     S
C1047  C423    1.390   1_556 S
C1048  C630    1.539   1_565 S
C1048  C641    1.361   1_565 S
C1050  O1085   1.301   .     A
C1050  O1087   1.295   .     A
Cu1051 N1080   2.018   .     S
Cu1051 O1081   1.971   .     S
Cu1051 Cu1052  2.685   .     S
Cu1051 O1088   1.919   .     S
Cu1051 O1085   1.940   .     S
Cu1051 O1084   1.960   .     S
Cu1052 O1087   1.919   .     S
Cu1052 O1083   1.960   .     S
Cu1052 O1086   1.940   .     S
Cu1052 O1082   1.971   .     S
Cu1052 N1079   2.018   .     S
H1053  C1114   1.085   .     S
H1055  N1215   1.029   1_455 S
H1056  N1148   1.029   .     S
H1076  C1093   1.084   .     S
H1077  C1162   1.084   1_455 S
N1079  H1123   1.029   .     S
N1079  N1148   1.281   .     S
N1080  H1192   1.029   1_455 S
N1080  N1215   1.281   1_455 S
C1089  C1116   1.431   .     S
C1089  O1151   1.292   .     A
C1089  O1149   1.280   .     A
C1090  C1092   1.466   .     S
C1090  O1156   1.295   .     A
C1090  O1154   1.300   .     A
C1091  C1097   1.400   .     A
C1091  C1118   1.468   .     S
C1091  C1095   1.398   .     A
C1092  C1096   1.398   .     A
C1092  C1098   1.398   .     A
C1093  C1102   1.405   .     A
C1093  C1095   1.393   .     A
C1094  C1096   1.393   .     A
C1094  C1103   1.405   .     A
C1094  H1213   1.084   .     S
C1095  H1143   1.083   .     S
C1096  H1142   1.083   .     S
C1097  C1099   1.405   .     A
C1097  H1141   1.075   .     S
C1098  H1140   1.075   .     S
C1098  C1101   1.406   .     A
C1099  C1104   1.428   .     A
C1099  C1102   1.418   .     A
C1100  C1117   1.427   .     S
C1100  O1152   1.288   .     A
C1100  O1150   1.283   .     A
C1101  C1105   1.428   .     A
C1101  C1103   1.418   .     A
C1102  C502    1.390   1_556 S
C1104  C1113   1.417   .     A
C1104  C493    1.425   1_556 S
C1105  C1111   1.417   .     A
C1106  H1130   1.112   .     S
C1106  H1131   1.106   .     S
C1107  C1108   1.528   .     S
C1107  H1129   1.108   .     S
C1107  H1128   1.112   .     S
C1107  C698    1.539   1_565 S
C1108  H1127   1.111   .     S
C1108  H717    1.111   1_565 S
C1108  H718    1.111   1_565 S
C1109  C1110   1.537   .     S
C1109  H1138   1.108   .     S
C1109  C709    1.536   1_565 S
C1109  H731    1.112   1_565 S
C1110  C1112   1.527   .     S
C1110  H1137   1.109   .     S
C1110  H728    1.112   1_565 S
C1111  H1146   1.076   .     S
C1111  C1114   1.387   .     A
C1112  H1135   1.110   .     S
C1112  H1134   1.111   .     S
C1112  H1133   1.111   .     S
C1113  H1122   1.076   .     S
C1113  C1115   1.387   .     A
C1115  H1132   1.085   .     S
C1115  C491    1.390   1_556 S
C1116  C698    1.539   1_565 S
C1116  C709    1.361   1_565 S
C1118  O1153   1.301   .     A
C1118  O1155   1.295   .     A
Cu1119 N1148   2.018   .     S
Cu1119 O1149   1.971   .     S
Cu1119 Cu1120  2.685   .     S
Cu1119 O1156   1.919   .     S
Cu1119 O1153   1.940   .     S
Cu1119 O1152   1.960   .     S
Cu1120 O1155   1.919   .     S
Cu1120 O1151   1.960   .     S
Cu1120 O1154   1.940   .     S
Cu1120 O1150   1.971   .     S
Cu1120 N1147   2.018   .     S
H1121  C1182   1.085   .     S
H1124  N1216   1.029   .     S
H1144  C1161   1.084   .     S
N1147  H1191   1.029   .     S
N1147  N1216   1.281   .     S
C1157  C1184   1.431   .     S
C1157  O1219   1.292   .     A
C1157  O1217   1.280   .     A
C1158  C1160   1.466   .     S
C1158  O1224   1.295   .     A
C1158  O1222   1.300   .     A
C1159  C1165   1.400   .     A
C1159  C1186   1.468   .     S
C1159  C1163   1.398   .     A
C1160  C1164   1.398   .     A
C1160  C1166   1.398   .     A
C1161  C1170   1.405   .     A
C1161  C1163   1.393   .     A
C1162  C1164   1.393   .     A
C1162  C1171   1.405   .     A
C1162  H1077   1.084   1_655 S
C1163  H1211   1.083   .     S
C1164  H1210   1.083   .     S
C1165  C1167   1.405   .     A
C1165  H1209   1.075   .     S
C1166  H1208   1.075   .     S
C1166  C1169   1.406   .     A
C1167  C1172   1.428   .     A
C1167  C1170   1.418   .     A
C1168  C1185   1.427   .     S
C1168  O1220   1.288   .     A
C1168  O1218   1.283   .     A
C1169  C1173   1.428   .     A
C1169  C1171   1.418   .     A
C1170  C570    1.390   1_556 S
C1172  C1181   1.417   .     A
C1172  C561    1.425   1_556 S
C1173  C1179   1.417   .     A
C1174  H1198   1.112   .     S
C1174  H1199   1.106   .     S
C1175  C1176   1.528   .     S
C1175  H1197   1.108   .     S
C1175  H1196   1.112   .     S
C1175  C766    1.539   1_565 S
C1176  H1195   1.111   .     S
C1176  H785    1.111   1_565 S
C1176  H786    1.111   1_565 S
C1177  C1178   1.537   .     S
C1177  H1206   1.108   .     S
C1177  C777    1.536   1_565 S
C1177  H799    1.112   1_565 S
C1178  C1180   1.527   .     S
C1178  H1205   1.109   .     S
C1178  H796    1.112   1_565 S
C1179  H1214   1.076   .     S
C1179  C1182   1.387   .     A
C1180  H1203   1.110   .     S
C1180  H1202   1.111   .     S
C1180  H1201   1.111   .     S
C1181  H1190   1.076   .     S
C1181  C1183   1.387   .     A
C1183  H1200   1.085   .     S
C1183  C559    1.390   1_556 S
C1184  C766    1.539   1_565 S
C1184  C777    1.361   1_565 S
C1186  O1221   1.301   .     A
C1186  O1223   1.295   .     A
Cu1187 N1216   2.018   .     S
Cu1187 O1217   1.971   .     S
Cu1187 Cu1188  2.685   .     S
Cu1187 O1224   1.919   .     S
Cu1187 O1221   1.940   .     S
Cu1187 O1220   1.960   .     S
Cu1188 O1223   1.919   .     S
Cu1188 O1219   1.960   .     S
Cu1188 O1222   1.940   .     S
Cu1188 O1218   1.971   .     S
Cu1188 N1215   2.018   .     S
H1189  C1046   1.085   1_655 S
H1192  N1080   1.029   1_655 S
H1212  C1025   1.084   1_655 S
N1215  H1055   1.029   1_655 S
N1215  N1080   1.281   1_655 S
