data_str_m2_o2_o10_pcu_sym.174
_audit_creation_date              2020-01-03
_audit_creation_method            'Materials Studio'
_symmetry_space_group_name_H-M    'P1'
_symmetry_Int_Tables_number       1
_symmetry_cell_setting            triclinic
loop_
_symmetry_equiv_pos_as_xyz
  x,y,z
_cell_length_a                    26.2291
_cell_length_b                    30.3300
_cell_length_c                    27.8590
_cell_angle_alpha                 89.6106
_cell_angle_beta                  97.8083
_cell_angle_gamma                 91.5594
loop_
_atom_site_label
_atom_site_type_symbol
_atom_site_fract_x
_atom_site_fract_y
_atom_site_fract_z
_atom_site_U_iso_or_equiv
_atom_site_adp_type
_atom_site_occupancy
C1     C     0.16694   0.16488   0.25030   0.00000  Uiso   1.00
C2     C     0.16732   0.33505   0.24972   0.00000  Uiso   1.00
C3     C     0.21467   0.25368   0.06044   0.00000  Uiso   1.00
C4     C     0.13475   0.21776   0.44120   0.00000  Uiso   1.00
C5     C     0.21185   0.25718   0.11075   0.00000  Uiso   1.00
C6     C     0.13384   0.22168   0.39032   0.00000  Uiso   1.00
C7     C     0.12279   0.24005   0.09759   0.00000  Uiso   1.00
C8     C     0.20131   0.27563   0.40104   0.00000  Uiso   1.00
C9     C     0.12298   0.24181   0.04723   0.00000  Uiso   1.00
C10    C     0.19937   0.27594   0.45113   0.00000  Uiso   1.00
C11    C     0.16883   0.24699   0.02736   0.00000  Uiso   1.00
C12    C     0.16761   0.24634   0.47270   0.00000  Uiso   1.00
C13    C     0.06824   0.25258   0.23795   0.00000  Uiso   1.00
C14    C     0.26511   0.24788   0.26212   0.00000  Uiso   1.00
C15    C     0.01376   0.26129   0.23422   0.00000  Uiso   1.00
C16    C     0.31969   0.24012   0.26629   0.00000  Uiso   1.00
C17    C     0.16578   0.04567   0.29194   0.00000  Uiso   1.00
C18    C     0.15779   0.45366   0.20721   0.00000  Uiso   1.00
C19    C     0.16108   0.09137   0.29248   0.00000  Uiso   1.00
C20    C     0.15474   0.40766   0.20599   0.00000  Uiso   1.00
C21    C     0.17006   0.11651   0.25130   0.00000  Uiso   1.00
C22    C     0.17059   0.38341   0.24881   0.00000  Uiso   1.00
C23    C     0.18404   0.09497   0.21075   0.00000  Uiso   1.00
C24    C     0.19124   0.40585   0.29115   0.00000  Uiso   1.00
C25    C     0.18845   0.04941   0.21066   0.00000  Uiso   1.00
C26    C     0.19579   0.45158   0.29140   0.00000  Uiso   1.00
C27    C     0.17861   0.02436   0.25102   0.00000  Uiso   1.00
C28    C     0.17839   0.47587   0.24966   0.00000  Uiso   1.00
Cu29   Cu    0.16667   0.24999   0.29822   0.00000  Uiso   1.00
Cu30   Cu    0.16667   0.25000   0.20179   0.00000  Uiso   1.00
H31    H     0.15725   0.02673   0.32311   0.00000  Uiso   1.00
H32    H     0.14318   0.47193   0.17494   0.00000  Uiso   1.00
H33    H     0.19195   0.11337   0.17900   0.00000  Uiso   1.00
H34    H     0.20454   0.38804   0.32409   0.00000  Uiso   1.00
H35    H     0.19949   0.03378   0.17893   0.00000  Uiso   1.00
H36    H     0.21270   0.46792   0.32443   0.00000  Uiso   1.00
H37    H     0.24691   0.26378   0.13488   0.00000  Uiso   1.00
H38    H     0.10801   0.20070   0.36640   0.00000  Uiso   1.00
H39    H     0.08679   0.23735   0.02382   0.00000  Uiso   1.00
H40    H     0.22377   0.29947   0.47319   0.00000  Uiso   1.00
N41    N     0.16667   0.25001   0.12935   0.00000  Uiso   1.00
N42    N     0.16667   0.24999   0.37066   0.00000  Uiso   1.00
O43    O     0.16667   0.18572   0.29072   0.00000  Uiso   1.00
O44    O     0.16666   0.31427   0.20929   0.00000  Uiso   1.00
O45    O     0.16667   0.18573   0.20928   0.00000  Uiso   1.00
O46    O     0.16666   0.31427   0.29072   0.00000  Uiso   1.00
O47    O     0.09161   0.24999   0.28132   0.00000  Uiso   1.00
O48    O     0.24172   0.25000   0.21868   0.00000  Uiso   1.00
O49    O     0.09161   0.25000   0.19989   0.00000  Uiso   1.00
O50    O     0.24172   0.25000   0.30012   0.00000  Uiso   1.00
N51    N     0.32556   0.29722   0.20446   0.00000  Uiso   1.00
H52    H     0.29964   0.31573   0.21985   0.00000  Uiso   1.00
C53    C     0.02511   0.32459   0.17812   0.00000  Uiso   1.00
H54    H     0.00224   0.35126   0.15891   0.00000  Uiso   1.00
H55    H     0.04070   0.30509   0.15024   0.00000  Uiso   1.00
H56    H     0.05671   0.33999   0.20359   0.00000  Uiso   1.00
N57    N     0.00820   0.20471   0.29651   0.00000  Uiso   1.00
H58    H     0.02964   0.18342   0.27921   0.00000  Uiso   1.00
C59    C     0.31161   0.18252   0.32999   0.00000  Uiso   1.00
H60    H     0.00160   0.15682   0.35028   0.00000  Uiso   1.00
H61    H     0.27664   0.16626   0.31004   0.00000  Uiso   1.00
H62    H     0.30117   0.20612   0.35704   0.00000  Uiso   1.00
N63    N     0.14633   0.11139   0.33428   0.00000  Uiso   1.00
H64    H     0.16997   0.10332   0.36560   0.00000  Uiso   1.00
C65    C     0.09256   0.10436   0.33928   0.00000  Uiso   1.00
H66    H     0.08384   0.06882   0.34504   0.00000  Uiso   1.00
H67    H     0.06795   0.11610   0.30637   0.00000  Uiso   1.00
H68    H     0.08348   0.12283   0.37110   0.00000  Uiso   1.00
N69    N     0.13382   0.38632   0.16210   0.00000  Uiso   1.00
H70    H     0.10019   0.40005   0.14591   0.00000  Uiso   1.00
C71    C     0.17033   0.38135   0.12806   0.00000  Uiso   1.00
H72    H     0.18169   0.41414   0.11426   0.00000  Uiso   1.00
H73    H     0.15241   0.36095   0.09701   0.00000  Uiso   1.00
H74    H     0.20528   0.36458   0.14546   0.00000  Uiso   1.00
N75    N     0.26384   0.25590   0.04415   0.00000  Uiso   1.00
H76    H     0.29139   0.27379   0.06648   0.00000  Uiso   1.00
C77    C     0.28241   0.21380   0.03085   0.00000  Uiso   1.00
H78    H     0.31964   0.21889   0.01655   0.00000  Uiso   1.00
H79    H     0.25476   0.19771   0.00213   0.00000  Uiso   1.00
H80    H     0.28835   0.19176   0.06304   0.00000  Uiso   1.00
N81    N     0.10327   0.18461   0.45980   0.00000  Uiso   1.00
H82    H     0.07058   0.17588   0.43653   0.00000  Uiso   1.00
C83    C     0.13080   0.14662   0.48004   0.00000  Uiso   1.00
H84    H     0.14837   0.12945   0.45147   0.00000  Uiso   1.00
H85    H     0.10365   0.12335   0.49516   0.00000  Uiso   1.00
H86    H     0.16142   0.15656   0.00979   0.00000  Uiso   1.00
N87    N     0.07663   0.22546   0.11442   0.00000  Uiso   1.00
H88    H     0.04458   0.24109   0.09760   0.00000  Uiso   1.00
C89    C     0.06897   0.17805   0.11436   0.00000  Uiso   1.00
H90    H     0.06243   0.16546   0.07657   0.00000  Uiso   1.00
H91    H     0.03474   0.16930   0.13228   0.00000  Uiso   1.00
H92    H     0.10289   0.16187   0.13449   0.00000  Uiso   1.00
N93    N     0.24034   0.30243   0.38350   0.00000  Uiso   1.00
H94    H     0.23545   0.31421   0.34884   0.00000  Uiso   1.00
C95    C     0.29341   0.29534   0.40383   0.00000  Uiso   1.00
H96    H     0.31626   0.28709   0.37450   0.00000  Uiso   1.00
H97    H     0.29693   0.26795   0.43072   0.00000  Uiso   1.00
H98    H     0.30998   0.32604   0.42178   0.00000  Uiso   1.00
C99    C     0.50027   0.16488   0.25030   0.00000  Uiso   1.00
C100   C     0.50066   0.33505   0.24972   0.00000  Uiso   1.00
C101   C     0.54801   0.25368   0.06044   0.00000  Uiso   1.00
C102   C     0.46808   0.21776   0.44120   0.00000  Uiso   1.00
C103   C     0.54518   0.25718   0.11075   0.00000  Uiso   1.00
C104   C     0.46718   0.22168   0.39032   0.00000  Uiso   1.00
C105   C     0.45612   0.24005   0.09759   0.00000  Uiso   1.00
C106   C     0.53464   0.27563   0.40104   0.00000  Uiso   1.00
C107   C     0.45632   0.24181   0.04723   0.00000  Uiso   1.00
C108   C     0.53270   0.27594   0.45113   0.00000  Uiso   1.00
C109   C     0.50217   0.24699   0.02736   0.00000  Uiso   1.00
C110   C     0.50094   0.24634   0.47270   0.00000  Uiso   1.00
C111   C     0.40158   0.25258   0.23795   0.00000  Uiso   1.00
C112   C     0.59844   0.24788   0.26212   0.00000  Uiso   1.00
C113   C     0.34710   0.26129   0.23422   0.00000  Uiso   1.00
C114   C     0.65302   0.24012   0.26629   0.00000  Uiso   1.00
C115   C     0.49912   0.04567   0.29194   0.00000  Uiso   1.00
C116   C     0.49112   0.45366   0.20721   0.00000  Uiso   1.00
C117   C     0.49442   0.09137   0.29248   0.00000  Uiso   1.00
C118   C     0.48807   0.40766   0.20599   0.00000  Uiso   1.00
C119   C     0.50339   0.11651   0.25130   0.00000  Uiso   1.00
C120   C     0.50393   0.38341   0.24881   0.00000  Uiso   1.00
C121   C     0.51737   0.09497   0.21075   0.00000  Uiso   1.00
C122   C     0.52457   0.40585   0.29115   0.00000  Uiso   1.00
C123   C     0.52178   0.04941   0.21066   0.00000  Uiso   1.00
C124   C     0.52913   0.45158   0.29140   0.00000  Uiso   1.00
C125   C     0.51195   0.02436   0.25102   0.00000  Uiso   1.00
C126   C     0.51172   0.47587   0.24966   0.00000  Uiso   1.00
Cu127  Cu    0.50000   0.24999   0.29822   0.00000  Uiso   1.00
Cu128  Cu    0.50000   0.25000   0.20179   0.00000  Uiso   1.00
H129   H     0.49059   0.02673   0.32311   0.00000  Uiso   1.00
H130   H     0.47652   0.47193   0.17494   0.00000  Uiso   1.00
H131   H     0.52528   0.11337   0.17900   0.00000  Uiso   1.00
H132   H     0.53787   0.38804   0.32409   0.00000  Uiso   1.00
H133   H     0.53282   0.03378   0.17893   0.00000  Uiso   1.00
H134   H     0.54603   0.46792   0.32443   0.00000  Uiso   1.00
H135   H     0.58024   0.26378   0.13488   0.00000  Uiso   1.00
H136   H     0.44134   0.20070   0.36640   0.00000  Uiso   1.00
H137   H     0.42012   0.23735   0.02382   0.00000  Uiso   1.00
H138   H     0.55710   0.29947   0.47319   0.00000  Uiso   1.00
N139   N     0.50000   0.25001   0.12935   0.00000  Uiso   1.00
N140   N     0.50000   0.24999   0.37066   0.00000  Uiso   1.00
O141   O     0.50000   0.18572   0.29072   0.00000  Uiso   1.00
O142   O     0.50000   0.31427   0.20929   0.00000  Uiso   1.00
O143   O     0.50000   0.18573   0.20928   0.00000  Uiso   1.00
O144   O     0.50000   0.31427   0.29072   0.00000  Uiso   1.00
O145   O     0.42495   0.24999   0.28132   0.00000  Uiso   1.00
O146   O     0.57505   0.25000   0.21868   0.00000  Uiso   1.00
O147   O     0.42495   0.25000   0.19989   0.00000  Uiso   1.00
O148   O     0.57505   0.25000   0.30012   0.00000  Uiso   1.00
N149   N     0.65889   0.29722   0.20446   0.00000  Uiso   1.00
H150   H     0.63297   0.31573   0.21985   0.00000  Uiso   1.00
C151   C     0.35844   0.32459   0.17812   0.00000  Uiso   1.00
H152   H     0.33557   0.35126   0.15891   0.00000  Uiso   1.00
H153   H     0.37403   0.30509   0.15024   0.00000  Uiso   1.00
H154   H     0.39004   0.33999   0.20359   0.00000  Uiso   1.00
N155   N     0.34153   0.20471   0.29651   0.00000  Uiso   1.00
H156   H     0.36298   0.18342   0.27921   0.00000  Uiso   1.00
C157   C     0.64494   0.18252   0.32999   0.00000  Uiso   1.00
H158   H     0.33493   0.15682   0.35028   0.00000  Uiso   1.00
H159   H     0.60998   0.16626   0.31004   0.00000  Uiso   1.00
H160   H     0.63450   0.20612   0.35704   0.00000  Uiso   1.00
N161   N     0.47966   0.11139   0.33428   0.00000  Uiso   1.00
H162   H     0.50331   0.10332   0.36560   0.00000  Uiso   1.00
C163   C     0.42590   0.10436   0.33928   0.00000  Uiso   1.00
H164   H     0.41718   0.06882   0.34504   0.00000  Uiso   1.00
H165   H     0.40128   0.11610   0.30637   0.00000  Uiso   1.00
H166   H     0.41681   0.12283   0.37110   0.00000  Uiso   1.00
N167   N     0.46715   0.38632   0.16210   0.00000  Uiso   1.00
H168   H     0.43352   0.40005   0.14591   0.00000  Uiso   1.00
C169   C     0.50366   0.38135   0.12806   0.00000  Uiso   1.00
H170   H     0.51502   0.41414   0.11426   0.00000  Uiso   1.00
H171   H     0.48574   0.36095   0.09701   0.00000  Uiso   1.00
H172   H     0.53861   0.36458   0.14546   0.00000  Uiso   1.00
N173   N     0.59718   0.25590   0.04415   0.00000  Uiso   1.00
H174   H     0.62472   0.27379   0.06648   0.00000  Uiso   1.00
C175   C     0.61574   0.21380   0.03085   0.00000  Uiso   1.00
H176   H     0.65298   0.21889   0.01655   0.00000  Uiso   1.00
H177   H     0.58810   0.19771   0.00213   0.00000  Uiso   1.00
H178   H     0.62168   0.19176   0.06304   0.00000  Uiso   1.00
N179   N     0.43660   0.18461   0.45980   0.00000  Uiso   1.00
H180   H     0.40391   0.17588   0.43653   0.00000  Uiso   1.00
C181   C     0.46414   0.14662   0.48004   0.00000  Uiso   1.00
H182   H     0.48170   0.12945   0.45147   0.00000  Uiso   1.00
H183   H     0.43699   0.12335   0.49516   0.00000  Uiso   1.00
H184   H     0.49476   0.15656   0.00979   0.00000  Uiso   1.00
N185   N     0.40997   0.22546   0.11442   0.00000  Uiso   1.00
H186   H     0.37791   0.24109   0.09760   0.00000  Uiso   1.00
C187   C     0.40230   0.17805   0.11436   0.00000  Uiso   1.00
H188   H     0.39576   0.16546   0.07657   0.00000  Uiso   1.00
H189   H     0.36807   0.16930   0.13228   0.00000  Uiso   1.00
H190   H     0.43623   0.16187   0.13449   0.00000  Uiso   1.00
N191   N     0.57367   0.30243   0.38350   0.00000  Uiso   1.00
H192   H     0.56879   0.31421   0.34884   0.00000  Uiso   1.00
C193   C     0.62675   0.29534   0.40383   0.00000  Uiso   1.00
H194   H     0.64960   0.28709   0.37450   0.00000  Uiso   1.00
H195   H     0.63027   0.26795   0.43072   0.00000  Uiso   1.00
H196   H     0.64331   0.32604   0.42178   0.00000  Uiso   1.00
C197   C     0.83361   0.16488   0.25030   0.00000  Uiso   1.00
C198   C     0.83399   0.33505   0.24972   0.00000  Uiso   1.00
C199   C     0.88134   0.25368   0.06044   0.00000  Uiso   1.00
C200   C     0.80142   0.21776   0.44120   0.00000  Uiso   1.00
C201   C     0.87851   0.25718   0.11075   0.00000  Uiso   1.00
C202   C     0.80051   0.22168   0.39032   0.00000  Uiso   1.00
C203   C     0.78945   0.24005   0.09759   0.00000  Uiso   1.00
C204   C     0.86797   0.27563   0.40104   0.00000  Uiso   1.00
C205   C     0.78965   0.24181   0.04723   0.00000  Uiso   1.00
C206   C     0.86603   0.27594   0.45113   0.00000  Uiso   1.00
C207   C     0.83550   0.24699   0.02736   0.00000  Uiso   1.00
C208   C     0.83428   0.24634   0.47270   0.00000  Uiso   1.00
C209   C     0.73491   0.25258   0.23795   0.00000  Uiso   1.00
C210   C     0.93177   0.24788   0.26212   0.00000  Uiso   1.00
C211   C     0.68043   0.26129   0.23422   0.00000  Uiso   1.00
C212   C     0.98636   0.24012   0.26629   0.00000  Uiso   1.00
C213   C     0.83245   0.04567   0.29194   0.00000  Uiso   1.00
C214   C     0.82445   0.45366   0.20721   0.00000  Uiso   1.00
C215   C     0.82775   0.09137   0.29248   0.00000  Uiso   1.00
C216   C     0.82140   0.40766   0.20599   0.00000  Uiso   1.00
C217   C     0.83673   0.11651   0.25130   0.00000  Uiso   1.00
C218   C     0.83726   0.38341   0.24881   0.00000  Uiso   1.00
C219   C     0.85070   0.09497   0.21075   0.00000  Uiso   1.00
C220   C     0.85791   0.40585   0.29115   0.00000  Uiso   1.00
C221   C     0.85511   0.04941   0.21066   0.00000  Uiso   1.00
C222   C     0.86246   0.45158   0.29140   0.00000  Uiso   1.00
C223   C     0.84528   0.02436   0.25102   0.00000  Uiso   1.00
C224   C     0.84506   0.47587   0.24966   0.00000  Uiso   1.00
Cu225  Cu    0.83333   0.24999   0.29822   0.00000  Uiso   1.00
Cu226  Cu    0.83333   0.25000   0.20179   0.00000  Uiso   1.00
H227   H     0.82392   0.02673   0.32311   0.00000  Uiso   1.00
H228   H     0.80985   0.47193   0.17494   0.00000  Uiso   1.00
H229   H     0.85861   0.11337   0.17900   0.00000  Uiso   1.00
H230   H     0.87120   0.38804   0.32409   0.00000  Uiso   1.00
H231   H     0.86615   0.03378   0.17893   0.00000  Uiso   1.00
H232   H     0.87937   0.46792   0.32443   0.00000  Uiso   1.00
H233   H     0.91357   0.26378   0.13488   0.00000  Uiso   1.00
H234   H     0.77467   0.20070   0.36640   0.00000  Uiso   1.00
H235   H     0.75346   0.23735   0.02382   0.00000  Uiso   1.00
H236   H     0.89044   0.29947   0.47319   0.00000  Uiso   1.00
N237   N     0.83333   0.25001   0.12935   0.00000  Uiso   1.00
N238   N     0.83333   0.24999   0.37066   0.00000  Uiso   1.00
O239   O     0.83334   0.18572   0.29072   0.00000  Uiso   1.00
O240   O     0.83333   0.31427   0.20929   0.00000  Uiso   1.00
O241   O     0.83334   0.18573   0.20928   0.00000  Uiso   1.00
O242   O     0.83333   0.31427   0.29072   0.00000  Uiso   1.00
O243   O     0.75828   0.24999   0.28132   0.00000  Uiso   1.00
O244   O     0.90839   0.25000   0.21868   0.00000  Uiso   1.00
O245   O     0.75828   0.25000   0.19989   0.00000  Uiso   1.00
O246   O     0.90839   0.25000   0.30012   0.00000  Uiso   1.00
N247   N     0.99222   0.29722   0.20446   0.00000  Uiso   1.00
H248   H     0.96630   0.31573   0.21985   0.00000  Uiso   1.00
C249   C     0.69178   0.32459   0.17812   0.00000  Uiso   1.00
H250   H     0.66891   0.35126   0.15891   0.00000  Uiso   1.00
H251   H     0.70737   0.30509   0.15024   0.00000  Uiso   1.00
H252   H     0.72338   0.33999   0.20359   0.00000  Uiso   1.00
N253   N     0.67486   0.20471   0.29651   0.00000  Uiso   1.00
H254   H     0.69631   0.18342   0.27921   0.00000  Uiso   1.00
C255   C     0.97827   0.18252   0.32999   0.00000  Uiso   1.00
H256   H     0.66827   0.15682   0.35028   0.00000  Uiso   1.00
H257   H     0.94331   0.16626   0.31004   0.00000  Uiso   1.00
H258   H     0.96783   0.20612   0.35704   0.00000  Uiso   1.00
N259   N     0.81300   0.11139   0.33428   0.00000  Uiso   1.00
H260   H     0.83664   0.10332   0.36560   0.00000  Uiso   1.00
C261   C     0.75923   0.10436   0.33928   0.00000  Uiso   1.00
H262   H     0.75051   0.06882   0.34504   0.00000  Uiso   1.00
H263   H     0.73462   0.11610   0.30637   0.00000  Uiso   1.00
H264   H     0.75015   0.12283   0.37110   0.00000  Uiso   1.00
N265   N     0.80048   0.38632   0.16210   0.00000  Uiso   1.00
H266   H     0.76685   0.40005   0.14591   0.00000  Uiso   1.00
C267   C     0.83699   0.38135   0.12806   0.00000  Uiso   1.00
H268   H     0.84835   0.41414   0.11426   0.00000  Uiso   1.00
H269   H     0.81907   0.36095   0.09701   0.00000  Uiso   1.00
H270   H     0.87194   0.36458   0.14546   0.00000  Uiso   1.00
N271   N     0.93051   0.25590   0.04415   0.00000  Uiso   1.00
H272   H     0.95806   0.27379   0.06648   0.00000  Uiso   1.00
C273   C     0.94907   0.21380   0.03085   0.00000  Uiso   1.00
H274   H     0.98631   0.21889   0.01655   0.00000  Uiso   1.00
H275   H     0.92143   0.19771   0.00213   0.00000  Uiso   1.00
H276   H     0.95502   0.19176   0.06304   0.00000  Uiso   1.00
N277   N     0.76993   0.18461   0.45980   0.00000  Uiso   1.00
H278   H     0.73725   0.17588   0.43653   0.00000  Uiso   1.00
C279   C     0.79747   0.14662   0.48004   0.00000  Uiso   1.00
H280   H     0.81503   0.12945   0.45147   0.00000  Uiso   1.00
H281   H     0.77032   0.12335   0.49516   0.00000  Uiso   1.00
H282   H     0.82809   0.15656   0.00979   0.00000  Uiso   1.00
N283   N     0.74330   0.22546   0.11442   0.00000  Uiso   1.00
H284   H     0.71125   0.24109   0.09760   0.00000  Uiso   1.00
C285   C     0.73564   0.17805   0.11436   0.00000  Uiso   1.00
H286   H     0.72909   0.16546   0.07657   0.00000  Uiso   1.00
H287   H     0.70141   0.16930   0.13228   0.00000  Uiso   1.00
H288   H     0.76956   0.16187   0.13449   0.00000  Uiso   1.00
N289   N     0.90701   0.30243   0.38350   0.00000  Uiso   1.00
H290   H     0.90212   0.31421   0.34884   0.00000  Uiso   1.00
C291   C     0.96008   0.29534   0.40383   0.00000  Uiso   1.00
H292   H     0.98293   0.28709   0.37450   0.00000  Uiso   1.00
H293   H     0.96360   0.26795   0.43072   0.00000  Uiso   1.00
H294   H     0.97664   0.32604   0.42178   0.00000  Uiso   1.00
C295   C     0.16694   0.66488   0.25030   0.00000  Uiso   1.00
C296   C     0.16732   0.83505   0.24972   0.00000  Uiso   1.00
C297   C     0.21467   0.75368   0.06044   0.00000  Uiso   1.00
C298   C     0.13475   0.71776   0.44120   0.00000  Uiso   1.00
C299   C     0.21185   0.75718   0.11075   0.00000  Uiso   1.00
C300   C     0.13384   0.72168   0.39032   0.00000  Uiso   1.00
C301   C     0.12279   0.74005   0.09759   0.00000  Uiso   1.00
C302   C     0.20131   0.77563   0.40104   0.00000  Uiso   1.00
C303   C     0.12298   0.74181   0.04723   0.00000  Uiso   1.00
C304   C     0.19937   0.77594   0.45113   0.00000  Uiso   1.00
C305   C     0.16883   0.74699   0.02736   0.00000  Uiso   1.00
C306   C     0.16761   0.74634   0.47270   0.00000  Uiso   1.00
C307   C     0.06824   0.75258   0.23795   0.00000  Uiso   1.00
C308   C     0.26511   0.74788   0.26212   0.00000  Uiso   1.00
C309   C     0.01376   0.76129   0.23422   0.00000  Uiso   1.00
C310   C     0.31969   0.74012   0.26629   0.00000  Uiso   1.00
C311   C     0.16578   0.54567   0.29194   0.00000  Uiso   1.00
C312   C     0.15779   0.95366   0.20721   0.00000  Uiso   1.00
C313   C     0.16108   0.59137   0.29248   0.00000  Uiso   1.00
C314   C     0.15474   0.90766   0.20599   0.00000  Uiso   1.00
C315   C     0.17006   0.61651   0.25130   0.00000  Uiso   1.00
C316   C     0.17059   0.88341   0.24881   0.00000  Uiso   1.00
C317   C     0.18404   0.59497   0.21075   0.00000  Uiso   1.00
C318   C     0.19124   0.90585   0.29115   0.00000  Uiso   1.00
C319   C     0.18845   0.54941   0.21066   0.00000  Uiso   1.00
C320   C     0.19579   0.95158   0.29140   0.00000  Uiso   1.00
C321   C     0.17861   0.52436   0.25102   0.00000  Uiso   1.00
C322   C     0.17839   0.97587   0.24966   0.00000  Uiso   1.00
Cu323  Cu    0.16667   0.74999   0.29822   0.00000  Uiso   1.00
Cu324  Cu    0.16667   0.75000   0.20179   0.00000  Uiso   1.00
H325   H     0.15725   0.52673   0.32311   0.00000  Uiso   1.00
H326   H     0.14318   0.97193   0.17494   0.00000  Uiso   1.00
H327   H     0.19195   0.61337   0.17900   0.00000  Uiso   1.00
H328   H     0.20454   0.88804   0.32409   0.00000  Uiso   1.00
H329   H     0.19949   0.53378   0.17893   0.00000  Uiso   1.00
H330   H     0.21270   0.96792   0.32443   0.00000  Uiso   1.00
H331   H     0.24691   0.76378   0.13488   0.00000  Uiso   1.00
H332   H     0.10801   0.70070   0.36640   0.00000  Uiso   1.00
H333   H     0.08679   0.73735   0.02382   0.00000  Uiso   1.00
H334   H     0.22377   0.79947   0.47319   0.00000  Uiso   1.00
N335   N     0.16667   0.75001   0.12935   0.00000  Uiso   1.00
N336   N     0.16667   0.74999   0.37066   0.00000  Uiso   1.00
O337   O     0.16667   0.68572   0.29072   0.00000  Uiso   1.00
O338   O     0.16666   0.81427   0.20929   0.00000  Uiso   1.00
O339   O     0.16667   0.68573   0.20928   0.00000  Uiso   1.00
O340   O     0.16666   0.81427   0.29072   0.00000  Uiso   1.00
O341   O     0.09161   0.74999   0.28132   0.00000  Uiso   1.00
O342   O     0.24172   0.75000   0.21868   0.00000  Uiso   1.00
O343   O     0.09161   0.75000   0.19989   0.00000  Uiso   1.00
O344   O     0.24172   0.75000   0.30012   0.00000  Uiso   1.00
N345   N     0.32556   0.79722   0.20446   0.00000  Uiso   1.00
H346   H     0.29964   0.81573   0.21985   0.00000  Uiso   1.00
C347   C     0.02511   0.82459   0.17812   0.00000  Uiso   1.00
H348   H     0.00224   0.85126   0.15891   0.00000  Uiso   1.00
H349   H     0.04070   0.80509   0.15024   0.00000  Uiso   1.00
H350   H     0.05671   0.83999   0.20359   0.00000  Uiso   1.00
N351   N     0.00820   0.70471   0.29651   0.00000  Uiso   1.00
H352   H     0.02964   0.68342   0.27921   0.00000  Uiso   1.00
C353   C     0.31161   0.68252   0.32999   0.00000  Uiso   1.00
H354   H     0.00160   0.65682   0.35028   0.00000  Uiso   1.00
H355   H     0.27664   0.66626   0.31004   0.00000  Uiso   1.00
H356   H     0.30117   0.70612   0.35704   0.00000  Uiso   1.00
N357   N     0.14633   0.61139   0.33428   0.00000  Uiso   1.00
H358   H     0.16997   0.60332   0.36560   0.00000  Uiso   1.00
C359   C     0.09256   0.60436   0.33928   0.00000  Uiso   1.00
H360   H     0.08384   0.56882   0.34504   0.00000  Uiso   1.00
H361   H     0.06795   0.61610   0.30637   0.00000  Uiso   1.00
H362   H     0.08348   0.62283   0.37110   0.00000  Uiso   1.00
N363   N     0.13382   0.88632   0.16210   0.00000  Uiso   1.00
H364   H     0.10019   0.90005   0.14591   0.00000  Uiso   1.00
C365   C     0.17033   0.88135   0.12806   0.00000  Uiso   1.00
H366   H     0.18169   0.91414   0.11426   0.00000  Uiso   1.00
H367   H     0.15241   0.86095   0.09701   0.00000  Uiso   1.00
H368   H     0.20528   0.86458   0.14546   0.00000  Uiso   1.00
N369   N     0.26384   0.75590   0.04415   0.00000  Uiso   1.00
H370   H     0.29139   0.77379   0.06648   0.00000  Uiso   1.00
C371   C     0.28241   0.71380   0.03085   0.00000  Uiso   1.00
H372   H     0.31964   0.71889   0.01655   0.00000  Uiso   1.00
H373   H     0.25476   0.69771   0.00213   0.00000  Uiso   1.00
H374   H     0.28835   0.69176   0.06304   0.00000  Uiso   1.00
N375   N     0.10327   0.68461   0.45980   0.00000  Uiso   1.00
H376   H     0.07058   0.67588   0.43653   0.00000  Uiso   1.00
C377   C     0.13080   0.64662   0.48004   0.00000  Uiso   1.00
H378   H     0.14837   0.62945   0.45147   0.00000  Uiso   1.00
H379   H     0.10365   0.62335   0.49516   0.00000  Uiso   1.00
H380   H     0.16142   0.65656   0.00979   0.00000  Uiso   1.00
N381   N     0.07663   0.72546   0.11442   0.00000  Uiso   1.00
H382   H     0.04458   0.74109   0.09760   0.00000  Uiso   1.00
C383   C     0.06897   0.67805   0.11436   0.00000  Uiso   1.00
H384   H     0.06243   0.66546   0.07657   0.00000  Uiso   1.00
H385   H     0.03474   0.66930   0.13228   0.00000  Uiso   1.00
H386   H     0.10289   0.66187   0.13449   0.00000  Uiso   1.00
N387   N     0.24034   0.80243   0.38350   0.00000  Uiso   1.00
H388   H     0.23545   0.81421   0.34884   0.00000  Uiso   1.00
C389   C     0.29341   0.79534   0.40383   0.00000  Uiso   1.00
H390   H     0.31626   0.78709   0.37450   0.00000  Uiso   1.00
H391   H     0.29693   0.76795   0.43072   0.00000  Uiso   1.00
H392   H     0.30998   0.82604   0.42178   0.00000  Uiso   1.00
C393   C     0.50027   0.66488   0.25030   0.00000  Uiso   1.00
C394   C     0.50066   0.83505   0.24972   0.00000  Uiso   1.00
C395   C     0.54801   0.75368   0.06044   0.00000  Uiso   1.00
C396   C     0.46808   0.71776   0.44120   0.00000  Uiso   1.00
C397   C     0.54518   0.75718   0.11075   0.00000  Uiso   1.00
C398   C     0.46718   0.72168   0.39032   0.00000  Uiso   1.00
C399   C     0.45612   0.74005   0.09759   0.00000  Uiso   1.00
C400   C     0.53464   0.77563   0.40104   0.00000  Uiso   1.00
C401   C     0.45632   0.74181   0.04723   0.00000  Uiso   1.00
C402   C     0.53270   0.77594   0.45113   0.00000  Uiso   1.00
C403   C     0.50217   0.74699   0.02736   0.00000  Uiso   1.00
C404   C     0.50094   0.74634   0.47270   0.00000  Uiso   1.00
C405   C     0.40158   0.75258   0.23795   0.00000  Uiso   1.00
C406   C     0.59844   0.74788   0.26212   0.00000  Uiso   1.00
C407   C     0.34710   0.76129   0.23422   0.00000  Uiso   1.00
C408   C     0.65302   0.74012   0.26629   0.00000  Uiso   1.00
C409   C     0.49912   0.54567   0.29194   0.00000  Uiso   1.00
C410   C     0.49112   0.95366   0.20721   0.00000  Uiso   1.00
C411   C     0.49442   0.59137   0.29248   0.00000  Uiso   1.00
C412   C     0.48807   0.90766   0.20599   0.00000  Uiso   1.00
C413   C     0.50339   0.61651   0.25130   0.00000  Uiso   1.00
C414   C     0.50393   0.88341   0.24881   0.00000  Uiso   1.00
C415   C     0.51737   0.59497   0.21075   0.00000  Uiso   1.00
C416   C     0.52457   0.90585   0.29115   0.00000  Uiso   1.00
C417   C     0.52178   0.54941   0.21066   0.00000  Uiso   1.00
C418   C     0.52913   0.95158   0.29140   0.00000  Uiso   1.00
C419   C     0.51195   0.52436   0.25102   0.00000  Uiso   1.00
C420   C     0.51172   0.97587   0.24966   0.00000  Uiso   1.00
Cu421  Cu    0.50000   0.74999   0.29822   0.00000  Uiso   1.00
Cu422  Cu    0.50000   0.75000   0.20179   0.00000  Uiso   1.00
H423   H     0.49059   0.52673   0.32311   0.00000  Uiso   1.00
H424   H     0.47652   0.97193   0.17494   0.00000  Uiso   1.00
H425   H     0.52528   0.61337   0.17900   0.00000  Uiso   1.00
H426   H     0.53787   0.88804   0.32409   0.00000  Uiso   1.00
H427   H     0.53282   0.53378   0.17893   0.00000  Uiso   1.00
H428   H     0.54603   0.96792   0.32443   0.00000  Uiso   1.00
H429   H     0.58024   0.76378   0.13488   0.00000  Uiso   1.00
H430   H     0.44134   0.70070   0.36640   0.00000  Uiso   1.00
H431   H     0.42012   0.73735   0.02382   0.00000  Uiso   1.00
H432   H     0.55710   0.79947   0.47319   0.00000  Uiso   1.00
N433   N     0.50000   0.75001   0.12935   0.00000  Uiso   1.00
N434   N     0.50000   0.74999   0.37066   0.00000  Uiso   1.00
O435   O     0.50000   0.68572   0.29072   0.00000  Uiso   1.00
O436   O     0.50000   0.81427   0.20929   0.00000  Uiso   1.00
O437   O     0.50000   0.68573   0.20928   0.00000  Uiso   1.00
O438   O     0.50000   0.81427   0.29072   0.00000  Uiso   1.00
O439   O     0.42495   0.74999   0.28132   0.00000  Uiso   1.00
O440   O     0.57505   0.75000   0.21868   0.00000  Uiso   1.00
O441   O     0.42495   0.75000   0.19989   0.00000  Uiso   1.00
O442   O     0.57505   0.75000   0.30012   0.00000  Uiso   1.00
N443   N     0.65889   0.79722   0.20446   0.00000  Uiso   1.00
H444   H     0.63297   0.81573   0.21985   0.00000  Uiso   1.00
C445   C     0.35844   0.82459   0.17812   0.00000  Uiso   1.00
H446   H     0.33557   0.85126   0.15891   0.00000  Uiso   1.00
H447   H     0.37403   0.80509   0.15024   0.00000  Uiso   1.00
H448   H     0.39004   0.83999   0.20359   0.00000  Uiso   1.00
N449   N     0.34153   0.70471   0.29651   0.00000  Uiso   1.00
H450   H     0.36298   0.68342   0.27921   0.00000  Uiso   1.00
C451   C     0.64494   0.68252   0.32999   0.00000  Uiso   1.00
H452   H     0.33493   0.65682   0.35028   0.00000  Uiso   1.00
H453   H     0.60998   0.66626   0.31004   0.00000  Uiso   1.00
H454   H     0.63450   0.70612   0.35704   0.00000  Uiso   1.00
N455   N     0.47966   0.61139   0.33428   0.00000  Uiso   1.00
H456   H     0.50331   0.60332   0.36560   0.00000  Uiso   1.00
C457   C     0.42590   0.60436   0.33928   0.00000  Uiso   1.00
H458   H     0.41718   0.56882   0.34504   0.00000  Uiso   1.00
H459   H     0.40128   0.61610   0.30637   0.00000  Uiso   1.00
H460   H     0.41681   0.62283   0.37110   0.00000  Uiso   1.00
N461   N     0.46715   0.88632   0.16210   0.00000  Uiso   1.00
H462   H     0.43352   0.90005   0.14591   0.00000  Uiso   1.00
C463   C     0.50366   0.88135   0.12806   0.00000  Uiso   1.00
H464   H     0.51502   0.91414   0.11426   0.00000  Uiso   1.00
H465   H     0.48574   0.86095   0.09701   0.00000  Uiso   1.00
H466   H     0.53861   0.86458   0.14546   0.00000  Uiso   1.00
N467   N     0.59718   0.75590   0.04415   0.00000  Uiso   1.00
H468   H     0.62472   0.77379   0.06648   0.00000  Uiso   1.00
C469   C     0.61574   0.71380   0.03085   0.00000  Uiso   1.00
H470   H     0.65298   0.71889   0.01655   0.00000  Uiso   1.00
H471   H     0.58810   0.69771   0.00213   0.00000  Uiso   1.00
H472   H     0.62168   0.69176   0.06304   0.00000  Uiso   1.00
N473   N     0.43660   0.68461   0.45980   0.00000  Uiso   1.00
H474   H     0.40391   0.67588   0.43653   0.00000  Uiso   1.00
C475   C     0.46414   0.64662   0.48004   0.00000  Uiso   1.00
H476   H     0.48170   0.62945   0.45147   0.00000  Uiso   1.00
H477   H     0.43699   0.62335   0.49516   0.00000  Uiso   1.00
H478   H     0.49476   0.65656   0.00979   0.00000  Uiso   1.00
N479   N     0.40997   0.72546   0.11442   0.00000  Uiso   1.00
H480   H     0.37791   0.74109   0.09760   0.00000  Uiso   1.00
C481   C     0.40230   0.67805   0.11436   0.00000  Uiso   1.00
H482   H     0.39576   0.66546   0.07657   0.00000  Uiso   1.00
H483   H     0.36807   0.66930   0.13228   0.00000  Uiso   1.00
H484   H     0.43623   0.66187   0.13449   0.00000  Uiso   1.00
N485   N     0.57367   0.80243   0.38350   0.00000  Uiso   1.00
H486   H     0.56879   0.81421   0.34884   0.00000  Uiso   1.00
C487   C     0.62675   0.79534   0.40383   0.00000  Uiso   1.00
H488   H     0.64960   0.78709   0.37450   0.00000  Uiso   1.00
H489   H     0.63027   0.76795   0.43072   0.00000  Uiso   1.00
H490   H     0.64331   0.82604   0.42178   0.00000  Uiso   1.00
C491   C     0.83361   0.66488   0.25030   0.00000  Uiso   1.00
C492   C     0.83399   0.83505   0.24972   0.00000  Uiso   1.00
C493   C     0.88134   0.75368   0.06044   0.00000  Uiso   1.00
C494   C     0.80142   0.71776   0.44120   0.00000  Uiso   1.00
C495   C     0.87851   0.75718   0.11075   0.00000  Uiso   1.00
C496   C     0.80051   0.72168   0.39032   0.00000  Uiso   1.00
C497   C     0.78945   0.74005   0.09759   0.00000  Uiso   1.00
C498   C     0.86797   0.77563   0.40104   0.00000  Uiso   1.00
C499   C     0.78965   0.74181   0.04723   0.00000  Uiso   1.00
C500   C     0.86603   0.77594   0.45113   0.00000  Uiso   1.00
C501   C     0.83550   0.74699   0.02736   0.00000  Uiso   1.00
C502   C     0.83428   0.74634   0.47270   0.00000  Uiso   1.00
C503   C     0.73491   0.75258   0.23795   0.00000  Uiso   1.00
C504   C     0.93177   0.74788   0.26212   0.00000  Uiso   1.00
C505   C     0.68043   0.76129   0.23422   0.00000  Uiso   1.00
C506   C     0.98636   0.74012   0.26629   0.00000  Uiso   1.00
C507   C     0.83245   0.54567   0.29194   0.00000  Uiso   1.00
C508   C     0.82445   0.95366   0.20721   0.00000  Uiso   1.00
C509   C     0.82775   0.59137   0.29248   0.00000  Uiso   1.00
C510   C     0.82140   0.90766   0.20599   0.00000  Uiso   1.00
C511   C     0.83673   0.61651   0.25130   0.00000  Uiso   1.00
C512   C     0.83726   0.88341   0.24881   0.00000  Uiso   1.00
C513   C     0.85070   0.59497   0.21075   0.00000  Uiso   1.00
C514   C     0.85791   0.90585   0.29115   0.00000  Uiso   1.00
C515   C     0.85511   0.54941   0.21066   0.00000  Uiso   1.00
C516   C     0.86246   0.95158   0.29140   0.00000  Uiso   1.00
C517   C     0.84528   0.52436   0.25102   0.00000  Uiso   1.00
C518   C     0.84506   0.97587   0.24966   0.00000  Uiso   1.00
Cu519  Cu    0.83333   0.74999   0.29822   0.00000  Uiso   1.00
Cu520  Cu    0.83333   0.75000   0.20179   0.00000  Uiso   1.00
H521   H     0.82392   0.52673   0.32311   0.00000  Uiso   1.00
H522   H     0.80985   0.97193   0.17494   0.00000  Uiso   1.00
H523   H     0.85861   0.61337   0.17900   0.00000  Uiso   1.00
H524   H     0.87120   0.88804   0.32409   0.00000  Uiso   1.00
H525   H     0.86615   0.53378   0.17893   0.00000  Uiso   1.00
H526   H     0.87937   0.96792   0.32443   0.00000  Uiso   1.00
H527   H     0.91357   0.76378   0.13488   0.00000  Uiso   1.00
H528   H     0.77467   0.70070   0.36640   0.00000  Uiso   1.00
H529   H     0.75346   0.73735   0.02382   0.00000  Uiso   1.00
H530   H     0.89044   0.79947   0.47319   0.00000  Uiso   1.00
N531   N     0.83333   0.75001   0.12935   0.00000  Uiso   1.00
N532   N     0.83333   0.74999   0.37066   0.00000  Uiso   1.00
O533   O     0.83334   0.68572   0.29072   0.00000  Uiso   1.00
O534   O     0.83333   0.81427   0.20929   0.00000  Uiso   1.00
O535   O     0.83334   0.68573   0.20928   0.00000  Uiso   1.00
O536   O     0.83333   0.81427   0.29072   0.00000  Uiso   1.00
O537   O     0.75828   0.74999   0.28132   0.00000  Uiso   1.00
O538   O     0.90839   0.75000   0.21868   0.00000  Uiso   1.00
O539   O     0.75828   0.75000   0.19989   0.00000  Uiso   1.00
O540   O     0.90839   0.75000   0.30012   0.00000  Uiso   1.00
N541   N     0.99222   0.79722   0.20446   0.00000  Uiso   1.00
H542   H     0.96630   0.81573   0.21985   0.00000  Uiso   1.00
C543   C     0.69178   0.82459   0.17812   0.00000  Uiso   1.00
H544   H     0.66891   0.85126   0.15891   0.00000  Uiso   1.00
H545   H     0.70737   0.80509   0.15024   0.00000  Uiso   1.00
H546   H     0.72338   0.83999   0.20359   0.00000  Uiso   1.00
N547   N     0.67486   0.70471   0.29651   0.00000  Uiso   1.00
H548   H     0.69631   0.68342   0.27921   0.00000  Uiso   1.00
C549   C     0.97827   0.68252   0.32999   0.00000  Uiso   1.00
H550   H     0.66827   0.65682   0.35028   0.00000  Uiso   1.00
H551   H     0.94331   0.66626   0.31004   0.00000  Uiso   1.00
H552   H     0.96783   0.70612   0.35704   0.00000  Uiso   1.00
N553   N     0.81300   0.61139   0.33428   0.00000  Uiso   1.00
H554   H     0.83664   0.60332   0.36560   0.00000  Uiso   1.00
C555   C     0.75923   0.60436   0.33928   0.00000  Uiso   1.00
H556   H     0.75051   0.56882   0.34504   0.00000  Uiso   1.00
H557   H     0.73462   0.61610   0.30637   0.00000  Uiso   1.00
H558   H     0.75015   0.62283   0.37110   0.00000  Uiso   1.00
N559   N     0.80048   0.88632   0.16210   0.00000  Uiso   1.00
H560   H     0.76685   0.90005   0.14591   0.00000  Uiso   1.00
C561   C     0.83699   0.88135   0.12806   0.00000  Uiso   1.00
H562   H     0.84835   0.91414   0.11426   0.00000  Uiso   1.00
H563   H     0.81907   0.86095   0.09701   0.00000  Uiso   1.00
H564   H     0.87194   0.86458   0.14546   0.00000  Uiso   1.00
N565   N     0.93051   0.75590   0.04415   0.00000  Uiso   1.00
H566   H     0.95806   0.77379   0.06648   0.00000  Uiso   1.00
C567   C     0.94907   0.71380   0.03085   0.00000  Uiso   1.00
H568   H     0.98631   0.71889   0.01655   0.00000  Uiso   1.00
H569   H     0.92143   0.69771   0.00213   0.00000  Uiso   1.00
H570   H     0.95502   0.69176   0.06304   0.00000  Uiso   1.00
N571   N     0.76993   0.68461   0.45980   0.00000  Uiso   1.00
H572   H     0.73725   0.67588   0.43653   0.00000  Uiso   1.00
C573   C     0.79747   0.64662   0.48004   0.00000  Uiso   1.00
H574   H     0.81503   0.62945   0.45147   0.00000  Uiso   1.00
H575   H     0.77032   0.62335   0.49516   0.00000  Uiso   1.00
H576   H     0.82809   0.65656   0.00979   0.00000  Uiso   1.00
N577   N     0.74330   0.72546   0.11442   0.00000  Uiso   1.00
H578   H     0.71125   0.74109   0.09760   0.00000  Uiso   1.00
C579   C     0.73564   0.67805   0.11436   0.00000  Uiso   1.00
H580   H     0.72909   0.66546   0.07657   0.00000  Uiso   1.00
H581   H     0.70141   0.66930   0.13228   0.00000  Uiso   1.00
H582   H     0.76956   0.66187   0.13449   0.00000  Uiso   1.00
N583   N     0.90701   0.80243   0.38350   0.00000  Uiso   1.00
H584   H     0.90212   0.81421   0.34884   0.00000  Uiso   1.00
C585   C     0.96008   0.79534   0.40383   0.00000  Uiso   1.00
H586   H     0.98293   0.78709   0.37450   0.00000  Uiso   1.00
H587   H     0.96360   0.76795   0.43072   0.00000  Uiso   1.00
H588   H     0.97664   0.82604   0.42178   0.00000  Uiso   1.00
C589   C     0.16694   0.16488   0.75030   0.00000  Uiso   1.00
C590   C     0.16732   0.33505   0.74972   0.00000  Uiso   1.00
C591   C     0.21467   0.25368   0.56044   0.00000  Uiso   1.00
C592   C     0.13475   0.21776   0.94120   0.00000  Uiso   1.00
C593   C     0.21185   0.25718   0.61075   0.00000  Uiso   1.00
C594   C     0.13384   0.22168   0.89032   0.00000  Uiso   1.00
C595   C     0.12279   0.24005   0.59759   0.00000  Uiso   1.00
C596   C     0.20131   0.27563   0.90104   0.00000  Uiso   1.00
C597   C     0.12298   0.24181   0.54723   0.00000  Uiso   1.00
C598   C     0.19937   0.27594   0.95113   0.00000  Uiso   1.00
C599   C     0.16883   0.24699   0.52736   0.00000  Uiso   1.00
C600   C     0.16761   0.24634   0.97270   0.00000  Uiso   1.00
C601   C     0.06824   0.25258   0.73795   0.00000  Uiso   1.00
C602   C     0.26511   0.24788   0.76212   0.00000  Uiso   1.00
C603   C     0.01376   0.26129   0.73422   0.00000  Uiso   1.00
C604   C     0.31969   0.24012   0.76629   0.00000  Uiso   1.00
C605   C     0.16578   0.04567   0.79194   0.00000  Uiso   1.00
C606   C     0.15779   0.45366   0.70721   0.00000  Uiso   1.00
C607   C     0.16108   0.09137   0.79248   0.00000  Uiso   1.00
C608   C     0.15474   0.40766   0.70599   0.00000  Uiso   1.00
C609   C     0.17006   0.11651   0.75130   0.00000  Uiso   1.00
C610   C     0.17059   0.38341   0.74881   0.00000  Uiso   1.00
C611   C     0.18404   0.09497   0.71075   0.00000  Uiso   1.00
C612   C     0.19124   0.40585   0.79115   0.00000  Uiso   1.00
C613   C     0.18845   0.04941   0.71066   0.00000  Uiso   1.00
C614   C     0.19579   0.45158   0.79140   0.00000  Uiso   1.00
C615   C     0.17861   0.02436   0.75102   0.00000  Uiso   1.00
C616   C     0.17839   0.47587   0.74966   0.00000  Uiso   1.00
Cu617  Cu    0.16667   0.24999   0.79822   0.00000  Uiso   1.00
Cu618  Cu    0.16667   0.25000   0.70179   0.00000  Uiso   1.00
H619   H     0.15725   0.02673   0.82311   0.00000  Uiso   1.00
H620   H     0.14318   0.47193   0.67494   0.00000  Uiso   1.00
H621   H     0.19195   0.11337   0.67900   0.00000  Uiso   1.00
H622   H     0.20454   0.38804   0.82409   0.00000  Uiso   1.00
H623   H     0.19949   0.03378   0.67893   0.00000  Uiso   1.00
H624   H     0.21270   0.46792   0.82443   0.00000  Uiso   1.00
H625   H     0.24691   0.26378   0.63488   0.00000  Uiso   1.00
H626   H     0.10801   0.20070   0.86640   0.00000  Uiso   1.00
H627   H     0.08679   0.23735   0.52382   0.00000  Uiso   1.00
H628   H     0.22377   0.29947   0.97319   0.00000  Uiso   1.00
N629   N     0.16667   0.25001   0.62935   0.00000  Uiso   1.00
N630   N     0.16667   0.24999   0.87066   0.00000  Uiso   1.00
O631   O     0.16667   0.18572   0.79072   0.00000  Uiso   1.00
O632   O     0.16666   0.31427   0.70929   0.00000  Uiso   1.00
O633   O     0.16667   0.18573   0.70928   0.00000  Uiso   1.00
O634   O     0.16666   0.31427   0.79072   0.00000  Uiso   1.00
O635   O     0.09161   0.24999   0.78132   0.00000  Uiso   1.00
O636   O     0.24172   0.25000   0.71868   0.00000  Uiso   1.00
O637   O     0.09161   0.25000   0.69989   0.00000  Uiso   1.00
O638   O     0.24172   0.25000   0.80012   0.00000  Uiso   1.00
N639   N     0.32556   0.29722   0.70446   0.00000  Uiso   1.00
H640   H     0.29964   0.31573   0.71985   0.00000  Uiso   1.00
C641   C     0.02511   0.32459   0.67812   0.00000  Uiso   1.00
H642   H     0.00224   0.35126   0.65891   0.00000  Uiso   1.00
H643   H     0.04070   0.30509   0.65024   0.00000  Uiso   1.00
H644   H     0.05671   0.33999   0.70359   0.00000  Uiso   1.00
N645   N     0.00820   0.20471   0.79651   0.00000  Uiso   1.00
H646   H     0.02964   0.18342   0.77921   0.00000  Uiso   1.00
C647   C     0.31161   0.18252   0.82999   0.00000  Uiso   1.00
H648   H     0.00160   0.15682   0.85028   0.00000  Uiso   1.00
H649   H     0.27664   0.16626   0.81004   0.00000  Uiso   1.00
H650   H     0.30117   0.20612   0.85704   0.00000  Uiso   1.00
N651   N     0.14633   0.11139   0.83428   0.00000  Uiso   1.00
H652   H     0.16997   0.10332   0.86560   0.00000  Uiso   1.00
C653   C     0.09256   0.10436   0.83928   0.00000  Uiso   1.00
H654   H     0.08384   0.06882   0.84504   0.00000  Uiso   1.00
H655   H     0.06795   0.11610   0.80637   0.00000  Uiso   1.00
H656   H     0.08348   0.12283   0.87110   0.00000  Uiso   1.00
N657   N     0.13382   0.38632   0.66210   0.00000  Uiso   1.00
H658   H     0.10019   0.40005   0.64591   0.00000  Uiso   1.00
C659   C     0.17033   0.38135   0.62806   0.00000  Uiso   1.00
H660   H     0.18169   0.41414   0.61426   0.00000  Uiso   1.00
H661   H     0.15241   0.36095   0.59701   0.00000  Uiso   1.00
H662   H     0.20528   0.36458   0.64546   0.00000  Uiso   1.00
N663   N     0.26384   0.25590   0.54415   0.00000  Uiso   1.00
H664   H     0.29139   0.27379   0.56648   0.00000  Uiso   1.00
C665   C     0.28241   0.21380   0.53085   0.00000  Uiso   1.00
H666   H     0.31964   0.21889   0.51655   0.00000  Uiso   1.00
H667   H     0.25476   0.19771   0.50213   0.00000  Uiso   1.00
H668   H     0.28835   0.19176   0.56304   0.00000  Uiso   1.00
N669   N     0.10327   0.18461   0.95980   0.00000  Uiso   1.00
H670   H     0.07058   0.17588   0.93653   0.00000  Uiso   1.00
C671   C     0.13080   0.14662   0.98004   0.00000  Uiso   1.00
H672   H     0.14837   0.12945   0.95147   0.00000  Uiso   1.00
H673   H     0.10365   0.12335   0.99516   0.00000  Uiso   1.00
H674   H     0.16142   0.15656   0.50979   0.00000  Uiso   1.00
N675   N     0.07663   0.22546   0.61442   0.00000  Uiso   1.00
H676   H     0.04458   0.24109   0.59760   0.00000  Uiso   1.00
C677   C     0.06897   0.17805   0.61436   0.00000  Uiso   1.00
H678   H     0.06243   0.16546   0.57657   0.00000  Uiso   1.00
H679   H     0.03474   0.16930   0.63228   0.00000  Uiso   1.00
H680   H     0.10289   0.16187   0.63449   0.00000  Uiso   1.00
N681   N     0.24034   0.30243   0.88350   0.00000  Uiso   1.00
H682   H     0.23545   0.31421   0.84884   0.00000  Uiso   1.00
C683   C     0.29341   0.29534   0.90383   0.00000  Uiso   1.00
H684   H     0.31626   0.28709   0.87450   0.00000  Uiso   1.00
H685   H     0.29693   0.26795   0.93072   0.00000  Uiso   1.00
H686   H     0.30998   0.32604   0.92178   0.00000  Uiso   1.00
C687   C     0.50027   0.16488   0.75030   0.00000  Uiso   1.00
C688   C     0.50066   0.33505   0.74972   0.00000  Uiso   1.00
C689   C     0.54801   0.25368   0.56044   0.00000  Uiso   1.00
C690   C     0.46808   0.21776   0.94120   0.00000  Uiso   1.00
C691   C     0.54518   0.25718   0.61075   0.00000  Uiso   1.00
C692   C     0.46718   0.22168   0.89032   0.00000  Uiso   1.00
C693   C     0.45612   0.24005   0.59759   0.00000  Uiso   1.00
C694   C     0.53464   0.27563   0.90104   0.00000  Uiso   1.00
C695   C     0.45632   0.24181   0.54723   0.00000  Uiso   1.00
C696   C     0.53270   0.27594   0.95113   0.00000  Uiso   1.00
C697   C     0.50217   0.24699   0.52736   0.00000  Uiso   1.00
C698   C     0.50094   0.24634   0.97270   0.00000  Uiso   1.00
C699   C     0.40158   0.25258   0.73795   0.00000  Uiso   1.00
C700   C     0.59844   0.24788   0.76212   0.00000  Uiso   1.00
C701   C     0.34710   0.26129   0.73422   0.00000  Uiso   1.00
C702   C     0.65302   0.24012   0.76629   0.00000  Uiso   1.00
C703   C     0.49912   0.04567   0.79194   0.00000  Uiso   1.00
C704   C     0.49112   0.45366   0.70721   0.00000  Uiso   1.00
C705   C     0.49442   0.09137   0.79248   0.00000  Uiso   1.00
C706   C     0.48807   0.40766   0.70599   0.00000  Uiso   1.00
C707   C     0.50339   0.11651   0.75130   0.00000  Uiso   1.00
C708   C     0.50393   0.38341   0.74881   0.00000  Uiso   1.00
C709   C     0.51737   0.09497   0.71075   0.00000  Uiso   1.00
C710   C     0.52457   0.40585   0.79115   0.00000  Uiso   1.00
C711   C     0.52178   0.04941   0.71066   0.00000  Uiso   1.00
C712   C     0.52913   0.45158   0.79140   0.00000  Uiso   1.00
C713   C     0.51195   0.02436   0.75102   0.00000  Uiso   1.00
C714   C     0.51172   0.47587   0.74966   0.00000  Uiso   1.00
Cu715  Cu    0.50000   0.24999   0.79822   0.00000  Uiso   1.00
Cu716  Cu    0.50000   0.25000   0.70179   0.00000  Uiso   1.00
H717   H     0.49059   0.02673   0.82311   0.00000  Uiso   1.00
H718   H     0.47652   0.47193   0.67494   0.00000  Uiso   1.00
H719   H     0.52528   0.11337   0.67900   0.00000  Uiso   1.00
H720   H     0.53787   0.38804   0.82409   0.00000  Uiso   1.00
H721   H     0.53282   0.03378   0.67893   0.00000  Uiso   1.00
H722   H     0.54603   0.46792   0.82443   0.00000  Uiso   1.00
H723   H     0.58024   0.26378   0.63488   0.00000  Uiso   1.00
H724   H     0.44134   0.20070   0.86640   0.00000  Uiso   1.00
H725   H     0.42012   0.23735   0.52382   0.00000  Uiso   1.00
H726   H     0.55710   0.29947   0.97319   0.00000  Uiso   1.00
N727   N     0.50000   0.25001   0.62935   0.00000  Uiso   1.00
N728   N     0.50000   0.24999   0.87066   0.00000  Uiso   1.00
O729   O     0.50000   0.18572   0.79072   0.00000  Uiso   1.00
O730   O     0.50000   0.31427   0.70929   0.00000  Uiso   1.00
O731   O     0.50000   0.18573   0.70928   0.00000  Uiso   1.00
O732   O     0.50000   0.31427   0.79072   0.00000  Uiso   1.00
O733   O     0.42495   0.24999   0.78132   0.00000  Uiso   1.00
O734   O     0.57505   0.25000   0.71868   0.00000  Uiso   1.00
O735   O     0.42495   0.25000   0.69989   0.00000  Uiso   1.00
O736   O     0.57505   0.25000   0.80012   0.00000  Uiso   1.00
N737   N     0.65889   0.29722   0.70446   0.00000  Uiso   1.00
H738   H     0.63297   0.31573   0.71985   0.00000  Uiso   1.00
C739   C     0.35844   0.32459   0.67812   0.00000  Uiso   1.00
H740   H     0.33557   0.35126   0.65891   0.00000  Uiso   1.00
H741   H     0.37403   0.30509   0.65024   0.00000  Uiso   1.00
H742   H     0.39004   0.33999   0.70359   0.00000  Uiso   1.00
N743   N     0.34153   0.20471   0.79651   0.00000  Uiso   1.00
H744   H     0.36298   0.18342   0.77921   0.00000  Uiso   1.00
C745   C     0.64494   0.18252   0.82999   0.00000  Uiso   1.00
H746   H     0.33493   0.15682   0.85028   0.00000  Uiso   1.00
H747   H     0.60998   0.16626   0.81004   0.00000  Uiso   1.00
H748   H     0.63450   0.20612   0.85704   0.00000  Uiso   1.00
N749   N     0.47966   0.11139   0.83428   0.00000  Uiso   1.00
H750   H     0.50331   0.10332   0.86560   0.00000  Uiso   1.00
C751   C     0.42590   0.10436   0.83928   0.00000  Uiso   1.00
H752   H     0.41718   0.06882   0.84504   0.00000  Uiso   1.00
H753   H     0.40128   0.11610   0.80637   0.00000  Uiso   1.00
H754   H     0.41681   0.12283   0.87110   0.00000  Uiso   1.00
N755   N     0.46715   0.38632   0.66210   0.00000  Uiso   1.00
H756   H     0.43352   0.40005   0.64591   0.00000  Uiso   1.00
C757   C     0.50366   0.38135   0.62806   0.00000  Uiso   1.00
H758   H     0.51502   0.41414   0.61426   0.00000  Uiso   1.00
H759   H     0.48574   0.36095   0.59701   0.00000  Uiso   1.00
H760   H     0.53861   0.36458   0.64546   0.00000  Uiso   1.00
N761   N     0.59718   0.25590   0.54415   0.00000  Uiso   1.00
H762   H     0.62472   0.27379   0.56648   0.00000  Uiso   1.00
C763   C     0.61574   0.21380   0.53085   0.00000  Uiso   1.00
H764   H     0.65298   0.21889   0.51655   0.00000  Uiso   1.00
H765   H     0.58810   0.19771   0.50213   0.00000  Uiso   1.00
H766   H     0.62168   0.19176   0.56304   0.00000  Uiso   1.00
N767   N     0.43660   0.18461   0.95980   0.00000  Uiso   1.00
H768   H     0.40391   0.17588   0.93653   0.00000  Uiso   1.00
C769   C     0.46414   0.14662   0.98004   0.00000  Uiso   1.00
H770   H     0.48170   0.12945   0.95147   0.00000  Uiso   1.00
H771   H     0.43699   0.12335   0.99516   0.00000  Uiso   1.00
H772   H     0.49476   0.15656   0.50979   0.00000  Uiso   1.00
N773   N     0.40997   0.22546   0.61442   0.00000  Uiso   1.00
H774   H     0.37791   0.24109   0.59760   0.00000  Uiso   1.00
C775   C     0.40230   0.17805   0.61436   0.00000  Uiso   1.00
H776   H     0.39576   0.16546   0.57657   0.00000  Uiso   1.00
H777   H     0.36807   0.16930   0.63228   0.00000  Uiso   1.00
H778   H     0.43623   0.16187   0.63449   0.00000  Uiso   1.00
N779   N     0.57367   0.30243   0.88350   0.00000  Uiso   1.00
H780   H     0.56879   0.31421   0.84884   0.00000  Uiso   1.00
C781   C     0.62675   0.29534   0.90383   0.00000  Uiso   1.00
H782   H     0.64960   0.28709   0.87450   0.00000  Uiso   1.00
H783   H     0.63027   0.26795   0.93072   0.00000  Uiso   1.00
H784   H     0.64331   0.32604   0.92178   0.00000  Uiso   1.00
C785   C     0.83361   0.16488   0.75030   0.00000  Uiso   1.00
C786   C     0.83399   0.33505   0.74972   0.00000  Uiso   1.00
C787   C     0.88134   0.25368   0.56044   0.00000  Uiso   1.00
C788   C     0.80142   0.21776   0.94120   0.00000  Uiso   1.00
C789   C     0.87851   0.25718   0.61075   0.00000  Uiso   1.00
C790   C     0.80051   0.22168   0.89032   0.00000  Uiso   1.00
C791   C     0.78945   0.24005   0.59759   0.00000  Uiso   1.00
C792   C     0.86797   0.27563   0.90104   0.00000  Uiso   1.00
C793   C     0.78965   0.24181   0.54723   0.00000  Uiso   1.00
C794   C     0.86603   0.27594   0.95113   0.00000  Uiso   1.00
C795   C     0.83550   0.24699   0.52736   0.00000  Uiso   1.00
C796   C     0.83428   0.24634   0.97270   0.00000  Uiso   1.00
C797   C     0.73491   0.25258   0.73795   0.00000  Uiso   1.00
C798   C     0.93177   0.24788   0.76212   0.00000  Uiso   1.00
C799   C     0.68043   0.26129   0.73422   0.00000  Uiso   1.00
C800   C     0.98636   0.24012   0.76629   0.00000  Uiso   1.00
C801   C     0.83245   0.04567   0.79194   0.00000  Uiso   1.00
C802   C     0.82445   0.45366   0.70721   0.00000  Uiso   1.00
C803   C     0.82775   0.09137   0.79248   0.00000  Uiso   1.00
C804   C     0.82140   0.40766   0.70599   0.00000  Uiso   1.00
C805   C     0.83673   0.11651   0.75130   0.00000  Uiso   1.00
C806   C     0.83726   0.38341   0.74881   0.00000  Uiso   1.00
C807   C     0.85070   0.09497   0.71075   0.00000  Uiso   1.00
C808   C     0.85791   0.40585   0.79115   0.00000  Uiso   1.00
C809   C     0.85511   0.04941   0.71066   0.00000  Uiso   1.00
C810   C     0.86246   0.45158   0.79140   0.00000  Uiso   1.00
C811   C     0.84528   0.02436   0.75102   0.00000  Uiso   1.00
C812   C     0.84506   0.47587   0.74966   0.00000  Uiso   1.00
Cu813  Cu    0.83333   0.24999   0.79822   0.00000  Uiso   1.00
Cu814  Cu    0.83333   0.25000   0.70179   0.00000  Uiso   1.00
H815   H     0.82392   0.02673   0.82311   0.00000  Uiso   1.00
H816   H     0.80985   0.47193   0.67494   0.00000  Uiso   1.00
H817   H     0.85861   0.11337   0.67900   0.00000  Uiso   1.00
H818   H     0.87120   0.38804   0.82409   0.00000  Uiso   1.00
H819   H     0.86615   0.03378   0.67893   0.00000  Uiso   1.00
H820   H     0.87937   0.46792   0.82443   0.00000  Uiso   1.00
H821   H     0.91357   0.26378   0.63488   0.00000  Uiso   1.00
H822   H     0.77467   0.20070   0.86640   0.00000  Uiso   1.00
H823   H     0.75346   0.23735   0.52382   0.00000  Uiso   1.00
H824   H     0.89044   0.29947   0.97319   0.00000  Uiso   1.00
N825   N     0.83333   0.25001   0.62935   0.00000  Uiso   1.00
N826   N     0.83333   0.24999   0.87066   0.00000  Uiso   1.00
O827   O     0.83334   0.18572   0.79072   0.00000  Uiso   1.00
O828   O     0.83333   0.31427   0.70929   0.00000  Uiso   1.00
O829   O     0.83334   0.18573   0.70928   0.00000  Uiso   1.00
O830   O     0.83333   0.31427   0.79072   0.00000  Uiso   1.00
O831   O     0.75828   0.24999   0.78132   0.00000  Uiso   1.00
O832   O     0.90839   0.25000   0.71868   0.00000  Uiso   1.00
O833   O     0.75828   0.25000   0.69989   0.00000  Uiso   1.00
O834   O     0.90839   0.25000   0.80012   0.00000  Uiso   1.00
N835   N     0.99222   0.29722   0.70446   0.00000  Uiso   1.00
H836   H     0.96630   0.31573   0.71985   0.00000  Uiso   1.00
C837   C     0.69178   0.32459   0.67812   0.00000  Uiso   1.00
H838   H     0.66891   0.35126   0.65891   0.00000  Uiso   1.00
H839   H     0.70737   0.30509   0.65024   0.00000  Uiso   1.00
H840   H     0.72338   0.33999   0.70359   0.00000  Uiso   1.00
N841   N     0.67486   0.20471   0.79651   0.00000  Uiso   1.00
H842   H     0.69631   0.18342   0.77921   0.00000  Uiso   1.00
C843   C     0.97827   0.18252   0.82999   0.00000  Uiso   1.00
H844   H     0.66827   0.15682   0.85028   0.00000  Uiso   1.00
H845   H     0.94331   0.16626   0.81004   0.00000  Uiso   1.00
H846   H     0.96783   0.20612   0.85704   0.00000  Uiso   1.00
N847   N     0.81300   0.11139   0.83428   0.00000  Uiso   1.00
H848   H     0.83664   0.10332   0.86560   0.00000  Uiso   1.00
C849   C     0.75923   0.10436   0.83928   0.00000  Uiso   1.00
H850   H     0.75051   0.06882   0.84504   0.00000  Uiso   1.00
H851   H     0.73462   0.11610   0.80637   0.00000  Uiso   1.00
H852   H     0.75015   0.12283   0.87110   0.00000  Uiso   1.00
N853   N     0.80048   0.38632   0.66210   0.00000  Uiso   1.00
H854   H     0.76685   0.40005   0.64591   0.00000  Uiso   1.00
C855   C     0.83699   0.38135   0.62806   0.00000  Uiso   1.00
H856   H     0.84835   0.41414   0.61426   0.00000  Uiso   1.00
H857   H     0.81907   0.36095   0.59701   0.00000  Uiso   1.00
H858   H     0.87194   0.36458   0.64546   0.00000  Uiso   1.00
N859   N     0.93051   0.25590   0.54415   0.00000  Uiso   1.00
H860   H     0.95806   0.27379   0.56648   0.00000  Uiso   1.00
C861   C     0.94907   0.21380   0.53085   0.00000  Uiso   1.00
H862   H     0.98631   0.21889   0.51655   0.00000  Uiso   1.00
H863   H     0.92143   0.19771   0.50213   0.00000  Uiso   1.00
H864   H     0.95502   0.19176   0.56304   0.00000  Uiso   1.00
N865   N     0.76993   0.18461   0.95980   0.00000  Uiso   1.00
H866   H     0.73725   0.17588   0.93653   0.00000  Uiso   1.00
C867   C     0.79747   0.14662   0.98004   0.00000  Uiso   1.00
H868   H     0.81503   0.12945   0.95147   0.00000  Uiso   1.00
H869   H     0.77032   0.12335   0.99516   0.00000  Uiso   1.00
H870   H     0.82809   0.15656   0.50979   0.00000  Uiso   1.00
N871   N     0.74330   0.22546   0.61442   0.00000  Uiso   1.00
H872   H     0.71125   0.24109   0.59760   0.00000  Uiso   1.00
C873   C     0.73564   0.17805   0.61436   0.00000  Uiso   1.00
H874   H     0.72909   0.16546   0.57657   0.00000  Uiso   1.00
H875   H     0.70141   0.16930   0.63228   0.00000  Uiso   1.00
H876   H     0.76956   0.16187   0.63449   0.00000  Uiso   1.00
N877   N     0.90701   0.30243   0.88350   0.00000  Uiso   1.00
H878   H     0.90212   0.31421   0.84884   0.00000  Uiso   1.00
C879   C     0.96008   0.29534   0.90383   0.00000  Uiso   1.00
H880   H     0.98293   0.28709   0.87450   0.00000  Uiso   1.00
H881   H     0.96360   0.26795   0.93072   0.00000  Uiso   1.00
H882   H     0.97664   0.32604   0.92178   0.00000  Uiso   1.00
C883   C     0.16694   0.66488   0.75030   0.00000  Uiso   1.00
C884   C     0.16732   0.83505   0.74972   0.00000  Uiso   1.00
C885   C     0.21467   0.75368   0.56044   0.00000  Uiso   1.00
C886   C     0.13475   0.71776   0.94120   0.00000  Uiso   1.00
C887   C     0.21185   0.75718   0.61075   0.00000  Uiso   1.00
C888   C     0.13384   0.72168   0.89032   0.00000  Uiso   1.00
C889   C     0.12279   0.74005   0.59759   0.00000  Uiso   1.00
C890   C     0.20131   0.77563   0.90104   0.00000  Uiso   1.00
C891   C     0.12298   0.74181   0.54723   0.00000  Uiso   1.00
C892   C     0.19937   0.77594   0.95113   0.00000  Uiso   1.00
C893   C     0.16883   0.74699   0.52736   0.00000  Uiso   1.00
C894   C     0.16761   0.74634   0.97270   0.00000  Uiso   1.00
C895   C     0.06824   0.75258   0.73795   0.00000  Uiso   1.00
C896   C     0.26511   0.74788   0.76212   0.00000  Uiso   1.00
C897   C     0.01376   0.76129   0.73422   0.00000  Uiso   1.00
C898   C     0.31969   0.74012   0.76629   0.00000  Uiso   1.00
C899   C     0.16578   0.54567   0.79194   0.00000  Uiso   1.00
C900   C     0.15779   0.95366   0.70721   0.00000  Uiso   1.00
C901   C     0.16108   0.59137   0.79248   0.00000  Uiso   1.00
C902   C     0.15474   0.90766   0.70599   0.00000  Uiso   1.00
C903   C     0.17006   0.61651   0.75130   0.00000  Uiso   1.00
C904   C     0.17059   0.88341   0.74881   0.00000  Uiso   1.00
C905   C     0.18404   0.59497   0.71075   0.00000  Uiso   1.00
C906   C     0.19124   0.90585   0.79115   0.00000  Uiso   1.00
C907   C     0.18845   0.54941   0.71066   0.00000  Uiso   1.00
C908   C     0.19579   0.95158   0.79140   0.00000  Uiso   1.00
C909   C     0.17861   0.52436   0.75102   0.00000  Uiso   1.00
C910   C     0.17839   0.97587   0.74966   0.00000  Uiso   1.00
Cu911  Cu    0.16667   0.74999   0.79822   0.00000  Uiso   1.00
Cu912  Cu    0.16667   0.75000   0.70179   0.00000  Uiso   1.00
H913   H     0.15725   0.52673   0.82311   0.00000  Uiso   1.00
H914   H     0.14318   0.97193   0.67494   0.00000  Uiso   1.00
H915   H     0.19195   0.61337   0.67900   0.00000  Uiso   1.00
H916   H     0.20454   0.88804   0.82409   0.00000  Uiso   1.00
H917   H     0.19949   0.53378   0.67893   0.00000  Uiso   1.00
H918   H     0.21270   0.96792   0.82443   0.00000  Uiso   1.00
H919   H     0.24691   0.76378   0.63488   0.00000  Uiso   1.00
H920   H     0.10801   0.70070   0.86640   0.00000  Uiso   1.00
H921   H     0.08679   0.73735   0.52382   0.00000  Uiso   1.00
H922   H     0.22377   0.79947   0.97319   0.00000  Uiso   1.00
N923   N     0.16667   0.75001   0.62935   0.00000  Uiso   1.00
N924   N     0.16667   0.74999   0.87066   0.00000  Uiso   1.00
O925   O     0.16667   0.68572   0.79072   0.00000  Uiso   1.00
O926   O     0.16666   0.81427   0.70929   0.00000  Uiso   1.00
O927   O     0.16667   0.68573   0.70928   0.00000  Uiso   1.00
O928   O     0.16666   0.81427   0.79072   0.00000  Uiso   1.00
O929   O     0.09161   0.74999   0.78132   0.00000  Uiso   1.00
O930   O     0.24172   0.75000   0.71868   0.00000  Uiso   1.00
O931   O     0.09161   0.75000   0.69989   0.00000  Uiso   1.00
O932   O     0.24172   0.75000   0.80012   0.00000  Uiso   1.00
N933   N     0.32556   0.79722   0.70446   0.00000  Uiso   1.00
H934   H     0.29964   0.81573   0.71985   0.00000  Uiso   1.00
C935   C     0.02511   0.82459   0.67812   0.00000  Uiso   1.00
H936   H     0.00224   0.85126   0.65891   0.00000  Uiso   1.00
H937   H     0.04070   0.80509   0.65024   0.00000  Uiso   1.00
H938   H     0.05671   0.83999   0.70359   0.00000  Uiso   1.00
N939   N     0.00820   0.70471   0.79651   0.00000  Uiso   1.00
H940   H     0.02964   0.68342   0.77921   0.00000  Uiso   1.00
C941   C     0.31161   0.68252   0.82999   0.00000  Uiso   1.00
H942   H     0.00160   0.65682   0.85028   0.00000  Uiso   1.00
H943   H     0.27664   0.66626   0.81004   0.00000  Uiso   1.00
H944   H     0.30117   0.70612   0.85704   0.00000  Uiso   1.00
N945   N     0.14633   0.61139   0.83428   0.00000  Uiso   1.00
H946   H     0.16997   0.60332   0.86560   0.00000  Uiso   1.00
C947   C     0.09256   0.60436   0.83928   0.00000  Uiso   1.00
H948   H     0.08384   0.56882   0.84504   0.00000  Uiso   1.00
H949   H     0.06795   0.61610   0.80637   0.00000  Uiso   1.00
H950   H     0.08348   0.62283   0.87110   0.00000  Uiso   1.00
N951   N     0.13382   0.88632   0.66210   0.00000  Uiso   1.00
H952   H     0.10019   0.90005   0.64591   0.00000  Uiso   1.00
C953   C     0.17033   0.88135   0.62806   0.00000  Uiso   1.00
H954   H     0.18169   0.91414   0.61426   0.00000  Uiso   1.00
H955   H     0.15241   0.86095   0.59701   0.00000  Uiso   1.00
H956   H     0.20528   0.86458   0.64546   0.00000  Uiso   1.00
N957   N     0.26384   0.75590   0.54415   0.00000  Uiso   1.00
H958   H     0.29139   0.77379   0.56648   0.00000  Uiso   1.00
C959   C     0.28241   0.71380   0.53085   0.00000  Uiso   1.00
H960   H     0.31964   0.71889   0.51655   0.00000  Uiso   1.00
H961   H     0.25476   0.69771   0.50213   0.00000  Uiso   1.00
H962   H     0.28835   0.69176   0.56304   0.00000  Uiso   1.00
N963   N     0.10327   0.68461   0.95980   0.00000  Uiso   1.00
H964   H     0.07058   0.67588   0.93653   0.00000  Uiso   1.00
C965   C     0.13080   0.64662   0.98004   0.00000  Uiso   1.00
H966   H     0.14837   0.62945   0.95147   0.00000  Uiso   1.00
H967   H     0.10365   0.62335   0.99516   0.00000  Uiso   1.00
H968   H     0.16142   0.65656   0.50979   0.00000  Uiso   1.00
N969   N     0.07663   0.72546   0.61442   0.00000  Uiso   1.00
H970   H     0.04458   0.74109   0.59760   0.00000  Uiso   1.00
C971   C     0.06897   0.67805   0.61436   0.00000  Uiso   1.00
H972   H     0.06243   0.66546   0.57657   0.00000  Uiso   1.00
H973   H     0.03474   0.66930   0.63228   0.00000  Uiso   1.00
H974   H     0.10289   0.66187   0.63449   0.00000  Uiso   1.00
N975   N     0.24034   0.80243   0.88350   0.00000  Uiso   1.00
H976   H     0.23545   0.81421   0.84884   0.00000  Uiso   1.00
C977   C     0.29341   0.79534   0.90383   0.00000  Uiso   1.00
H978   H     0.31626   0.78709   0.87450   0.00000  Uiso   1.00
H979   H     0.29693   0.76795   0.93072   0.00000  Uiso   1.00
H980   H     0.30998   0.82604   0.92178   0.00000  Uiso   1.00
C981   C     0.50027   0.66488   0.75030   0.00000  Uiso   1.00
C982   C     0.50066   0.83505   0.74972   0.00000  Uiso   1.00
C983   C     0.54801   0.75368   0.56044   0.00000  Uiso   1.00
C984   C     0.46808   0.71776   0.94120   0.00000  Uiso   1.00
C985   C     0.54518   0.75718   0.61075   0.00000  Uiso   1.00
C986   C     0.46718   0.72168   0.89032   0.00000  Uiso   1.00
C987   C     0.45612   0.74005   0.59759   0.00000  Uiso   1.00
C988   C     0.53464   0.77563   0.90104   0.00000  Uiso   1.00
C989   C     0.45632   0.74181   0.54723   0.00000  Uiso   1.00
C990   C     0.53270   0.77594   0.95113   0.00000  Uiso   1.00
C991   C     0.50217   0.74699   0.52736   0.00000  Uiso   1.00
C992   C     0.50094   0.74634   0.97270   0.00000  Uiso   1.00
C993   C     0.40158   0.75258   0.73795   0.00000  Uiso   1.00
C994   C     0.59844   0.74788   0.76212   0.00000  Uiso   1.00
C995   C     0.34710   0.76129   0.73422   0.00000  Uiso   1.00
C996   C     0.65302   0.74012   0.76629   0.00000  Uiso   1.00
C997   C     0.49912   0.54567   0.79194   0.00000  Uiso   1.00
C998   C     0.49112   0.95366   0.70721   0.00000  Uiso   1.00
C999   C     0.49442   0.59137   0.79248   0.00000  Uiso   1.00
C1000  C     0.48807   0.90766   0.70599   0.00000  Uiso   1.00
C1001  C     0.50339   0.61651   0.75130   0.00000  Uiso   1.00
C1002  C     0.50393   0.88341   0.74881   0.00000  Uiso   1.00
C1003  C     0.51737   0.59497   0.71075   0.00000  Uiso   1.00
C1004  C     0.52457   0.90585   0.79115   0.00000  Uiso   1.00
C1005  C     0.52178   0.54941   0.71066   0.00000  Uiso   1.00
C1006  C     0.52913   0.95158   0.79140   0.00000  Uiso   1.00
C1007  C     0.51195   0.52436   0.75102   0.00000  Uiso   1.00
C1008  C     0.51172   0.97587   0.74966   0.00000  Uiso   1.00
Cu1009 Cu    0.50000   0.74999   0.79822   0.00000  Uiso   1.00
Cu1010 Cu    0.50000   0.75000   0.70179   0.00000  Uiso   1.00
H1011  H     0.49059   0.52673   0.82311   0.00000  Uiso   1.00
H1012  H     0.47652   0.97193   0.67494   0.00000  Uiso   1.00
H1013  H     0.52528   0.61337   0.67900   0.00000  Uiso   1.00
H1014  H     0.53787   0.88804   0.82409   0.00000  Uiso   1.00
H1015  H     0.53282   0.53378   0.67893   0.00000  Uiso   1.00
H1016  H     0.54603   0.96792   0.82443   0.00000  Uiso   1.00
H1017  H     0.58024   0.76378   0.63488   0.00000  Uiso   1.00
H1018  H     0.44134   0.70070   0.86640   0.00000  Uiso   1.00
H1019  H     0.42012   0.73735   0.52382   0.00000  Uiso   1.00
H1020  H     0.55710   0.79947   0.97319   0.00000  Uiso   1.00
N1021  N     0.50000   0.75001   0.62935   0.00000  Uiso   1.00
N1022  N     0.50000   0.74999   0.87066   0.00000  Uiso   1.00
O1023  O     0.50000   0.68572   0.79072   0.00000  Uiso   1.00
O1024  O     0.50000   0.81427   0.70929   0.00000  Uiso   1.00
O1025  O     0.50000   0.68573   0.70928   0.00000  Uiso   1.00
O1026  O     0.50000   0.81427   0.79072   0.00000  Uiso   1.00
O1027  O     0.42495   0.74999   0.78132   0.00000  Uiso   1.00
O1028  O     0.57505   0.75000   0.71868   0.00000  Uiso   1.00
O1029  O     0.42495   0.75000   0.69989   0.00000  Uiso   1.00
O1030  O     0.57505   0.75000   0.80012   0.00000  Uiso   1.00
N1031  N     0.65889   0.79722   0.70446   0.00000  Uiso   1.00
H1032  H     0.63297   0.81573   0.71985   0.00000  Uiso   1.00
C1033  C     0.35844   0.82459   0.67812   0.00000  Uiso   1.00
H1034  H     0.33557   0.85126   0.65891   0.00000  Uiso   1.00
H1035  H     0.37403   0.80509   0.65024   0.00000  Uiso   1.00
H1036  H     0.39004   0.83999   0.70359   0.00000  Uiso   1.00
N1037  N     0.34153   0.70471   0.79651   0.00000  Uiso   1.00
H1038  H     0.36298   0.68342   0.77921   0.00000  Uiso   1.00
C1039  C     0.64494   0.68252   0.82999   0.00000  Uiso   1.00
H1040  H     0.33493   0.65682   0.85028   0.00000  Uiso   1.00
H1041  H     0.60998   0.66626   0.81004   0.00000  Uiso   1.00
H1042  H     0.63450   0.70612   0.85704   0.00000  Uiso   1.00
N1043  N     0.47966   0.61139   0.83428   0.00000  Uiso   1.00
H1044  H     0.50331   0.60332   0.86560   0.00000  Uiso   1.00
C1045  C     0.42590   0.60436   0.83928   0.00000  Uiso   1.00
H1046  H     0.41718   0.56882   0.84504   0.00000  Uiso   1.00
H1047  H     0.40128   0.61610   0.80637   0.00000  Uiso   1.00
H1048  H     0.41681   0.62283   0.87110   0.00000  Uiso   1.00
N1049  N     0.46715   0.88632   0.66210   0.00000  Uiso   1.00
H1050  H     0.43352   0.90005   0.64591   0.00000  Uiso   1.00
C1051  C     0.50366   0.88135   0.62806   0.00000  Uiso   1.00
H1052  H     0.51502   0.91414   0.61426   0.00000  Uiso   1.00
H1053  H     0.48574   0.86095   0.59701   0.00000  Uiso   1.00
H1054  H     0.53861   0.86458   0.64546   0.00000  Uiso   1.00
N1055  N     0.59718   0.75590   0.54415   0.00000  Uiso   1.00
H1056  H     0.62472   0.77379   0.56648   0.00000  Uiso   1.00
C1057  C     0.61574   0.71380   0.53085   0.00000  Uiso   1.00
H1058  H     0.65298   0.71889   0.51655   0.00000  Uiso   1.00
H1059  H     0.58810   0.69771   0.50213   0.00000  Uiso   1.00
H1060  H     0.62168   0.69176   0.56304   0.00000  Uiso   1.00
N1061  N     0.43660   0.68461   0.95980   0.00000  Uiso   1.00
H1062  H     0.40391   0.67588   0.93653   0.00000  Uiso   1.00
C1063  C     0.46414   0.64662   0.98004   0.00000  Uiso   1.00
H1064  H     0.48170   0.62945   0.95147   0.00000  Uiso   1.00
H1065  H     0.43699   0.62335   0.99516   0.00000  Uiso   1.00
H1066  H     0.49476   0.65656   0.50979   0.00000  Uiso   1.00
N1067  N     0.40997   0.72546   0.61442   0.00000  Uiso   1.00
H1068  H     0.37791   0.74109   0.59760   0.00000  Uiso   1.00
C1069  C     0.40230   0.67805   0.61436   0.00000  Uiso   1.00
H1070  H     0.39576   0.66546   0.57657   0.00000  Uiso   1.00
H1071  H     0.36807   0.66930   0.63228   0.00000  Uiso   1.00
H1072  H     0.43623   0.66187   0.63449   0.00000  Uiso   1.00
N1073  N     0.57367   0.80243   0.88350   0.00000  Uiso   1.00
H1074  H     0.56879   0.81421   0.84884   0.00000  Uiso   1.00
C1075  C     0.62675   0.79534   0.90383   0.00000  Uiso   1.00
H1076  H     0.64960   0.78709   0.87450   0.00000  Uiso   1.00
H1077  H     0.63027   0.76795   0.93072   0.00000  Uiso   1.00
H1078  H     0.64331   0.82604   0.92178   0.00000  Uiso   1.00
C1079  C     0.83361   0.66488   0.75030   0.00000  Uiso   1.00
C1080  C     0.83399   0.83505   0.74972   0.00000  Uiso   1.00
C1081  C     0.88134   0.75368   0.56044   0.00000  Uiso   1.00
C1082  C     0.80142   0.71776   0.94120   0.00000  Uiso   1.00
C1083  C     0.87851   0.75718   0.61075   0.00000  Uiso   1.00
C1084  C     0.80051   0.72168   0.89032   0.00000  Uiso   1.00
C1085  C     0.78945   0.74005   0.59759   0.00000  Uiso   1.00
C1086  C     0.86797   0.77563   0.90104   0.00000  Uiso   1.00
C1087  C     0.78965   0.74181   0.54723   0.00000  Uiso   1.00
C1088  C     0.86603   0.77594   0.95113   0.00000  Uiso   1.00
C1089  C     0.83550   0.74699   0.52736   0.00000  Uiso   1.00
C1090  C     0.83428   0.74634   0.97270   0.00000  Uiso   1.00
C1091  C     0.73491   0.75258   0.73795   0.00000  Uiso   1.00
C1092  C     0.93177   0.74788   0.76212   0.00000  Uiso   1.00
C1093  C     0.68043   0.76129   0.73422   0.00000  Uiso   1.00
C1094  C     0.98636   0.74012   0.76629   0.00000  Uiso   1.00
C1095  C     0.83245   0.54567   0.79194   0.00000  Uiso   1.00
C1096  C     0.82445   0.95366   0.70721   0.00000  Uiso   1.00
C1097  C     0.82775   0.59137   0.79248   0.00000  Uiso   1.00
C1098  C     0.82140   0.90766   0.70599   0.00000  Uiso   1.00
C1099  C     0.83673   0.61651   0.75130   0.00000  Uiso   1.00
C1100  C     0.83726   0.88341   0.74881   0.00000  Uiso   1.00
C1101  C     0.85070   0.59497   0.71075   0.00000  Uiso   1.00
C1102  C     0.85791   0.90585   0.79115   0.00000  Uiso   1.00
C1103  C     0.85511   0.54941   0.71066   0.00000  Uiso   1.00
C1104  C     0.86246   0.95158   0.79140   0.00000  Uiso   1.00
C1105  C     0.84528   0.52436   0.75102   0.00000  Uiso   1.00
C1106  C     0.84506   0.97587   0.74966   0.00000  Uiso   1.00
Cu1107 Cu    0.83333   0.74999   0.79822   0.00000  Uiso   1.00
Cu1108 Cu    0.83333   0.75000   0.70179   0.00000  Uiso   1.00
H1109  H     0.82392   0.52673   0.82311   0.00000  Uiso   1.00
H1110  H     0.80985   0.97193   0.67494   0.00000  Uiso   1.00
H1111  H     0.85861   0.61337   0.67900   0.00000  Uiso   1.00
H1112  H     0.87120   0.88804   0.82409   0.00000  Uiso   1.00
H1113  H     0.86615   0.53378   0.67893   0.00000  Uiso   1.00
H1114  H     0.87937   0.96792   0.82443   0.00000  Uiso   1.00
H1115  H     0.91357   0.76378   0.63488   0.00000  Uiso   1.00
H1116  H     0.77467   0.70070   0.86640   0.00000  Uiso   1.00
H1117  H     0.75346   0.73735   0.52382   0.00000  Uiso   1.00
H1118  H     0.89044   0.79947   0.97319   0.00000  Uiso   1.00
N1119  N     0.83333   0.75001   0.62935   0.00000  Uiso   1.00
N1120  N     0.83333   0.74999   0.87066   0.00000  Uiso   1.00
O1121  O     0.83334   0.68572   0.79072   0.00000  Uiso   1.00
O1122  O     0.83333   0.81427   0.70929   0.00000  Uiso   1.00
O1123  O     0.83334   0.68573   0.70928   0.00000  Uiso   1.00
O1124  O     0.83333   0.81427   0.79072   0.00000  Uiso   1.00
O1125  O     0.75828   0.74999   0.78132   0.00000  Uiso   1.00
O1126  O     0.90839   0.75000   0.71868   0.00000  Uiso   1.00
O1127  O     0.75828   0.75000   0.69989   0.00000  Uiso   1.00
O1128  O     0.90839   0.75000   0.80012   0.00000  Uiso   1.00
N1129  N     0.99222   0.79722   0.70446   0.00000  Uiso   1.00
H1130  H     0.96630   0.81573   0.71985   0.00000  Uiso   1.00
C1131  C     0.69178   0.82459   0.67812   0.00000  Uiso   1.00
H1132  H     0.66891   0.85126   0.65891   0.00000  Uiso   1.00
H1133  H     0.70737   0.80509   0.65024   0.00000  Uiso   1.00
H1134  H     0.72338   0.83999   0.70359   0.00000  Uiso   1.00
N1135  N     0.67486   0.70471   0.79651   0.00000  Uiso   1.00
H1136  H     0.69631   0.68342   0.77921   0.00000  Uiso   1.00
C1137  C     0.97827   0.68252   0.82999   0.00000  Uiso   1.00
H1138  H     0.66827   0.65682   0.85028   0.00000  Uiso   1.00
H1139  H     0.94331   0.66626   0.81004   0.00000  Uiso   1.00
H1140  H     0.96783   0.70612   0.85704   0.00000  Uiso   1.00
N1141  N     0.81300   0.61139   0.83428   0.00000  Uiso   1.00
H1142  H     0.83664   0.60332   0.86560   0.00000  Uiso   1.00
C1143  C     0.75923   0.60436   0.83928   0.00000  Uiso   1.00
H1144  H     0.75051   0.56882   0.84504   0.00000  Uiso   1.00
H1145  H     0.73462   0.61610   0.80637   0.00000  Uiso   1.00
H1146  H     0.75015   0.62283   0.87110   0.00000  Uiso   1.00
N1147  N     0.80048   0.88632   0.66210   0.00000  Uiso   1.00
H1148  H     0.76685   0.90005   0.64591   0.00000  Uiso   1.00
C1149  C     0.83699   0.88135   0.62806   0.00000  Uiso   1.00
H1150  H     0.84835   0.91414   0.61426   0.00000  Uiso   1.00
H1151  H     0.81907   0.86095   0.59701   0.00000  Uiso   1.00
H1152  H     0.87194   0.86458   0.64546   0.00000  Uiso   1.00
N1153  N     0.93051   0.75590   0.54415   0.00000  Uiso   1.00
H1154  H     0.95806   0.77379   0.56648   0.00000  Uiso   1.00
C1155  C     0.94907   0.71380   0.53085   0.00000  Uiso   1.00
H1156  H     0.98631   0.71889   0.51655   0.00000  Uiso   1.00
H1157  H     0.92143   0.69771   0.50213   0.00000  Uiso   1.00
H1158  H     0.95502   0.69176   0.56304   0.00000  Uiso   1.00
N1159  N     0.76993   0.68461   0.95980   0.00000  Uiso   1.00
H1160  H     0.73725   0.67588   0.93653   0.00000  Uiso   1.00
C1161  C     0.79747   0.64662   0.98004   0.00000  Uiso   1.00
H1162  H     0.81503   0.62945   0.95147   0.00000  Uiso   1.00
H1163  H     0.77032   0.62335   0.99516   0.00000  Uiso   1.00
H1164  H     0.82809   0.65656   0.50979   0.00000  Uiso   1.00
N1165  N     0.74330   0.72546   0.61442   0.00000  Uiso   1.00
H1166  H     0.71125   0.74109   0.59760   0.00000  Uiso   1.00
C1167  C     0.73564   0.67805   0.61436   0.00000  Uiso   1.00
H1168  H     0.72909   0.66546   0.57657   0.00000  Uiso   1.00
H1169  H     0.70141   0.66930   0.63228   0.00000  Uiso   1.00
H1170  H     0.76956   0.66187   0.63449   0.00000  Uiso   1.00
N1171  N     0.90701   0.80243   0.88350   0.00000  Uiso   1.00
H1172  H     0.90212   0.81421   0.84884   0.00000  Uiso   1.00
C1173  C     0.96008   0.79534   0.90383   0.00000  Uiso   1.00
H1174  H     0.98293   0.78709   0.87450   0.00000  Uiso   1.00
H1175  H     0.96360   0.76795   0.93072   0.00000  Uiso   1.00
H1176  H     0.97664   0.82604   0.92178   0.00000  Uiso   1.00
loop_
_geom_bond_atom_site_label_1
_geom_bond_atom_site_label_2
_geom_bond_distance
_geom_bond_site_symmetry_2
_ccdc_geom_bond_type
C1     C21     1.472   .     S
C1     O43     1.296   .     A
C1     O45     1.301   .     A
C2     O46     1.303   .     A
C2     C22     1.467   .     S
C2     O44     1.292   .     A
C3     N75     1.424   .     S
C3     C5      1.418   .     A
C3     C11     1.423   .     A
C4     N81     1.423   .     S
C4     C12     1.424   .     A
C4     C6      1.419   .     A
C5     H37     1.078   .     S
C5     N41     1.368   .     A
C6     H38     1.081   .     S
C6     N42     1.364   .     A
C7     N87     1.415   .     S
C7     N41     1.381   .     A
C7     C9      1.404   .     A
C8     N42     1.381   .     A
C8     N93     1.426   .     S
C8     C10     1.403   .     A
C9     H39     1.082   .     S
C9     C11     1.395   .     A
C10    H40     1.082   .     S
C10    C12     1.396   .     A
C11    C600    1.519   1_554 S
C12    C599    1.519   .     S
C13    O49     1.299   .     A
C13    C15     1.450   .     S
C13    O47     1.281   .     A
C14    O48     1.282   .     A
C14    C16     1.446   .     S
C14    O50     1.296   .     A
C15    C212    1.367   1_455 S
C15    N247    1.445   1_455 S
C16    C113    1.367   .     S
C16    N155    1.443   .     S
C17    C27     1.399   .     A
C17    H31     1.083   .     S
C17    C19     1.395   .     A
C18    C28     1.401   .     A
C18    H32     1.083   .     S
C18    C20     1.395   .     A
C19    C21     1.416   .     A
C19    N63     1.421   .     S
C20    C22     1.417   .     A
C20    N69     1.423   .     S
C21    C23     1.405   .     A
C22    C24     1.402   .     A
C23    H33     1.083   .     S
C23    C25     1.390   .     A
C24    H34     1.083   .     S
C24    C26     1.389   .     A
C25    H35     1.083   .     S
C25    C27     1.402   .     A
C26    H36     1.083   .     S
C26    C28     1.402   .     A
C27    C322    1.471   1_545 S
C28    C321    1.471   .     S
Cu29   N42     2.018   .     S
Cu29   O47     1.961   .     S
Cu29   O43     1.962   .     S
Cu29   O50     1.962   .     S
Cu29   Cu30    2.686   .     S
Cu29   O46     1.959   .     S
Cu30   O45     1.959   .     S
Cu30   O48     1.961   .     S
Cu30   N41     2.018   .     S
Cu30   O44     1.962   .     S
Cu30   O49     1.962   .     S
N51    H52     1.032   .     S
N51    C113    1.445   .     S
N51    C151    1.448   .     S
C53    H54     1.111   .     S
C53    H55     1.107   .     S
C53    H56     1.110   .     S
C53    N247    1.448   1_455 S
N57    H58     1.031   .     S
N57    C212    1.443   1_455 S
N57    C255    1.449   1_455 S
C59    H61     1.111   .     S
C59    H62     1.109   .     S
C59    N155    1.449   .     S
C59    H158    1.108   .     S
H60    C255    1.108   1_455 S
N63    C65     1.446   .     S
N63    H64     1.032   .     S
C65    H67     1.110   .     S
C65    H68     1.108   .     S
C65    H66     1.111   .     S
N69    C71     1.447   .     S
N69    H70     1.032   .     S
C71    H73     1.111   .     S
C71    H74     1.111   .     S
C71    H72     1.112   .     S
N75    H76     1.032   .     S
N75    C77     1.447   .     S
C77    H79     1.110   .     S
C77    H78     1.110   .     S
C77    H80     1.111   .     S
N81    H82     1.032   .     S
N81    C83     1.447   .     S
C83    H84     1.111   .     S
C83    H85     1.110   .     S
C83    H674    1.110   .     S
H86    C671    1.110   1_554 S
N87    H88     1.031   .     S
N87    C89     1.447   .     S
C89    H91     1.110   .     S
C89    H92     1.110   .     S
C89    H90     1.112   .     S
N93    H94     1.020   .     S
N93    C95     1.451   .     S
C95    H96     1.111   .     S
C95    H98     1.109   .     S
C95    H97     1.112   .     S
C99    C119    1.472   .     S
C99    O141    1.296   .     A
C99    O143    1.301   .     A
C100   O144    1.303   .     A
C100   C120    1.467   .     S
C100   O142    1.292   .     A
C101   N173    1.424   .     S
C101   C103    1.418   .     A
C101   C109    1.423   .     A
C102   N179    1.423   .     S
C102   C110    1.424   .     A
C102   C104    1.419   .     A
C103   H135    1.078   .     S
C103   N139    1.368   .     A
C104   H136    1.081   .     S
C104   N140    1.364   .     A
C105   N185    1.415   .     S
C105   N139    1.381   .     A
C105   C107    1.404   .     A
C106   N140    1.381   .     A
C106   N191    1.426   .     S
C106   C108    1.403   .     A
C107   H137    1.082   .     S
C107   C109    1.395   .     A
C108   H138    1.082   .     S
C108   C110    1.396   .     A
C109   C698    1.519   1_554 S
C110   C697    1.519   .     S
C111   O147    1.299   .     A
C111   C113    1.450   .     S
C111   O145    1.281   .     A
C112   O146    1.282   .     A
C112   C114    1.446   .     S
C112   O148    1.296   .     A
C114   C211    1.367   .     S
C114   N253    1.443   .     S
C115   C125    1.399   .     A
C115   H129    1.083   .     S
C115   C117    1.395   .     A
C116   C126    1.401   .     A
C116   H130    1.083   .     S
C116   C118    1.395   .     A
C117   C119    1.416   .     A
C117   N161    1.421   .     S
C118   C120    1.417   .     A
C118   N167    1.423   .     S
C119   C121    1.405   .     A
C120   C122    1.402   .     A
C121   H131    1.083   .     S
C121   C123    1.390   .     A
C122   H132    1.083   .     S
C122   C124    1.389   .     A
C123   H133    1.083   .     S
C123   C125    1.402   .     A
C124   H134    1.083   .     S
C124   C126    1.402   .     A
C125   C420    1.471   1_545 S
C126   C419    1.471   .     S
Cu127  N140    2.018   .     S
Cu127  O145    1.961   .     S
Cu127  O141    1.962   .     S
Cu127  O148    1.962   .     S
Cu127  Cu128   2.686   .     S
Cu127  O144    1.959   .     S
Cu128  O143    1.959   .     S
Cu128  O146    1.961   .     S
Cu128  N139    2.018   .     S
Cu128  O142    1.962   .     S
Cu128  O147    1.962   .     S
N149   H150    1.032   .     S
N149   C211    1.445   .     S
N149   C249    1.448   .     S
C151   H152    1.111   .     S
C151   H153    1.107   .     S
C151   H154    1.110   .     S
N155   H156    1.031   .     S
C157   H159    1.111   .     S
C157   H160    1.109   .     S
C157   N253    1.449   .     S
C157   H256    1.108   .     S
N161   C163    1.446   .     S
N161   H162    1.032   .     S
C163   H165    1.110   .     S
C163   H166    1.108   .     S
C163   H164    1.111   .     S
N167   C169    1.447   .     S
N167   H168    1.032   .     S
C169   H171    1.111   .     S
C169   H172    1.111   .     S
C169   H170    1.112   .     S
N173   H174    1.032   .     S
N173   C175    1.447   .     S
C175   H177    1.110   .     S
C175   H176    1.110   .     S
C175   H178    1.111   .     S
N179   H180    1.032   .     S
N179   C181    1.447   .     S
C181   H182    1.111   .     S
C181   H183    1.110   .     S
C181   H772    1.110   .     S
H184   C769    1.110   1_554 S
N185   H186    1.031   .     S
N185   C187    1.447   .     S
C187   H189    1.110   .     S
C187   H190    1.110   .     S
C187   H188    1.112   .     S
N191   H192    1.020   .     S
N191   C193    1.451   .     S
C193   H194    1.111   .     S
C193   H196    1.109   .     S
C193   H195    1.112   .     S
C197   C217    1.472   .     S
C197   O239    1.296   .     A
C197   O241    1.301   .     A
C198   O242    1.303   .     A
C198   C218    1.467   .     S
C198   O240    1.292   .     A
C199   N271    1.424   .     S
C199   C201    1.418   .     A
C199   C207    1.423   .     A
C200   N277    1.423   .     S
C200   C208    1.424   .     A
C200   C202    1.419   .     A
C201   H233    1.078   .     S
C201   N237    1.368   .     A
C202   H234    1.081   .     S
C202   N238    1.364   .     A
C203   N283    1.415   .     S
C203   N237    1.381   .     A
C203   C205    1.404   .     A
C204   N238    1.381   .     A
C204   N289    1.426   .     S
C204   C206    1.403   .     A
C205   H235    1.082   .     S
C205   C207    1.395   .     A
C206   H236    1.082   .     S
C206   C208    1.396   .     A
C207   C796    1.519   1_554 S
C208   C795    1.519   .     S
C209   O245    1.299   .     A
C209   C211    1.450   .     S
C209   O243    1.281   .     A
C210   O244    1.282   .     A
C210   C212    1.446   .     S
C210   O246    1.296   .     A
C212   C15     1.367   1_655 S
C212   N57     1.443   1_655 S
C213   C223    1.399   .     A
C213   H227    1.083   .     S
C213   C215    1.395   .     A
C214   C224    1.401   .     A
C214   H228    1.083   .     S
C214   C216    1.395   .     A
C215   C217    1.416   .     A
C215   N259    1.421   .     S
C216   C218    1.417   .     A
C216   N265    1.423   .     S
C217   C219    1.405   .     A
C218   C220    1.402   .     A
C219   H229    1.083   .     S
C219   C221    1.390   .     A
C220   H230    1.083   .     S
C220   C222    1.389   .     A
C221   H231    1.083   .     S
C221   C223    1.402   .     A
C222   H232    1.083   .     S
C222   C224    1.402   .     A
C223   C518    1.471   1_545 S
C224   C517    1.471   .     S
Cu225  N238    2.018   .     S
Cu225  O243    1.961   .     S
Cu225  O239    1.962   .     S
Cu225  O246    1.962   .     S
Cu225  Cu226   2.686   .     S
Cu225  O242    1.959   .     S
Cu226  O241    1.959   .     S
Cu226  O244    1.961   .     S
Cu226  N237    2.018   .     S
Cu226  O240    1.962   .     S
Cu226  O245    1.962   .     S
N247   H248    1.032   .     S
N247   C15     1.445   1_655 S
N247   C53     1.448   1_655 S
C249   H250    1.111   .     S
C249   H251    1.107   .     S
C249   H252    1.110   .     S
N253   H254    1.031   .     S
C255   H257    1.111   .     S
C255   H258    1.109   .     S
C255   N57     1.449   1_655 S
C255   H60     1.108   1_655 S
N259   C261    1.446   .     S
N259   H260    1.032   .     S
C261   H263    1.110   .     S
C261   H264    1.108   .     S
C261   H262    1.111   .     S
N265   C267    1.447   .     S
N265   H266    1.032   .     S
C267   H269    1.111   .     S
C267   H270    1.111   .     S
C267   H268    1.112   .     S
N271   H272    1.032   .     S
N271   C273    1.447   .     S
C273   H275    1.110   .     S
C273   H274    1.110   .     S
C273   H276    1.111   .     S
N277   H278    1.032   .     S
N277   C279    1.447   .     S
C279   H280    1.111   .     S
C279   H281    1.110   .     S
C279   H870    1.110   .     S
H282   C867    1.110   1_554 S
N283   H284    1.031   .     S
N283   C285    1.447   .     S
C285   H287    1.110   .     S
C285   H288    1.110   .     S
C285   H286    1.112   .     S
N289   H290    1.020   .     S
N289   C291    1.451   .     S
C291   H292    1.111   .     S
C291   H294    1.109   .     S
C291   H293    1.112   .     S
C295   C315    1.472   .     S
C295   O337    1.296   .     A
C295   O339    1.301   .     A
C296   O340    1.303   .     A
C296   C316    1.467   .     S
C296   O338    1.292   .     A
C297   N369    1.424   .     S
C297   C299    1.418   .     A
C297   C305    1.423   .     A
C298   N375    1.423   .     S
C298   C306    1.424   .     A
C298   C300    1.419   .     A
C299   H331    1.078   .     S
C299   N335    1.368   .     A
C300   H332    1.081   .     S
C300   N336    1.364   .     A
C301   N381    1.415   .     S
C301   N335    1.381   .     A
C301   C303    1.404   .     A
C302   N336    1.381   .     A
C302   N387    1.426   .     S
C302   C304    1.403   .     A
C303   H333    1.082   .     S
C303   C305    1.395   .     A
C304   H334    1.082   .     S
C304   C306    1.396   .     A
C305   C894    1.519   1_554 S
C306   C893    1.519   .     S
C307   O343    1.299   .     A
C307   C309    1.450   .     S
C307   O341    1.281   .     A
C308   O342    1.282   .     A
C308   C310    1.446   .     S
C308   O344    1.296   .     A
C309   C506    1.367   1_455 S
C309   N541    1.445   1_455 S
C310   C407    1.367   .     S
C310   N449    1.443   .     S
C311   C321    1.399   .     A
C311   H325    1.083   .     S
C311   C313    1.395   .     A
C312   C322    1.401   .     A
C312   H326    1.083   .     S
C312   C314    1.395   .     A
C313   C315    1.416   .     A
C313   N357    1.421   .     S
C314   C316    1.417   .     A
C314   N363    1.423   .     S
C315   C317    1.405   .     A
C316   C318    1.402   .     A
C317   H327    1.083   .     S
C317   C319    1.390   .     A
C318   H328    1.083   .     S
C318   C320    1.389   .     A
C319   H329    1.083   .     S
C319   C321    1.402   .     A
C320   H330    1.083   .     S
C320   C322    1.402   .     A
C322   C27     1.471   1_565 S
Cu323  N336    2.018   .     S
Cu323  O341    1.961   .     S
Cu323  O337    1.962   .     S
Cu323  O344    1.962   .     S
Cu323  Cu324   2.686   .     S
Cu323  O340    1.959   .     S
Cu324  O339    1.959   .     S
Cu324  O342    1.961   .     S
Cu324  N335    2.018   .     S
Cu324  O338    1.962   .     S
Cu324  O343    1.962   .     S
N345   H346    1.032   .     S
N345   C407    1.445   .     S
N345   C445    1.448   .     S
C347   H348    1.111   .     S
C347   H349    1.107   .     S
C347   H350    1.110   .     S
C347   N541    1.448   1_455 S
N351   H352    1.031   .     S
N351   C506    1.443   1_455 S
N351   C549    1.449   1_455 S
C353   H355    1.111   .     S
C353   H356    1.109   .     S
C353   N449    1.449   .     S
C353   H452    1.108   .     S
H354   C549    1.108   1_455 S
N357   C359    1.446   .     S
N357   H358    1.032   .     S
C359   H361    1.110   .     S
C359   H362    1.108   .     S
C359   H360    1.111   .     S
N363   C365    1.447   .     S
N363   H364    1.032   .     S
C365   H367    1.111   .     S
C365   H368    1.111   .     S
C365   H366    1.112   .     S
N369   H370    1.032   .     S
N369   C371    1.447   .     S
C371   H373    1.110   .     S
C371   H372    1.110   .     S
C371   H374    1.111   .     S
N375   H376    1.032   .     S
N375   C377    1.447   .     S
C377   H378    1.111   .     S
C377   H379    1.110   .     S
C377   H968    1.110   .     S
H380   C965    1.110   1_554 S
N381   H382    1.031   .     S
N381   C383    1.447   .     S
C383   H385    1.110   .     S
C383   H386    1.110   .     S
C383   H384    1.112   .     S
N387   H388    1.020   .     S
N387   C389    1.451   .     S
C389   H390    1.111   .     S
C389   H392    1.109   .     S
C389   H391    1.112   .     S
C393   C413    1.472   .     S
C393   O435    1.296   .     A
C393   O437    1.301   .     A
C394   O438    1.303   .     A
C394   C414    1.467   .     S
C394   O436    1.292   .     A
C395   N467    1.424   .     S
C395   C397    1.418   .     A
C395   C403    1.423   .     A
C396   N473    1.423   .     S
C396   C404    1.424   .     A
C396   C398    1.419   .     A
C397   H429    1.078   .     S
C397   N433    1.368   .     A
C398   H430    1.081   .     S
C398   N434    1.364   .     A
C399   N479    1.415   .     S
C399   N433    1.381   .     A
C399   C401    1.404   .     A
C400   N434    1.381   .     A
C400   N485    1.426   .     S
C400   C402    1.403   .     A
C401   H431    1.082   .     S
C401   C403    1.395   .     A
C402   H432    1.082   .     S
C402   C404    1.396   .     A
C403   C992    1.519   1_554 S
C404   C991    1.519   .     S
C405   O441    1.299   .     A
C405   C407    1.450   .     S
C405   O439    1.281   .     A
C406   O440    1.282   .     A
C406   C408    1.446   .     S
C406   O442    1.296   .     A
C408   C505    1.367   .     S
C408   N547    1.443   .     S
C409   C419    1.399   .     A
C409   H423    1.083   .     S
C409   C411    1.395   .     A
C410   C420    1.401   .     A
C410   H424    1.083   .     S
C410   C412    1.395   .     A
C411   C413    1.416   .     A
C411   N455    1.421   .     S
C412   C414    1.417   .     A
C412   N461    1.423   .     S
C413   C415    1.405   .     A
C414   C416    1.402   .     A
C415   H425    1.083   .     S
C415   C417    1.390   .     A
C416   H426    1.083   .     S
C416   C418    1.389   .     A
C417   H427    1.083   .     S
C417   C419    1.402   .     A
C418   H428    1.083   .     S
C418   C420    1.402   .     A
C420   C125    1.471   1_565 S
Cu421  N434    2.018   .     S
Cu421  O439    1.961   .     S
Cu421  O435    1.962   .     S
Cu421  O442    1.962   .     S
Cu421  Cu422   2.686   .     S
Cu421  O438    1.959   .     S
Cu422  O437    1.959   .     S
Cu422  O440    1.961   .     S
Cu422  N433    2.018   .     S
Cu422  O436    1.962   .     S
Cu422  O441    1.962   .     S
N443   H444    1.032   .     S
N443   C505    1.445   .     S
N443   C543    1.448   .     S
C445   H446    1.111   .     S
C445   H447    1.107   .     S
C445   H448    1.110   .     S
N449   H450    1.031   .     S
C451   H453    1.111   .     S
C451   H454    1.109   .     S
C451   N547    1.449   .     S
C451   H550    1.108   .     S
N455   C457    1.446   .     S
N455   H456    1.032   .     S
C457   H459    1.110   .     S
C457   H460    1.108   .     S
C457   H458    1.111   .     S
N461   C463    1.447   .     S
N461   H462    1.032   .     S
C463   H465    1.111   .     S
C463   H466    1.111   .     S
C463   H464    1.112   .     S
N467   H468    1.032   .     S
N467   C469    1.447   .     S
C469   H471    1.110   .     S
C469   H470    1.110   .     S
C469   H472    1.111   .     S
N473   H474    1.032   .     S
N473   C475    1.447   .     S
C475   H476    1.111   .     S
C475   H477    1.110   .     S
C475   H1066   1.110   .     S
H478   C1063   1.110   1_554 S
N479   H480    1.031   .     S
N479   C481    1.447   .     S
C481   H483    1.110   .     S
C481   H484    1.110   .     S
C481   H482    1.112   .     S
N485   H486    1.020   .     S
N485   C487    1.451   .     S
C487   H488    1.111   .     S
C487   H490    1.109   .     S
C487   H489    1.112   .     S
C491   C511    1.472   .     S
C491   O533    1.296   .     A
C491   O535    1.301   .     A
C492   O536    1.303   .     A
C492   C512    1.467   .     S
C492   O534    1.292   .     A
C493   N565    1.424   .     S
C493   C495    1.418   .     A
C493   C501    1.423   .     A
C494   N571    1.423   .     S
C494   C502    1.424   .     A
C494   C496    1.419   .     A
C495   H527    1.078   .     S
C495   N531    1.368   .     A
C496   H528    1.081   .     S
C496   N532    1.364   .     A
C497   N577    1.415   .     S
C497   N531    1.381   .     A
C497   C499    1.404   .     A
C498   N532    1.381   .     A
C498   N583    1.426   .     S
C498   C500    1.403   .     A
C499   H529    1.082   .     S
C499   C501    1.395   .     A
C500   H530    1.082   .     S
C500   C502    1.396   .     A
C501   C1090   1.519   1_554 S
C502   C1089   1.519   .     S
C503   O539    1.299   .     A
C503   C505    1.450   .     S
C503   O537    1.281   .     A
C504   O538    1.282   .     A
C504   C506    1.446   .     S
C504   O540    1.296   .     A
C506   C309    1.367   1_655 S
C506   N351    1.443   1_655 S
C507   C517    1.399   .     A
C507   H521    1.083   .     S
C507   C509    1.395   .     A
C508   C518    1.401   .     A
C508   H522    1.083   .     S
C508   C510    1.395   .     A
C509   C511    1.416   .     A
C509   N553    1.421   .     S
C510   C512    1.417   .     A
C510   N559    1.423   .     S
C511   C513    1.405   .     A
C512   C514    1.402   .     A
C513   H523    1.083   .     S
C513   C515    1.390   .     A
C514   H524    1.083   .     S
C514   C516    1.389   .     A
C515   H525    1.083   .     S
C515   C517    1.402   .     A
C516   H526    1.083   .     S
C516   C518    1.402   .     A
C518   C223    1.471   1_565 S
Cu519  N532    2.018   .     S
Cu519  O537    1.961   .     S
Cu519  O533    1.962   .     S
Cu519  O540    1.962   .     S
Cu519  Cu520   2.686   .     S
Cu519  O536    1.959   .     S
Cu520  O535    1.959   .     S
Cu520  O538    1.961   .     S
Cu520  N531    2.018   .     S
Cu520  O534    1.962   .     S
Cu520  O539    1.962   .     S
N541   H542    1.032   .     S
N541   C309    1.445   1_655 S
N541   C347    1.448   1_655 S
C543   H544    1.111   .     S
C543   H545    1.107   .     S
C543   H546    1.110   .     S
N547   H548    1.031   .     S
C549   H551    1.111   .     S
C549   H552    1.109   .     S
C549   N351    1.449   1_655 S
C549   H354    1.108   1_655 S
N553   C555    1.446   .     S
N553   H554    1.032   .     S
C555   H557    1.110   .     S
C555   H558    1.108   .     S
C555   H556    1.111   .     S
N559   C561    1.447   .     S
N559   H560    1.032   .     S
C561   H563    1.111   .     S
C561   H564    1.111   .     S
C561   H562    1.112   .     S
N565   H566    1.032   .     S
N565   C567    1.447   .     S
C567   H569    1.110   .     S
C567   H568    1.110   .     S
C567   H570    1.111   .     S
N571   H572    1.032   .     S
N571   C573    1.447   .     S
C573   H574    1.111   .     S
C573   H575    1.110   .     S
C573   H1164   1.110   .     S
H576   C1161   1.110   1_554 S
N577   H578    1.031   .     S
N577   C579    1.447   .     S
C579   H581    1.110   .     S
C579   H582    1.110   .     S
C579   H580    1.112   .     S
N583   H584    1.020   .     S
N583   C585    1.451   .     S
C585   H586    1.111   .     S
C585   H588    1.109   .     S
C585   H587    1.112   .     S
C589   C609    1.472   .     S
C589   O631    1.296   .     A
C589   O633    1.301   .     A
C590   O634    1.303   .     A
C590   C610    1.467   .     S
C590   O632    1.292   .     A
C591   N663    1.424   .     S
C591   C593    1.418   .     A
C591   C599    1.423   .     A
C592   N669    1.423   .     S
C592   C600    1.424   .     A
C592   C594    1.419   .     A
C593   H625    1.078   .     S
C593   N629    1.368   .     A
C594   H626    1.081   .     S
C594   N630    1.364   .     A
C595   N675    1.415   .     S
C595   N629    1.381   .     A
C595   C597    1.404   .     A
C596   N630    1.381   .     A
C596   N681    1.426   .     S
C596   C598    1.403   .     A
C597   H627    1.082   .     S
C597   C599    1.395   .     A
C598   H628    1.082   .     S
C598   C600    1.396   .     A
C600   C11     1.519   1_556 S
C601   O637    1.299   .     A
C601   C603    1.450   .     S
C601   O635    1.281   .     A
C602   O636    1.282   .     A
C602   C604    1.446   .     S
C602   O638    1.296   .     A
C603   C800    1.367   1_455 S
C603   N835    1.445   1_455 S
C604   C701    1.367   .     S
C604   N743    1.443   .     S
C605   C615    1.399   .     A
C605   H619    1.083   .     S
C605   C607    1.395   .     A
C606   C616    1.401   .     A
C606   H620    1.083   .     S
C606   C608    1.395   .     A
C607   C609    1.416   .     A
C607   N651    1.421   .     S
C608   C610    1.417   .     A
C608   N657    1.423   .     S
C609   C611    1.405   .     A
C610   C612    1.402   .     A
C611   H621    1.083   .     S
C611   C613    1.390   .     A
C612   H622    1.083   .     S
C612   C614    1.389   .     A
C613   H623    1.083   .     S
C613   C615    1.402   .     A
C614   H624    1.083   .     S
C614   C616    1.402   .     A
C615   C910    1.471   1_545 S
C616   C909    1.471   .     S
Cu617  N630    2.018   .     S
Cu617  O635    1.961   .     S
Cu617  O631    1.962   .     S
Cu617  O638    1.962   .     S
Cu617  Cu618   2.686   .     S
Cu617  O634    1.959   .     S
Cu618  O633    1.959   .     S
Cu618  O636    1.961   .     S
Cu618  N629    2.018   .     S
Cu618  O632    1.962   .     S
Cu618  O637    1.962   .     S
N639   H640    1.032   .     S
N639   C701    1.445   .     S
N639   C739    1.448   .     S
C641   H642    1.111   .     S
C641   H643    1.107   .     S
C641   H644    1.110   .     S
C641   N835    1.448   1_455 S
N645   H646    1.031   .     S
N645   C800    1.443   1_455 S
N645   C843    1.449   1_455 S
C647   H649    1.111   .     S
C647   H650    1.109   .     S
C647   N743    1.449   .     S
C647   H746    1.108   .     S
H648   C843    1.108   1_455 S
N651   C653    1.446   .     S
N651   H652    1.032   .     S
C653   H655    1.110   .     S
C653   H656    1.108   .     S
C653   H654    1.111   .     S
N657   C659    1.447   .     S
N657   H658    1.032   .     S
C659   H661    1.111   .     S
C659   H662    1.111   .     S
C659   H660    1.112   .     S
N663   H664    1.032   .     S
N663   C665    1.447   .     S
C665   H667    1.110   .     S
C665   H666    1.110   .     S
C665   H668    1.111   .     S
N669   H670    1.032   .     S
N669   C671    1.447   .     S
C671   H672    1.111   .     S
C671   H673    1.110   .     S
C671   H86     1.110   1_556 S
N675   H676    1.031   .     S
N675   C677    1.447   .     S
C677   H679    1.110   .     S
C677   H680    1.110   .     S
C677   H678    1.112   .     S
N681   H682    1.020   .     S
N681   C683    1.451   .     S
C683   H684    1.111   .     S
C683   H686    1.109   .     S
C683   H685    1.112   .     S
C687   C707    1.472   .     S
C687   O729    1.296   .     A
C687   O731    1.301   .     A
C688   O732    1.303   .     A
C688   C708    1.467   .     S
C688   O730    1.292   .     A
C689   N761    1.424   .     S
C689   C691    1.418   .     A
C689   C697    1.423   .     A
C690   N767    1.423   .     S
C690   C698    1.424   .     A
C690   C692    1.419   .     A
C691   H723    1.078   .     S
C691   N727    1.368   .     A
C692   H724    1.081   .     S
C692   N728    1.364   .     A
C693   N773    1.415   .     S
C693   N727    1.381   .     A
C693   C695    1.404   .     A
C694   N728    1.381   .     A
C694   N779    1.426   .     S
C694   C696    1.403   .     A
C695   H725    1.082   .     S
C695   C697    1.395   .     A
C696   H726    1.082   .     S
C696   C698    1.396   .     A
C698   C109    1.519   1_556 S
C699   O735    1.299   .     A
C699   C701    1.450   .     S
C699   O733    1.281   .     A
C700   O734    1.282   .     A
C700   C702    1.446   .     S
C700   O736    1.296   .     A
C702   C799    1.367   .     S
C702   N841    1.443   .     S
C703   C713    1.399   .     A
C703   H717    1.083   .     S
C703   C705    1.395   .     A
C704   C714    1.401   .     A
C704   H718    1.083   .     S
C704   C706    1.395   .     A
C705   C707    1.416   .     A
C705   N749    1.421   .     S
C706   C708    1.417   .     A
C706   N755    1.423   .     S
C707   C709    1.405   .     A
C708   C710    1.402   .     A
C709   H719    1.083   .     S
C709   C711    1.390   .     A
C710   H720    1.083   .     S
C710   C712    1.389   .     A
C711   H721    1.083   .     S
C711   C713    1.402   .     A
C712   H722    1.083   .     S
C712   C714    1.402   .     A
C713   C1008   1.471   1_545 S
C714   C1007   1.471   .     S
Cu715  N728    2.018   .     S
Cu715  O733    1.961   .     S
Cu715  O729    1.962   .     S
Cu715  O736    1.962   .     S
Cu715  Cu716   2.686   .     S
Cu715  O732    1.959   .     S
Cu716  O731    1.959   .     S
Cu716  O734    1.961   .     S
Cu716  N727    2.018   .     S
Cu716  O730    1.962   .     S
Cu716  O735    1.962   .     S
N737   H738    1.032   .     S
N737   C799    1.445   .     S
N737   C837    1.448   .     S
C739   H740    1.111   .     S
C739   H741    1.107   .     S
C739   H742    1.110   .     S
N743   H744    1.031   .     S
C745   H747    1.111   .     S
C745   H748    1.109   .     S
C745   N841    1.449   .     S
C745   H844    1.108   .     S
N749   C751    1.446   .     S
N749   H750    1.032   .     S
C751   H753    1.110   .     S
C751   H754    1.108   .     S
C751   H752    1.111   .     S
N755   C757    1.447   .     S
N755   H756    1.032   .     S
C757   H759    1.111   .     S
C757   H760    1.111   .     S
C757   H758    1.112   .     S
N761   H762    1.032   .     S
N761   C763    1.447   .     S
C763   H765    1.110   .     S
C763   H764    1.110   .     S
C763   H766    1.111   .     S
N767   H768    1.032   .     S
N767   C769    1.447   .     S
C769   H770    1.111   .     S
C769   H771    1.110   .     S
C769   H184    1.110   1_556 S
N773   H774    1.031   .     S
N773   C775    1.447   .     S
C775   H777    1.110   .     S
C775   H778    1.110   .     S
C775   H776    1.112   .     S
N779   H780    1.020   .     S
N779   C781    1.451   .     S
C781   H782    1.111   .     S
C781   H784    1.109   .     S
C781   H783    1.112   .     S
C785   C805    1.472   .     S
C785   O827    1.296   .     A
C785   O829    1.301   .     A
C786   O830    1.303   .     A
C786   C806    1.467   .     S
C786   O828    1.292   .     A
C787   N859    1.424   .     S
C787   C789    1.418   .     A
C787   C795    1.423   .     A
C788   N865    1.423   .     S
C788   C796    1.424   .     A
C788   C790    1.419   .     A
C789   H821    1.078   .     S
C789   N825    1.368   .     A
C790   H822    1.081   .     S
C790   N826    1.364   .     A
C791   N871    1.415   .     S
C791   N825    1.381   .     A
C791   C793    1.404   .     A
C792   N826    1.381   .     A
C792   N877    1.426   .     S
C792   C794    1.403   .     A
C793   H823    1.082   .     S
C793   C795    1.395   .     A
C794   H824    1.082   .     S
C794   C796    1.396   .     A
C796   C207    1.519   1_556 S
C797   O833    1.299   .     A
C797   C799    1.450   .     S
C797   O831    1.281   .     A
C798   O832    1.282   .     A
C798   C800    1.446   .     S
C798   O834    1.296   .     A
C800   C603    1.367   1_655 S
C800   N645    1.443   1_655 S
C801   C811    1.399   .     A
C801   H815    1.083   .     S
C801   C803    1.395   .     A
C802   C812    1.401   .     A
C802   H816    1.083   .     S
C802   C804    1.395   .     A
C803   C805    1.416   .     A
C803   N847    1.421   .     S
C804   C806    1.417   .     A
C804   N853    1.423   .     S
C805   C807    1.405   .     A
C806   C808    1.402   .     A
C807   H817    1.083   .     S
C807   C809    1.390   .     A
C808   H818    1.083   .     S
C808   C810    1.389   .     A
C809   H819    1.083   .     S
C809   C811    1.402   .     A
C810   H820    1.083   .     S
C810   C812    1.402   .     A
C811   C1106   1.471   1_545 S
C812   C1105   1.471   .     S
Cu813  N826    2.018   .     S
Cu813  O831    1.961   .     S
Cu813  O827    1.962   .     S
Cu813  O834    1.962   .     S
Cu813  Cu814   2.686   .     S
Cu813  O830    1.959   .     S
Cu814  O829    1.959   .     S
Cu814  O832    1.961   .     S
Cu814  N825    2.018   .     S
Cu814  O828    1.962   .     S
Cu814  O833    1.962   .     S
N835   H836    1.032   .     S
N835   C603    1.445   1_655 S
N835   C641    1.448   1_655 S
C837   H838    1.111   .     S
C837   H839    1.107   .     S
C837   H840    1.110   .     S
N841   H842    1.031   .     S
C843   H845    1.111   .     S
C843   H846    1.109   .     S
C843   N645    1.449   1_655 S
C843   H648    1.108   1_655 S
N847   C849    1.446   .     S
N847   H848    1.032   .     S
C849   H851    1.110   .     S
C849   H852    1.108   .     S
C849   H850    1.111   .     S
N853   C855    1.447   .     S
N853   H854    1.032   .     S
C855   H857    1.111   .     S
C855   H858    1.111   .     S
C855   H856    1.112   .     S
N859   H860    1.032   .     S
N859   C861    1.447   .     S
C861   H863    1.110   .     S
C861   H862    1.110   .     S
C861   H864    1.111   .     S
N865   H866    1.032   .     S
N865   C867    1.447   .     S
C867   H868    1.111   .     S
C867   H869    1.110   .     S
C867   H282    1.110   1_556 S
N871   H872    1.031   .     S
N871   C873    1.447   .     S
C873   H875    1.110   .     S
C873   H876    1.110   .     S
C873   H874    1.112   .     S
N877   H878    1.020   .     S
N877   C879    1.451   .     S
C879   H880    1.111   .     S
C879   H882    1.109   .     S
C879   H881    1.112   .     S
C883   C903    1.472   .     S
C883   O925    1.296   .     A
C883   O927    1.301   .     A
C884   O928    1.303   .     A
C884   C904    1.467   .     S
C884   O926    1.292   .     A
C885   N957    1.424   .     S
C885   C887    1.418   .     A
C885   C893    1.423   .     A
C886   N963    1.423   .     S
C886   C894    1.424   .     A
C886   C888    1.419   .     A
C887   H919    1.078   .     S
C887   N923    1.368   .     A
C888   H920    1.081   .     S
C888   N924    1.364   .     A
C889   N969    1.415   .     S
C889   N923    1.381   .     A
C889   C891    1.404   .     A
C890   N924    1.381   .     A
C890   N975    1.426   .     S
C890   C892    1.403   .     A
C891   H921    1.082   .     S
C891   C893    1.395   .     A
C892   H922    1.082   .     S
C892   C894    1.396   .     A
C894   C305    1.519   1_556 S
C895   O931    1.299   .     A
C895   C897    1.450   .     S
C895   O929    1.281   .     A
C896   O930    1.282   .     A
C896   C898    1.446   .     S
C896   O932    1.296   .     A
C897   C1094   1.367   1_455 S
C897   N1129   1.445   1_455 S
C898   C995    1.367   .     S
C898   N1037   1.443   .     S
C899   C909    1.399   .     A
C899   H913    1.083   .     S
C899   C901    1.395   .     A
C900   C910    1.401   .     A
C900   H914    1.083   .     S
C900   C902    1.395   .     A
C901   C903    1.416   .     A
C901   N945    1.421   .     S
C902   C904    1.417   .     A
C902   N951    1.423   .     S
C903   C905    1.405   .     A
C904   C906    1.402   .     A
C905   H915    1.083   .     S
C905   C907    1.390   .     A
C906   H916    1.083   .     S
C906   C908    1.389   .     A
C907   H917    1.083   .     S
C907   C909    1.402   .     A
C908   H918    1.083   .     S
C908   C910    1.402   .     A
C910   C615    1.471   1_565 S
Cu911  N924    2.018   .     S
Cu911  O929    1.961   .     S
Cu911  O925    1.962   .     S
Cu911  O932    1.962   .     S
Cu911  Cu912   2.686   .     S
Cu911  O928    1.959   .     S
Cu912  O927    1.959   .     S
Cu912  O930    1.961   .     S
Cu912  N923    2.018   .     S
Cu912  O926    1.962   .     S
Cu912  O931    1.962   .     S
N933   H934    1.032   .     S
N933   C995    1.445   .     S
N933   C1033   1.448   .     S
C935   H936    1.111   .     S
C935   H937    1.107   .     S
C935   H938    1.110   .     S
C935   N1129   1.448   1_455 S
N939   H940    1.031   .     S
N939   C1094   1.443   1_455 S
N939   C1137   1.449   1_455 S
C941   H943    1.111   .     S
C941   H944    1.109   .     S
C941   N1037   1.449   .     S
C941   H1040   1.108   .     S
H942   C1137   1.108   1_455 S
N945   C947    1.446   .     S
N945   H946    1.032   .     S
C947   H949    1.110   .     S
C947   H950    1.108   .     S
C947   H948    1.111   .     S
N951   C953    1.447   .     S
N951   H952    1.032   .     S
C953   H955    1.111   .     S
C953   H956    1.111   .     S
C953   H954    1.112   .     S
N957   H958    1.032   .     S
N957   C959    1.447   .     S
C959   H961    1.110   .     S
C959   H960    1.110   .     S
C959   H962    1.111   .     S
N963   H964    1.032   .     S
N963   C965    1.447   .     S
C965   H966    1.111   .     S
C965   H967    1.110   .     S
C965   H380    1.110   1_556 S
N969   H970    1.031   .     S
N969   C971    1.447   .     S
C971   H973    1.110   .     S
C971   H974    1.110   .     S
C971   H972    1.112   .     S
N975   H976    1.020   .     S
N975   C977    1.451   .     S
C977   H978    1.111   .     S
C977   H980    1.109   .     S
C977   H979    1.112   .     S
C981   C1001   1.472   .     S
C981   O1023   1.296   .     A
C981   O1025   1.301   .     A
C982   O1026   1.303   .     A
C982   C1002   1.467   .     S
C982   O1024   1.292   .     A
C983   N1055   1.424   .     S
C983   C985    1.418   .     A
C983   C991    1.423   .     A
C984   N1061   1.423   .     S
C984   C992    1.424   .     A
C984   C986    1.419   .     A
C985   H1017   1.078   .     S
C985   N1021   1.368   .     A
C986   H1018   1.081   .     S
C986   N1022   1.364   .     A
C987   N1067   1.415   .     S
C987   N1021   1.381   .     A
C987   C989    1.404   .     A
C988   N1022   1.381   .     A
C988   N1073   1.426   .     S
C988   C990    1.403   .     A
C989   H1019   1.082   .     S
C989   C991    1.395   .     A
C990   H1020   1.082   .     S
C990   C992    1.396   .     A
C992   C403    1.519   1_556 S
C993   O1029   1.299   .     A
C993   C995    1.450   .     S
C993   O1027   1.281   .     A
C994   O1028   1.282   .     A
C994   C996    1.446   .     S
C994   O1030   1.296   .     A
C996   C1093   1.367   .     S
C996   N1135   1.443   .     S
C997   C1007   1.399   .     A
C997   H1011   1.083   .     S
C997   C999    1.395   .     A
C998   C1008   1.401   .     A
C998   H1012   1.083   .     S
C998   C1000   1.395   .     A
C999   C1001   1.416   .     A
C999   N1043   1.421   .     S
C1000  C1002   1.417   .     A
C1000  N1049   1.423   .     S
C1001  C1003   1.405   .     A
C1002  C1004   1.402   .     A
C1003  H1013   1.083   .     S
C1003  C1005   1.390   .     A
C1004  H1014   1.083   .     S
C1004  C1006   1.389   .     A
C1005  H1015   1.083   .     S
C1005  C1007   1.402   .     A
C1006  H1016   1.083   .     S
C1006  C1008   1.402   .     A
C1008  C713    1.471   1_565 S
Cu1009 N1022   2.018   .     S
Cu1009 O1027   1.961   .     S
Cu1009 O1023   1.962   .     S
Cu1009 O1030   1.962   .     S
Cu1009 Cu1010  2.686   .     S
Cu1009 O1026   1.959   .     S
Cu1010 O1025   1.959   .     S
Cu1010 O1028   1.961   .     S
Cu1010 N1021   2.018   .     S
Cu1010 O1024   1.962   .     S
Cu1010 O1029   1.962   .     S
N1031  H1032   1.032   .     S
N1031  C1093   1.445   .     S
N1031  C1131   1.448   .     S
C1033  H1034   1.111   .     S
C1033  H1035   1.107   .     S
C1033  H1036   1.110   .     S
N1037  H1038   1.031   .     S
C1039  H1041   1.111   .     S
C1039  H1042   1.109   .     S
C1039  N1135   1.449   .     S
C1039  H1138   1.108   .     S
N1043  C1045   1.446   .     S
N1043  H1044   1.032   .     S
C1045  H1047   1.110   .     S
C1045  H1048   1.108   .     S
C1045  H1046   1.111   .     S
N1049  C1051   1.447   .     S
N1049  H1050   1.032   .     S
C1051  H1053   1.111   .     S
C1051  H1054   1.111   .     S
C1051  H1052   1.112   .     S
N1055  H1056   1.032   .     S
N1055  C1057   1.447   .     S
C1057  H1059   1.110   .     S
C1057  H1058   1.110   .     S
C1057  H1060   1.111   .     S
N1061  H1062   1.032   .     S
N1061  C1063   1.447   .     S
C1063  H1064   1.111   .     S
C1063  H1065   1.110   .     S
C1063  H478    1.110   1_556 S
N1067  H1068   1.031   .     S
N1067  C1069   1.447   .     S
C1069  H1071   1.110   .     S
C1069  H1072   1.110   .     S
C1069  H1070   1.112   .     S
N1073  H1074   1.020   .     S
N1073  C1075   1.451   .     S
C1075  H1076   1.111   .     S
C1075  H1078   1.109   .     S
C1075  H1077   1.112   .     S
C1079  C1099   1.472   .     S
C1079  O1121   1.296   .     A
C1079  O1123   1.301   .     A
C1080  O1124   1.303   .     A
C1080  C1100   1.467   .     S
C1080  O1122   1.292   .     A
C1081  N1153   1.424   .     S
C1081  C1083   1.418   .     A
C1081  C1089   1.423   .     A
C1082  N1159   1.423   .     S
C1082  C1090   1.424   .     A
C1082  C1084   1.419   .     A
C1083  H1115   1.078   .     S
C1083  N1119   1.368   .     A
C1084  H1116   1.081   .     S
C1084  N1120   1.364   .     A
C1085  N1165   1.415   .     S
C1085  N1119   1.381   .     A
C1085  C1087   1.404   .     A
C1086  N1120   1.381   .     A
C1086  N1171   1.426   .     S
C1086  C1088   1.403   .     A
C1087  H1117   1.082   .     S
C1087  C1089   1.395   .     A
C1088  H1118   1.082   .     S
C1088  C1090   1.396   .     A
C1090  C501    1.519   1_556 S
C1091  O1127   1.299   .     A
C1091  C1093   1.450   .     S
C1091  O1125   1.281   .     A
C1092  O1126   1.282   .     A
C1092  C1094   1.446   .     S
C1092  O1128   1.296   .     A
C1094  C897    1.367   1_655 S
C1094  N939    1.443   1_655 S
C1095  C1105   1.399   .     A
C1095  H1109   1.083   .     S
C1095  C1097   1.395   .     A
C1096  C1106   1.401   .     A
C1096  H1110   1.083   .     S
C1096  C1098   1.395   .     A
C1097  C1099   1.416   .     A
C1097  N1141   1.421   .     S
C1098  C1100   1.417   .     A
C1098  N1147   1.423   .     S
C1099  C1101   1.405   .     A
C1100  C1102   1.402   .     A
C1101  H1111   1.083   .     S
C1101  C1103   1.390   .     A
C1102  H1112   1.083   .     S
C1102  C1104   1.389   .     A
C1103  H1113   1.083   .     S
C1103  C1105   1.402   .     A
C1104  H1114   1.083   .     S
C1104  C1106   1.402   .     A
C1106  C811    1.471   1_565 S
Cu1107 N1120   2.018   .     S
Cu1107 O1125   1.961   .     S
Cu1107 O1121   1.962   .     S
Cu1107 O1128   1.962   .     S
Cu1107 Cu1108  2.686   .     S
Cu1107 O1124   1.959   .     S
Cu1108 O1123   1.959   .     S
Cu1108 O1126   1.961   .     S
Cu1108 N1119   2.018   .     S
Cu1108 O1122   1.962   .     S
Cu1108 O1127   1.962   .     S
N1129  H1130   1.032   .     S
N1129  C897    1.445   1_655 S
N1129  C935    1.448   1_655 S
C1131  H1132   1.111   .     S
C1131  H1133   1.107   .     S
C1131  H1134   1.110   .     S
N1135  H1136   1.031   .     S
C1137  H1139   1.111   .     S
C1137  H1140   1.109   .     S
C1137  N939    1.449   1_655 S
C1137  H942    1.108   1_655 S
N1141  C1143   1.446   .     S
N1141  H1142   1.032   .     S
C1143  H1145   1.110   .     S
C1143  H1146   1.108   .     S
C1143  H1144   1.111   .     S
N1147  C1149   1.447   .     S
N1147  H1148   1.032   .     S
C1149  H1151   1.111   .     S
C1149  H1152   1.111   .     S
C1149  H1150   1.112   .     S
N1153  H1154   1.032   .     S
N1153  C1155   1.447   .     S
C1155  H1157   1.110   .     S
C1155  H1156   1.110   .     S
C1155  H1158   1.111   .     S
N1159  H1160   1.032   .     S
N1159  C1161   1.447   .     S
C1161  H1162   1.111   .     S
C1161  H1163   1.110   .     S
C1161  H576    1.110   1_556 S
N1165  H1166   1.031   .     S
N1165  C1167   1.447   .     S
C1167  H1169   1.110   .     S
C1167  H1170   1.110   .     S
C1167  H1168   1.112   .     S
N1171  H1172   1.020   .     S
N1171  C1173   1.451   .     S
C1173  H1174   1.111   .     S
C1173  H1176   1.109   .     S
C1173  H1175   1.112   .     S
