data_str_m2_o10_o17_pcu_sym.111
_audit_creation_date              2020-01-03
_audit_creation_method            'Materials Studio'
_symmetry_space_group_name_H-M    'P1'
_symmetry_Int_Tables_number       1
_symmetry_cell_setting            triclinic
loop_
_symmetry_equiv_pos_as_xyz
  x,y,z
_cell_length_a                    30.1132
_cell_length_b                    26.0549
_cell_length_c                    22.3370
_cell_angle_alpha                 102.8566
_cell_angle_beta                  94.5721
_cell_angle_gamma                 92.5562
loop_
_atom_site_label
_atom_site_type_symbol
_atom_site_fract_x
_atom_site_fract_y
_atom_site_fract_z
_atom_site_U_iso_or_equiv
_atom_site_adp_type
_atom_site_occupancy
C1     C     0.24864   0.06657   0.15110   0.00000  Uiso   1.00
C2     C     0.25136   0.26676   0.18223   0.00000  Uiso   1.00
C3     C     0.01622   0.12919   0.05648   0.00000  Uiso   1.00
C4     C     0.48378   0.20414   0.27685   0.00000  Uiso   1.00
C5     C     0.24799   0.01063   0.14232   0.00000  Uiso   1.00
C6     C     0.25201   0.32270   0.19102   0.00000  Uiso   1.00
C7     C     0.16436   0.16642   0.16720   0.00000  Uiso   1.00
C8     C     0.33564   0.16692   0.16613   0.00000  Uiso   1.00
C9     C     0.41098   0.18417   0.22096   0.00000  Uiso   1.00
C10    C     0.08902   0.14917   0.11237   0.00000  Uiso   1.00
C11    C     0.38399   0.16688   0.16552   0.00000  Uiso   1.00
C12    C     0.11601   0.16646   0.16782   0.00000  Uiso   1.00
C13    C     0.40314   0.14909   0.11020   0.00000  Uiso   1.00
C14    C     0.09686   0.18425   0.22313   0.00000  Uiso   1.00
C15    C     0.44954   0.14677   0.10989   0.00000  Uiso   1.00
C16    C     0.05046   0.18656   0.22344   0.00000  Uiso   1.00
C17    C     0.47667   0.16617   0.16616   0.00000  Uiso   1.00
C18    C     0.02333   0.16716   0.16718   0.00000  Uiso   1.00
C19    C     0.45712   0.18467   0.22155   0.00000  Uiso   1.00
C20    C     0.04288   0.14867   0.11178   0.00000  Uiso   1.00
C21    C     0.46986   0.12678   0.05497   0.00000  Uiso   1.00
C22    C     0.03014   0.20655   0.27836   0.00000  Uiso   1.00
Cu23   Cu    0.25500   0.17246   0.22813   0.00000  Uiso   1.00
Cu24   Cu    0.24499   0.16087   0.10521   0.00000  Uiso   1.00
H25    H     0.39610   0.19829   0.26377   0.00000  Uiso   1.00
H26    H     0.10390   0.13505   0.06956   0.00000  Uiso   1.00
H27    H     0.38142   0.13734   0.06792   0.00000  Uiso   1.00
H28    H     0.11858   0.19599   0.26541   0.00000  Uiso   1.00
H29    H     0.03147   0.11447   0.01413   0.00000  Uiso   1.00
H30    H     0.46853   0.21886   0.31920   0.00000  Uiso   1.00
H31    H     0.24419   0.32015   0.09535   0.00000  Uiso   1.00
H32    H     0.25581   0.01319   0.23798   0.00000  Uiso   1.00
H33    H     0.21499   0.12589   0.31605   0.00000  Uiso   1.00
H34    H     0.28501   0.20744   0.01728   0.00000  Uiso   1.00
N35    N     0.23744   0.15214   0.01284   0.00000  Uiso   1.00
N36    N     0.26255   0.18119   0.32049   0.00000  Uiso   1.00
O37    O     0.25325   0.09538   0.20659   0.00000  Uiso   1.00
O38    O     0.24674   0.23796   0.12674   0.00000  Uiso   1.00
O39    O     0.24480   0.08559   0.10279   0.00000  Uiso   1.00
O40    O     0.25520   0.24774   0.23055   0.00000  Uiso   1.00
O41    O     0.18935   0.17155   0.21857   0.00000  Uiso   1.00
O42    O     0.31064   0.16179   0.11476   0.00000  Uiso   1.00
O43    O     0.18090   0.16176   0.11477   0.00000  Uiso   1.00
O44    O     0.31910   0.17157   0.21857   0.00000  Uiso   1.00
O45    O     0.44610   0.10460   0.33243   0.00000  Uiso   1.00
H46    H     0.41885   0.08535   0.00675   0.00000  Uiso   1.00
O47    O     0.05390   0.22874   0.00090   0.00000  Uiso   1.00
H48    H     0.08115   0.24798   0.32658   0.00000  Uiso   1.00
C49    C     0.74864   0.06657   0.15110   0.00000  Uiso   1.00
C50    C     0.75136   0.26676   0.18223   0.00000  Uiso   1.00
C51    C     0.51622   0.12919   0.05648   0.00000  Uiso   1.00
C52    C     0.98378   0.20414   0.27685   0.00000  Uiso   1.00
C53    C     0.74799   0.01063   0.14232   0.00000  Uiso   1.00
C54    C     0.75201   0.32270   0.19102   0.00000  Uiso   1.00
C55    C     0.66436   0.16642   0.16720   0.00000  Uiso   1.00
C56    C     0.83564   0.16692   0.16613   0.00000  Uiso   1.00
C57    C     0.91098   0.18417   0.22096   0.00000  Uiso   1.00
C58    C     0.58902   0.14917   0.11237   0.00000  Uiso   1.00
C59    C     0.88399   0.16688   0.16552   0.00000  Uiso   1.00
C60    C     0.61601   0.16646   0.16782   0.00000  Uiso   1.00
C61    C     0.90314   0.14909   0.11020   0.00000  Uiso   1.00
C62    C     0.59686   0.18425   0.22313   0.00000  Uiso   1.00
C63    C     0.94954   0.14677   0.10989   0.00000  Uiso   1.00
C64    C     0.55046   0.18656   0.22344   0.00000  Uiso   1.00
C65    C     0.97667   0.16617   0.16616   0.00000  Uiso   1.00
C66    C     0.52333   0.16716   0.16718   0.00000  Uiso   1.00
C67    C     0.95712   0.18467   0.22155   0.00000  Uiso   1.00
C68    C     0.54288   0.14867   0.11178   0.00000  Uiso   1.00
C69    C     0.96986   0.12678   0.05497   0.00000  Uiso   1.00
C70    C     0.53014   0.20655   0.27836   0.00000  Uiso   1.00
Cu71   Cu    0.75500   0.17246   0.22813   0.00000  Uiso   1.00
Cu72   Cu    0.74499   0.16087   0.10521   0.00000  Uiso   1.00
H73    H     0.89610   0.19829   0.26377   0.00000  Uiso   1.00
H74    H     0.60390   0.13505   0.06956   0.00000  Uiso   1.00
H75    H     0.88142   0.13734   0.06792   0.00000  Uiso   1.00
H76    H     0.61858   0.19599   0.26541   0.00000  Uiso   1.00
H77    H     0.53147   0.11447   0.01413   0.00000  Uiso   1.00
H78    H     0.96853   0.21886   0.31920   0.00000  Uiso   1.00
H79    H     0.74419   0.32015   0.09535   0.00000  Uiso   1.00
H80    H     0.75581   0.01319   0.23798   0.00000  Uiso   1.00
H81    H     0.71499   0.12589   0.31605   0.00000  Uiso   1.00
H82    H     0.78501   0.20744   0.01728   0.00000  Uiso   1.00
N83    N     0.73744   0.15214   0.01284   0.00000  Uiso   1.00
N84    N     0.76255   0.18119   0.32049   0.00000  Uiso   1.00
O85    O     0.75325   0.09538   0.20659   0.00000  Uiso   1.00
O86    O     0.74674   0.23796   0.12674   0.00000  Uiso   1.00
O87    O     0.74480   0.08559   0.10279   0.00000  Uiso   1.00
O88    O     0.75520   0.24774   0.23055   0.00000  Uiso   1.00
O89    O     0.68935   0.17155   0.21857   0.00000  Uiso   1.00
O90    O     0.81064   0.16179   0.11476   0.00000  Uiso   1.00
O91    O     0.68090   0.16176   0.11477   0.00000  Uiso   1.00
O92    O     0.81910   0.17157   0.21857   0.00000  Uiso   1.00
O93    O     0.94610   0.10460   0.33243   0.00000  Uiso   1.00
H94    H     0.91885   0.08535   0.00675   0.00000  Uiso   1.00
O95    O     0.55390   0.22874   0.00090   0.00000  Uiso   1.00
H96    H     0.58115   0.24798   0.32658   0.00000  Uiso   1.00
C97    C     0.24864   0.39991   0.15110   0.00000  Uiso   1.00
C98    C     0.25136   0.60009   0.18223   0.00000  Uiso   1.00
C99    C     0.01622   0.46253   0.05648   0.00000  Uiso   1.00
C100   C     0.48378   0.53747   0.27685   0.00000  Uiso   1.00
C101   C     0.24799   0.34396   0.14232   0.00000  Uiso   1.00
C102   C     0.25201   0.65604   0.19102   0.00000  Uiso   1.00
C103   C     0.16436   0.49975   0.16720   0.00000  Uiso   1.00
C104   C     0.33564   0.50025   0.16613   0.00000  Uiso   1.00
C105   C     0.41098   0.51750   0.22096   0.00000  Uiso   1.00
C106   C     0.08902   0.48250   0.11237   0.00000  Uiso   1.00
C107   C     0.38399   0.50021   0.16552   0.00000  Uiso   1.00
C108   C     0.11601   0.49979   0.16782   0.00000  Uiso   1.00
C109   C     0.40314   0.48242   0.11020   0.00000  Uiso   1.00
C110   C     0.09686   0.51758   0.22313   0.00000  Uiso   1.00
C111   C     0.44954   0.48010   0.10989   0.00000  Uiso   1.00
C112   C     0.05046   0.51990   0.22344   0.00000  Uiso   1.00
C113   C     0.47667   0.49951   0.16616   0.00000  Uiso   1.00
C114   C     0.02333   0.50049   0.16718   0.00000  Uiso   1.00
C115   C     0.45712   0.51800   0.22155   0.00000  Uiso   1.00
C116   C     0.04288   0.48200   0.11178   0.00000  Uiso   1.00
C117   C     0.46986   0.46011   0.05497   0.00000  Uiso   1.00
C118   C     0.03014   0.53989   0.27836   0.00000  Uiso   1.00
Cu119  Cu    0.25500   0.50579   0.22813   0.00000  Uiso   1.00
Cu120  Cu    0.24499   0.49421   0.10521   0.00000  Uiso   1.00
H121   H     0.39610   0.53162   0.26377   0.00000  Uiso   1.00
H122   H     0.10390   0.46838   0.06956   0.00000  Uiso   1.00
H123   H     0.38142   0.47067   0.06792   0.00000  Uiso   1.00
H124   H     0.11858   0.52933   0.26541   0.00000  Uiso   1.00
H125   H     0.03147   0.44781   0.01413   0.00000  Uiso   1.00
H126   H     0.46853   0.55219   0.31920   0.00000  Uiso   1.00
H127   H     0.24419   0.65348   0.09535   0.00000  Uiso   1.00
H128   H     0.25581   0.34652   0.23798   0.00000  Uiso   1.00
H129   H     0.21499   0.45923   0.31605   0.00000  Uiso   1.00
H130   H     0.28501   0.54077   0.01728   0.00000  Uiso   1.00
N131   N     0.23744   0.48547   0.01284   0.00000  Uiso   1.00
N132   N     0.26255   0.51453   0.32049   0.00000  Uiso   1.00
O133   O     0.25325   0.42871   0.20659   0.00000  Uiso   1.00
O134   O     0.24674   0.57129   0.12674   0.00000  Uiso   1.00
O135   O     0.24480   0.41892   0.10279   0.00000  Uiso   1.00
O136   O     0.25520   0.58108   0.23055   0.00000  Uiso   1.00
O137   O     0.18935   0.50488   0.21857   0.00000  Uiso   1.00
O138   O     0.31064   0.49512   0.11476   0.00000  Uiso   1.00
O139   O     0.18090   0.49510   0.11477   0.00000  Uiso   1.00
O140   O     0.31910   0.50490   0.21857   0.00000  Uiso   1.00
O141   O     0.44610   0.43793   0.33243   0.00000  Uiso   1.00
H142   H     0.41885   0.41868   0.00675   0.00000  Uiso   1.00
O143   O     0.05390   0.56207   0.00090   0.00000  Uiso   1.00
H144   H     0.08115   0.58132   0.32658   0.00000  Uiso   1.00
C145   C     0.74864   0.39991   0.15110   0.00000  Uiso   1.00
C146   C     0.75136   0.60009   0.18223   0.00000  Uiso   1.00
C147   C     0.51622   0.46253   0.05648   0.00000  Uiso   1.00
C148   C     0.98378   0.53747   0.27685   0.00000  Uiso   1.00
C149   C     0.74799   0.34396   0.14232   0.00000  Uiso   1.00
C150   C     0.75201   0.65604   0.19102   0.00000  Uiso   1.00
C151   C     0.66436   0.49975   0.16720   0.00000  Uiso   1.00
C152   C     0.83564   0.50025   0.16613   0.00000  Uiso   1.00
C153   C     0.91098   0.51750   0.22096   0.00000  Uiso   1.00
C154   C     0.58902   0.48250   0.11237   0.00000  Uiso   1.00
C155   C     0.88399   0.50021   0.16552   0.00000  Uiso   1.00
C156   C     0.61601   0.49979   0.16782   0.00000  Uiso   1.00
C157   C     0.90314   0.48242   0.11020   0.00000  Uiso   1.00
C158   C     0.59686   0.51758   0.22313   0.00000  Uiso   1.00
C159   C     0.94954   0.48010   0.10989   0.00000  Uiso   1.00
C160   C     0.55046   0.51990   0.22344   0.00000  Uiso   1.00
C161   C     0.97667   0.49951   0.16616   0.00000  Uiso   1.00
C162   C     0.52333   0.50049   0.16718   0.00000  Uiso   1.00
C163   C     0.95712   0.51800   0.22155   0.00000  Uiso   1.00
C164   C     0.54288   0.48200   0.11178   0.00000  Uiso   1.00
C165   C     0.96986   0.46011   0.05497   0.00000  Uiso   1.00
C166   C     0.53014   0.53989   0.27836   0.00000  Uiso   1.00
Cu167  Cu    0.75500   0.50579   0.22813   0.00000  Uiso   1.00
Cu168  Cu    0.74499   0.49421   0.10521   0.00000  Uiso   1.00
H169   H     0.89610   0.53162   0.26377   0.00000  Uiso   1.00
H170   H     0.60390   0.46838   0.06956   0.00000  Uiso   1.00
H171   H     0.88142   0.47067   0.06792   0.00000  Uiso   1.00
H172   H     0.61858   0.52933   0.26541   0.00000  Uiso   1.00
H173   H     0.53147   0.44781   0.01413   0.00000  Uiso   1.00
H174   H     0.96853   0.55219   0.31920   0.00000  Uiso   1.00
H175   H     0.74419   0.65348   0.09535   0.00000  Uiso   1.00
H176   H     0.75581   0.34652   0.23798   0.00000  Uiso   1.00
H177   H     0.71499   0.45923   0.31605   0.00000  Uiso   1.00
H178   H     0.78501   0.54077   0.01728   0.00000  Uiso   1.00
N179   N     0.73744   0.48547   0.01284   0.00000  Uiso   1.00
N180   N     0.76255   0.51453   0.32049   0.00000  Uiso   1.00
O181   O     0.75325   0.42871   0.20659   0.00000  Uiso   1.00
O182   O     0.74674   0.57129   0.12674   0.00000  Uiso   1.00
O183   O     0.74480   0.41892   0.10279   0.00000  Uiso   1.00
O184   O     0.75520   0.58108   0.23055   0.00000  Uiso   1.00
O185   O     0.68935   0.50488   0.21857   0.00000  Uiso   1.00
O186   O     0.81064   0.49512   0.11476   0.00000  Uiso   1.00
O187   O     0.68090   0.49510   0.11477   0.00000  Uiso   1.00
O188   O     0.81910   0.50490   0.21857   0.00000  Uiso   1.00
O189   O     0.94610   0.43793   0.33243   0.00000  Uiso   1.00
H190   H     0.91885   0.41868   0.00675   0.00000  Uiso   1.00
O191   O     0.55390   0.56207   0.00090   0.00000  Uiso   1.00
H192   H     0.58115   0.58132   0.32658   0.00000  Uiso   1.00
C193   C     0.24864   0.73324   0.15110   0.00000  Uiso   1.00
C194   C     0.25136   0.93343   0.18223   0.00000  Uiso   1.00
C195   C     0.01622   0.79586   0.05648   0.00000  Uiso   1.00
C196   C     0.48378   0.87081   0.27685   0.00000  Uiso   1.00
C197   C     0.24799   0.67730   0.14232   0.00000  Uiso   1.00
C198   C     0.25201   0.98937   0.19102   0.00000  Uiso   1.00
C199   C     0.16436   0.83308   0.16720   0.00000  Uiso   1.00
C200   C     0.33564   0.83358   0.16613   0.00000  Uiso   1.00
C201   C     0.41098   0.85083   0.22096   0.00000  Uiso   1.00
C202   C     0.08902   0.81583   0.11237   0.00000  Uiso   1.00
C203   C     0.38399   0.83354   0.16552   0.00000  Uiso   1.00
C204   C     0.11601   0.83312   0.16782   0.00000  Uiso   1.00
C205   C     0.40314   0.81575   0.11020   0.00000  Uiso   1.00
C206   C     0.09686   0.85091   0.22313   0.00000  Uiso   1.00
C207   C     0.44954   0.81344   0.10989   0.00000  Uiso   1.00
C208   C     0.05046   0.85323   0.22344   0.00000  Uiso   1.00
C209   C     0.47667   0.83284   0.16616   0.00000  Uiso   1.00
C210   C     0.02333   0.83383   0.16718   0.00000  Uiso   1.00
C211   C     0.45712   0.85133   0.22155   0.00000  Uiso   1.00
C212   C     0.04288   0.81533   0.11178   0.00000  Uiso   1.00
C213   C     0.46986   0.79345   0.05497   0.00000  Uiso   1.00
C214   C     0.03014   0.87322   0.27836   0.00000  Uiso   1.00
Cu215  Cu    0.25500   0.83913   0.22813   0.00000  Uiso   1.00
Cu216  Cu    0.24499   0.82754   0.10521   0.00000  Uiso   1.00
H217   H     0.39610   0.86495   0.26377   0.00000  Uiso   1.00
H218   H     0.10390   0.80171   0.06956   0.00000  Uiso   1.00
H219   H     0.38142   0.80401   0.06792   0.00000  Uiso   1.00
H220   H     0.11858   0.86266   0.26541   0.00000  Uiso   1.00
H221   H     0.03147   0.78114   0.01413   0.00000  Uiso   1.00
H222   H     0.46853   0.88553   0.31920   0.00000  Uiso   1.00
H223   H     0.24419   0.98682   0.09535   0.00000  Uiso   1.00
H224   H     0.25581   0.67985   0.23798   0.00000  Uiso   1.00
H225   H     0.21499   0.79256   0.31605   0.00000  Uiso   1.00
H226   H     0.28501   0.87411   0.01728   0.00000  Uiso   1.00
N227   N     0.23744   0.81881   0.01284   0.00000  Uiso   1.00
N228   N     0.26255   0.84786   0.32049   0.00000  Uiso   1.00
O229   O     0.25325   0.76204   0.20659   0.00000  Uiso   1.00
O230   O     0.24674   0.90462   0.12674   0.00000  Uiso   1.00
O231   O     0.24480   0.75226   0.10279   0.00000  Uiso   1.00
O232   O     0.25520   0.91441   0.23055   0.00000  Uiso   1.00
O233   O     0.18935   0.83821   0.21857   0.00000  Uiso   1.00
O234   O     0.31064   0.82845   0.11476   0.00000  Uiso   1.00
O235   O     0.18090   0.82843   0.11477   0.00000  Uiso   1.00
O236   O     0.31910   0.83824   0.21857   0.00000  Uiso   1.00
O237   O     0.44610   0.77126   0.33243   0.00000  Uiso   1.00
H238   H     0.41885   0.75202   0.00675   0.00000  Uiso   1.00
O239   O     0.05390   0.89540   0.00090   0.00000  Uiso   1.00
H240   H     0.08115   0.91465   0.32658   0.00000  Uiso   1.00
C241   C     0.74864   0.73324   0.15110   0.00000  Uiso   1.00
C242   C     0.75136   0.93343   0.18223   0.00000  Uiso   1.00
C243   C     0.51622   0.79586   0.05648   0.00000  Uiso   1.00
C244   C     0.98378   0.87081   0.27685   0.00000  Uiso   1.00
C245   C     0.74799   0.67730   0.14232   0.00000  Uiso   1.00
C246   C     0.75201   0.98937   0.19102   0.00000  Uiso   1.00
C247   C     0.66436   0.83308   0.16720   0.00000  Uiso   1.00
C248   C     0.83564   0.83358   0.16613   0.00000  Uiso   1.00
C249   C     0.91098   0.85083   0.22096   0.00000  Uiso   1.00
C250   C     0.58902   0.81583   0.11237   0.00000  Uiso   1.00
C251   C     0.88399   0.83354   0.16552   0.00000  Uiso   1.00
C252   C     0.61601   0.83312   0.16782   0.00000  Uiso   1.00
C253   C     0.90314   0.81575   0.11020   0.00000  Uiso   1.00
C254   C     0.59686   0.85091   0.22313   0.00000  Uiso   1.00
C255   C     0.94954   0.81344   0.10989   0.00000  Uiso   1.00
C256   C     0.55046   0.85323   0.22344   0.00000  Uiso   1.00
C257   C     0.97667   0.83284   0.16616   0.00000  Uiso   1.00
C258   C     0.52333   0.83383   0.16718   0.00000  Uiso   1.00
C259   C     0.95712   0.85133   0.22155   0.00000  Uiso   1.00
C260   C     0.54288   0.81533   0.11178   0.00000  Uiso   1.00
C261   C     0.96986   0.79345   0.05497   0.00000  Uiso   1.00
C262   C     0.53014   0.87322   0.27836   0.00000  Uiso   1.00
Cu263  Cu    0.75500   0.83913   0.22813   0.00000  Uiso   1.00
Cu264  Cu    0.74499   0.82754   0.10521   0.00000  Uiso   1.00
H265   H     0.89610   0.86495   0.26377   0.00000  Uiso   1.00
H266   H     0.60390   0.80171   0.06956   0.00000  Uiso   1.00
H267   H     0.88142   0.80401   0.06792   0.00000  Uiso   1.00
H268   H     0.61858   0.86266   0.26541   0.00000  Uiso   1.00
H269   H     0.53147   0.78114   0.01413   0.00000  Uiso   1.00
H270   H     0.96853   0.88553   0.31920   0.00000  Uiso   1.00
H271   H     0.74419   0.98682   0.09535   0.00000  Uiso   1.00
H272   H     0.75581   0.67985   0.23798   0.00000  Uiso   1.00
H273   H     0.71499   0.79256   0.31605   0.00000  Uiso   1.00
H274   H     0.78501   0.87411   0.01728   0.00000  Uiso   1.00
N275   N     0.73744   0.81881   0.01284   0.00000  Uiso   1.00
N276   N     0.76255   0.84786   0.32049   0.00000  Uiso   1.00
O277   O     0.75325   0.76204   0.20659   0.00000  Uiso   1.00
O278   O     0.74674   0.90462   0.12674   0.00000  Uiso   1.00
O279   O     0.74480   0.75226   0.10279   0.00000  Uiso   1.00
O280   O     0.75520   0.91441   0.23055   0.00000  Uiso   1.00
O281   O     0.68935   0.83821   0.21857   0.00000  Uiso   1.00
O282   O     0.81064   0.82845   0.11476   0.00000  Uiso   1.00
O283   O     0.68090   0.82843   0.11477   0.00000  Uiso   1.00
O284   O     0.81910   0.83824   0.21857   0.00000  Uiso   1.00
O285   O     0.94610   0.77126   0.33243   0.00000  Uiso   1.00
H286   H     0.91885   0.75202   0.00675   0.00000  Uiso   1.00
O287   O     0.55390   0.89540   0.00090   0.00000  Uiso   1.00
H288   H     0.58115   0.91465   0.32658   0.00000  Uiso   1.00
C289   C     0.24864   0.06657   0.48443   0.00000  Uiso   1.00
C290   C     0.25136   0.26676   0.51557   0.00000  Uiso   1.00
C291   C     0.01622   0.12919   0.38981   0.00000  Uiso   1.00
C292   C     0.48378   0.20414   0.61019   0.00000  Uiso   1.00
C293   C     0.24799   0.01063   0.47565   0.00000  Uiso   1.00
C294   C     0.25201   0.32270   0.52435   0.00000  Uiso   1.00
C295   C     0.16436   0.16642   0.50054   0.00000  Uiso   1.00
C296   C     0.33564   0.16692   0.49946   0.00000  Uiso   1.00
C297   C     0.41098   0.18417   0.55430   0.00000  Uiso   1.00
C298   C     0.08902   0.14917   0.44570   0.00000  Uiso   1.00
C299   C     0.38399   0.16688   0.49885   0.00000  Uiso   1.00
C300   C     0.11601   0.16646   0.50115   0.00000  Uiso   1.00
C301   C     0.40314   0.14909   0.44353   0.00000  Uiso   1.00
C302   C     0.09686   0.18425   0.55647   0.00000  Uiso   1.00
C303   C     0.44954   0.14677   0.44323   0.00000  Uiso   1.00
C304   C     0.05046   0.18656   0.55677   0.00000  Uiso   1.00
C305   C     0.47667   0.16617   0.49949   0.00000  Uiso   1.00
C306   C     0.02333   0.16716   0.50051   0.00000  Uiso   1.00
C307   C     0.45712   0.18467   0.55489   0.00000  Uiso   1.00
C308   C     0.04288   0.14867   0.44511   0.00000  Uiso   1.00
C309   C     0.46986   0.12678   0.38831   0.00000  Uiso   1.00
C310   C     0.03014   0.20655   0.61169   0.00000  Uiso   1.00
Cu311  Cu    0.25500   0.17246   0.56146   0.00000  Uiso   1.00
Cu312  Cu    0.24499   0.16087   0.43854   0.00000  Uiso   1.00
H313   H     0.39610   0.19829   0.59710   0.00000  Uiso   1.00
H314   H     0.10390   0.13505   0.40290   0.00000  Uiso   1.00
H315   H     0.38142   0.13734   0.40125   0.00000  Uiso   1.00
H316   H     0.11858   0.19599   0.59875   0.00000  Uiso   1.00
H317   H     0.03147   0.11447   0.34747   0.00000  Uiso   1.00
H318   H     0.46853   0.21886   0.65253   0.00000  Uiso   1.00
H319   H     0.24419   0.32015   0.42869   0.00000  Uiso   1.00
H320   H     0.25581   0.01319   0.57131   0.00000  Uiso   1.00
H321   H     0.21499   0.12589   0.64939   0.00000  Uiso   1.00
H322   H     0.28501   0.20744   0.35061   0.00000  Uiso   1.00
N323   N     0.23744   0.15214   0.34617   0.00000  Uiso   1.00
N324   N     0.26255   0.18119   0.65383   0.00000  Uiso   1.00
O325   O     0.25325   0.09538   0.53992   0.00000  Uiso   1.00
O326   O     0.24674   0.23796   0.46008   0.00000  Uiso   1.00
O327   O     0.24480   0.08559   0.43612   0.00000  Uiso   1.00
O328   O     0.25520   0.24774   0.56388   0.00000  Uiso   1.00
O329   O     0.18935   0.17155   0.55191   0.00000  Uiso   1.00
O330   O     0.31064   0.16179   0.44809   0.00000  Uiso   1.00
O331   O     0.18090   0.16176   0.44810   0.00000  Uiso   1.00
O332   O     0.31910   0.17157   0.55190   0.00000  Uiso   1.00
O333   O     0.44610   0.10460   0.66576   0.00000  Uiso   1.00
H334   H     0.41885   0.08535   0.34009   0.00000  Uiso   1.00
O335   O     0.05390   0.22874   0.33424   0.00000  Uiso   1.00
H336   H     0.08115   0.24798   0.65991   0.00000  Uiso   1.00
C337   C     0.74864   0.06657   0.48443   0.00000  Uiso   1.00
C338   C     0.75136   0.26676   0.51557   0.00000  Uiso   1.00
C339   C     0.51622   0.12919   0.38981   0.00000  Uiso   1.00
C340   C     0.98378   0.20414   0.61019   0.00000  Uiso   1.00
C341   C     0.74799   0.01063   0.47565   0.00000  Uiso   1.00
C342   C     0.75201   0.32270   0.52435   0.00000  Uiso   1.00
C343   C     0.66436   0.16642   0.50054   0.00000  Uiso   1.00
C344   C     0.83564   0.16692   0.49946   0.00000  Uiso   1.00
C345   C     0.91098   0.18417   0.55430   0.00000  Uiso   1.00
C346   C     0.58902   0.14917   0.44570   0.00000  Uiso   1.00
C347   C     0.88399   0.16688   0.49885   0.00000  Uiso   1.00
C348   C     0.61601   0.16646   0.50115   0.00000  Uiso   1.00
C349   C     0.90314   0.14909   0.44353   0.00000  Uiso   1.00
C350   C     0.59686   0.18425   0.55647   0.00000  Uiso   1.00
C351   C     0.94954   0.14677   0.44323   0.00000  Uiso   1.00
C352   C     0.55046   0.18656   0.55677   0.00000  Uiso   1.00
C353   C     0.97667   0.16617   0.49949   0.00000  Uiso   1.00
C354   C     0.52333   0.16716   0.50051   0.00000  Uiso   1.00
C355   C     0.95712   0.18467   0.55489   0.00000  Uiso   1.00
C356   C     0.54288   0.14867   0.44511   0.00000  Uiso   1.00
C357   C     0.96986   0.12678   0.38831   0.00000  Uiso   1.00
C358   C     0.53014   0.20655   0.61169   0.00000  Uiso   1.00
Cu359  Cu    0.75500   0.17246   0.56146   0.00000  Uiso   1.00
Cu360  Cu    0.74499   0.16087   0.43854   0.00000  Uiso   1.00
H361   H     0.89610   0.19829   0.59710   0.00000  Uiso   1.00
H362   H     0.60390   0.13505   0.40290   0.00000  Uiso   1.00
H363   H     0.88142   0.13734   0.40125   0.00000  Uiso   1.00
H364   H     0.61858   0.19599   0.59875   0.00000  Uiso   1.00
H365   H     0.53147   0.11447   0.34747   0.00000  Uiso   1.00
H366   H     0.96853   0.21886   0.65253   0.00000  Uiso   1.00
H367   H     0.74419   0.32015   0.42869   0.00000  Uiso   1.00
H368   H     0.75581   0.01319   0.57131   0.00000  Uiso   1.00
H369   H     0.71499   0.12589   0.64939   0.00000  Uiso   1.00
H370   H     0.78501   0.20744   0.35061   0.00000  Uiso   1.00
N371   N     0.73744   0.15214   0.34617   0.00000  Uiso   1.00
N372   N     0.76255   0.18119   0.65383   0.00000  Uiso   1.00
O373   O     0.75325   0.09538   0.53992   0.00000  Uiso   1.00
O374   O     0.74674   0.23796   0.46008   0.00000  Uiso   1.00
O375   O     0.74480   0.08559   0.43612   0.00000  Uiso   1.00
O376   O     0.75520   0.24774   0.56388   0.00000  Uiso   1.00
O377   O     0.68935   0.17155   0.55191   0.00000  Uiso   1.00
O378   O     0.81064   0.16179   0.44809   0.00000  Uiso   1.00
O379   O     0.68090   0.16176   0.44810   0.00000  Uiso   1.00
O380   O     0.81910   0.17157   0.55190   0.00000  Uiso   1.00
O381   O     0.94610   0.10460   0.66576   0.00000  Uiso   1.00
H382   H     0.91885   0.08535   0.34009   0.00000  Uiso   1.00
O383   O     0.55390   0.22874   0.33424   0.00000  Uiso   1.00
H384   H     0.58115   0.24798   0.65991   0.00000  Uiso   1.00
C385   C     0.24864   0.39991   0.48443   0.00000  Uiso   1.00
C386   C     0.25136   0.60009   0.51557   0.00000  Uiso   1.00
C387   C     0.01622   0.46253   0.38981   0.00000  Uiso   1.00
C388   C     0.48378   0.53747   0.61019   0.00000  Uiso   1.00
C389   C     0.24799   0.34396   0.47565   0.00000  Uiso   1.00
C390   C     0.25201   0.65604   0.52435   0.00000  Uiso   1.00
C391   C     0.16436   0.49975   0.50054   0.00000  Uiso   1.00
C392   C     0.33564   0.50025   0.49946   0.00000  Uiso   1.00
C393   C     0.41098   0.51750   0.55430   0.00000  Uiso   1.00
C394   C     0.08902   0.48250   0.44570   0.00000  Uiso   1.00
C395   C     0.38399   0.50021   0.49885   0.00000  Uiso   1.00
C396   C     0.11601   0.49979   0.50115   0.00000  Uiso   1.00
C397   C     0.40314   0.48242   0.44353   0.00000  Uiso   1.00
C398   C     0.09686   0.51758   0.55647   0.00000  Uiso   1.00
C399   C     0.44954   0.48010   0.44323   0.00000  Uiso   1.00
C400   C     0.05046   0.51990   0.55677   0.00000  Uiso   1.00
C401   C     0.47667   0.49951   0.49949   0.00000  Uiso   1.00
C402   C     0.02333   0.50049   0.50051   0.00000  Uiso   1.00
C403   C     0.45712   0.51800   0.55489   0.00000  Uiso   1.00
C404   C     0.04288   0.48200   0.44511   0.00000  Uiso   1.00
C405   C     0.46986   0.46011   0.38831   0.00000  Uiso   1.00
C406   C     0.03014   0.53989   0.61169   0.00000  Uiso   1.00
Cu407  Cu    0.25500   0.50579   0.56146   0.00000  Uiso   1.00
Cu408  Cu    0.24499   0.49421   0.43854   0.00000  Uiso   1.00
H409   H     0.39610   0.53162   0.59710   0.00000  Uiso   1.00
H410   H     0.10390   0.46838   0.40290   0.00000  Uiso   1.00
H411   H     0.38142   0.47067   0.40125   0.00000  Uiso   1.00
H412   H     0.11858   0.52933   0.59875   0.00000  Uiso   1.00
H413   H     0.03147   0.44781   0.34747   0.00000  Uiso   1.00
H414   H     0.46853   0.55219   0.65253   0.00000  Uiso   1.00
H415   H     0.24419   0.65348   0.42869   0.00000  Uiso   1.00
H416   H     0.25581   0.34652   0.57131   0.00000  Uiso   1.00
H417   H     0.21499   0.45923   0.64939   0.00000  Uiso   1.00
H418   H     0.28501   0.54077   0.35061   0.00000  Uiso   1.00
N419   N     0.23744   0.48547   0.34617   0.00000  Uiso   1.00
N420   N     0.26255   0.51453   0.65383   0.00000  Uiso   1.00
O421   O     0.25325   0.42871   0.53992   0.00000  Uiso   1.00
O422   O     0.24674   0.57129   0.46008   0.00000  Uiso   1.00
O423   O     0.24480   0.41892   0.43612   0.00000  Uiso   1.00
O424   O     0.25520   0.58108   0.56388   0.00000  Uiso   1.00
O425   O     0.18935   0.50488   0.55191   0.00000  Uiso   1.00
O426   O     0.31064   0.49512   0.44809   0.00000  Uiso   1.00
O427   O     0.18090   0.49510   0.44810   0.00000  Uiso   1.00
O428   O     0.31910   0.50490   0.55190   0.00000  Uiso   1.00
O429   O     0.44610   0.43793   0.66576   0.00000  Uiso   1.00
H430   H     0.41885   0.41868   0.34009   0.00000  Uiso   1.00
O431   O     0.05390   0.56207   0.33424   0.00000  Uiso   1.00
H432   H     0.08115   0.58132   0.65991   0.00000  Uiso   1.00
C433   C     0.74864   0.39991   0.48443   0.00000  Uiso   1.00
C434   C     0.75136   0.60009   0.51557   0.00000  Uiso   1.00
C435   C     0.51622   0.46253   0.38981   0.00000  Uiso   1.00
C436   C     0.98378   0.53747   0.61019   0.00000  Uiso   1.00
C437   C     0.74799   0.34396   0.47565   0.00000  Uiso   1.00
C438   C     0.75201   0.65604   0.52435   0.00000  Uiso   1.00
C439   C     0.66436   0.49975   0.50054   0.00000  Uiso   1.00
C440   C     0.83564   0.50025   0.49946   0.00000  Uiso   1.00
C441   C     0.91098   0.51750   0.55430   0.00000  Uiso   1.00
C442   C     0.58902   0.48250   0.44570   0.00000  Uiso   1.00
C443   C     0.88399   0.50021   0.49885   0.00000  Uiso   1.00
C444   C     0.61601   0.49979   0.50115   0.00000  Uiso   1.00
C445   C     0.90314   0.48242   0.44353   0.00000  Uiso   1.00
C446   C     0.59686   0.51758   0.55647   0.00000  Uiso   1.00
C447   C     0.94954   0.48010   0.44323   0.00000  Uiso   1.00
C448   C     0.55046   0.51990   0.55677   0.00000  Uiso   1.00
C449   C     0.97667   0.49951   0.49949   0.00000  Uiso   1.00
C450   C     0.52333   0.50049   0.50051   0.00000  Uiso   1.00
C451   C     0.95712   0.51800   0.55489   0.00000  Uiso   1.00
C452   C     0.54288   0.48200   0.44511   0.00000  Uiso   1.00
C453   C     0.96986   0.46011   0.38831   0.00000  Uiso   1.00
C454   C     0.53014   0.53989   0.61169   0.00000  Uiso   1.00
Cu455  Cu    0.75500   0.50579   0.56146   0.00000  Uiso   1.00
Cu456  Cu    0.74499   0.49421   0.43854   0.00000  Uiso   1.00
H457   H     0.89610   0.53162   0.59710   0.00000  Uiso   1.00
H458   H     0.60390   0.46838   0.40290   0.00000  Uiso   1.00
H459   H     0.88142   0.47067   0.40125   0.00000  Uiso   1.00
H460   H     0.61858   0.52933   0.59875   0.00000  Uiso   1.00
H461   H     0.53147   0.44781   0.34747   0.00000  Uiso   1.00
H462   H     0.96853   0.55219   0.65253   0.00000  Uiso   1.00
H463   H     0.74419   0.65348   0.42869   0.00000  Uiso   1.00
H464   H     0.75581   0.34652   0.57131   0.00000  Uiso   1.00
H465   H     0.71499   0.45923   0.64939   0.00000  Uiso   1.00
H466   H     0.78501   0.54077   0.35061   0.00000  Uiso   1.00
N467   N     0.73744   0.48547   0.34617   0.00000  Uiso   1.00
N468   N     0.76255   0.51453   0.65383   0.00000  Uiso   1.00
O469   O     0.75325   0.42871   0.53992   0.00000  Uiso   1.00
O470   O     0.74674   0.57129   0.46008   0.00000  Uiso   1.00
O471   O     0.74480   0.41892   0.43612   0.00000  Uiso   1.00
O472   O     0.75520   0.58108   0.56388   0.00000  Uiso   1.00
O473   O     0.68935   0.50488   0.55191   0.00000  Uiso   1.00
O474   O     0.81064   0.49512   0.44809   0.00000  Uiso   1.00
O475   O     0.68090   0.49510   0.44810   0.00000  Uiso   1.00
O476   O     0.81910   0.50490   0.55190   0.00000  Uiso   1.00
O477   O     0.94610   0.43793   0.66576   0.00000  Uiso   1.00
H478   H     0.91885   0.41868   0.34009   0.00000  Uiso   1.00
O479   O     0.55390   0.56207   0.33424   0.00000  Uiso   1.00
H480   H     0.58115   0.58132   0.65991   0.00000  Uiso   1.00
C481   C     0.24864   0.73324   0.48443   0.00000  Uiso   1.00
C482   C     0.25136   0.93343   0.51557   0.00000  Uiso   1.00
C483   C     0.01622   0.79586   0.38981   0.00000  Uiso   1.00
C484   C     0.48378   0.87081   0.61019   0.00000  Uiso   1.00
C485   C     0.24799   0.67730   0.47565   0.00000  Uiso   1.00
C486   C     0.25201   0.98937   0.52435   0.00000  Uiso   1.00
C487   C     0.16436   0.83308   0.50054   0.00000  Uiso   1.00
C488   C     0.33564   0.83358   0.49946   0.00000  Uiso   1.00
C489   C     0.41098   0.85083   0.55430   0.00000  Uiso   1.00
C490   C     0.08902   0.81583   0.44570   0.00000  Uiso   1.00
C491   C     0.38399   0.83354   0.49885   0.00000  Uiso   1.00
C492   C     0.11601   0.83312   0.50115   0.00000  Uiso   1.00
C493   C     0.40314   0.81575   0.44353   0.00000  Uiso   1.00
C494   C     0.09686   0.85091   0.55647   0.00000  Uiso   1.00
C495   C     0.44954   0.81344   0.44323   0.00000  Uiso   1.00
C496   C     0.05046   0.85323   0.55677   0.00000  Uiso   1.00
C497   C     0.47667   0.83284   0.49949   0.00000  Uiso   1.00
C498   C     0.02333   0.83383   0.50051   0.00000  Uiso   1.00
C499   C     0.45712   0.85133   0.55489   0.00000  Uiso   1.00
C500   C     0.04288   0.81533   0.44511   0.00000  Uiso   1.00
C501   C     0.46986   0.79345   0.38831   0.00000  Uiso   1.00
C502   C     0.03014   0.87322   0.61169   0.00000  Uiso   1.00
Cu503  Cu    0.25500   0.83913   0.56146   0.00000  Uiso   1.00
Cu504  Cu    0.24499   0.82754   0.43854   0.00000  Uiso   1.00
H505   H     0.39610   0.86495   0.59710   0.00000  Uiso   1.00
H506   H     0.10390   0.80171   0.40290   0.00000  Uiso   1.00
H507   H     0.38142   0.80401   0.40125   0.00000  Uiso   1.00
H508   H     0.11858   0.86266   0.59875   0.00000  Uiso   1.00
H509   H     0.03147   0.78114   0.34747   0.00000  Uiso   1.00
H510   H     0.46853   0.88553   0.65253   0.00000  Uiso   1.00
H511   H     0.24419   0.98682   0.42869   0.00000  Uiso   1.00
H512   H     0.25581   0.67985   0.57131   0.00000  Uiso   1.00
H513   H     0.21499   0.79256   0.64939   0.00000  Uiso   1.00
H514   H     0.28501   0.87411   0.35061   0.00000  Uiso   1.00
N515   N     0.23744   0.81881   0.34617   0.00000  Uiso   1.00
N516   N     0.26255   0.84786   0.65383   0.00000  Uiso   1.00
O517   O     0.25325   0.76204   0.53992   0.00000  Uiso   1.00
O518   O     0.24674   0.90462   0.46008   0.00000  Uiso   1.00
O519   O     0.24480   0.75226   0.43612   0.00000  Uiso   1.00
O520   O     0.25520   0.91441   0.56388   0.00000  Uiso   1.00
O521   O     0.18935   0.83821   0.55191   0.00000  Uiso   1.00
O522   O     0.31064   0.82845   0.44809   0.00000  Uiso   1.00
O523   O     0.18090   0.82843   0.44810   0.00000  Uiso   1.00
O524   O     0.31910   0.83824   0.55190   0.00000  Uiso   1.00
O525   O     0.44610   0.77126   0.66576   0.00000  Uiso   1.00
H526   H     0.41885   0.75202   0.34009   0.00000  Uiso   1.00
O527   O     0.05390   0.89540   0.33424   0.00000  Uiso   1.00
H528   H     0.08115   0.91465   0.65991   0.00000  Uiso   1.00
C529   C     0.74864   0.73324   0.48443   0.00000  Uiso   1.00
C530   C     0.75136   0.93343   0.51557   0.00000  Uiso   1.00
C531   C     0.51622   0.79586   0.38981   0.00000  Uiso   1.00
C532   C     0.98378   0.87081   0.61019   0.00000  Uiso   1.00
C533   C     0.74799   0.67730   0.47565   0.00000  Uiso   1.00
C534   C     0.75201   0.98937   0.52435   0.00000  Uiso   1.00
C535   C     0.66436   0.83308   0.50054   0.00000  Uiso   1.00
C536   C     0.83564   0.83358   0.49946   0.00000  Uiso   1.00
C537   C     0.91098   0.85083   0.55430   0.00000  Uiso   1.00
C538   C     0.58902   0.81583   0.44570   0.00000  Uiso   1.00
C539   C     0.88399   0.83354   0.49885   0.00000  Uiso   1.00
C540   C     0.61601   0.83312   0.50115   0.00000  Uiso   1.00
C541   C     0.90314   0.81575   0.44353   0.00000  Uiso   1.00
C542   C     0.59686   0.85091   0.55647   0.00000  Uiso   1.00
C543   C     0.94954   0.81344   0.44323   0.00000  Uiso   1.00
C544   C     0.55046   0.85323   0.55677   0.00000  Uiso   1.00
C545   C     0.97667   0.83284   0.49949   0.00000  Uiso   1.00
C546   C     0.52333   0.83383   0.50051   0.00000  Uiso   1.00
C547   C     0.95712   0.85133   0.55489   0.00000  Uiso   1.00
C548   C     0.54288   0.81533   0.44511   0.00000  Uiso   1.00
C549   C     0.96986   0.79345   0.38831   0.00000  Uiso   1.00
C550   C     0.53014   0.87322   0.61169   0.00000  Uiso   1.00
Cu551  Cu    0.75500   0.83913   0.56146   0.00000  Uiso   1.00
Cu552  Cu    0.74499   0.82754   0.43854   0.00000  Uiso   1.00
H553   H     0.89610   0.86495   0.59710   0.00000  Uiso   1.00
H554   H     0.60390   0.80171   0.40290   0.00000  Uiso   1.00
H555   H     0.88142   0.80401   0.40125   0.00000  Uiso   1.00
H556   H     0.61858   0.86266   0.59875   0.00000  Uiso   1.00
H557   H     0.53147   0.78114   0.34747   0.00000  Uiso   1.00
H558   H     0.96853   0.88553   0.65253   0.00000  Uiso   1.00
H559   H     0.74419   0.98682   0.42869   0.00000  Uiso   1.00
H560   H     0.75581   0.67985   0.57131   0.00000  Uiso   1.00
H561   H     0.71499   0.79256   0.64939   0.00000  Uiso   1.00
H562   H     0.78501   0.87411   0.35061   0.00000  Uiso   1.00
N563   N     0.73744   0.81881   0.34617   0.00000  Uiso   1.00
N564   N     0.76255   0.84786   0.65383   0.00000  Uiso   1.00
O565   O     0.75325   0.76204   0.53992   0.00000  Uiso   1.00
O566   O     0.74674   0.90462   0.46008   0.00000  Uiso   1.00
O567   O     0.74480   0.75226   0.43612   0.00000  Uiso   1.00
O568   O     0.75520   0.91441   0.56388   0.00000  Uiso   1.00
O569   O     0.68935   0.83821   0.55191   0.00000  Uiso   1.00
O570   O     0.81064   0.82845   0.44809   0.00000  Uiso   1.00
O571   O     0.68090   0.82843   0.44810   0.00000  Uiso   1.00
O572   O     0.81910   0.83824   0.55190   0.00000  Uiso   1.00
O573   O     0.94610   0.77126   0.66576   0.00000  Uiso   1.00
H574   H     0.91885   0.75202   0.34009   0.00000  Uiso   1.00
O575   O     0.55390   0.89540   0.33424   0.00000  Uiso   1.00
H576   H     0.58115   0.91465   0.65991   0.00000  Uiso   1.00
C577   C     0.24864   0.06657   0.81777   0.00000  Uiso   1.00
C578   C     0.25136   0.26676   0.84890   0.00000  Uiso   1.00
C579   C     0.01622   0.12919   0.72315   0.00000  Uiso   1.00
C580   C     0.48378   0.20414   0.94352   0.00000  Uiso   1.00
C581   C     0.24799   0.01063   0.80898   0.00000  Uiso   1.00
C582   C     0.25201   0.32270   0.85769   0.00000  Uiso   1.00
C583   C     0.16436   0.16642   0.83387   0.00000  Uiso   1.00
C584   C     0.33564   0.16692   0.83280   0.00000  Uiso   1.00
C585   C     0.41098   0.18417   0.88763   0.00000  Uiso   1.00
C586   C     0.08902   0.14917   0.77904   0.00000  Uiso   1.00
C587   C     0.38399   0.16688   0.83218   0.00000  Uiso   1.00
C588   C     0.11601   0.16646   0.83448   0.00000  Uiso   1.00
C589   C     0.40314   0.14909   0.77687   0.00000  Uiso   1.00
C590   C     0.09686   0.18425   0.88980   0.00000  Uiso   1.00
C591   C     0.44954   0.14677   0.77656   0.00000  Uiso   1.00
C592   C     0.05046   0.18656   0.89011   0.00000  Uiso   1.00
C593   C     0.47667   0.16617   0.83282   0.00000  Uiso   1.00
C594   C     0.02333   0.16716   0.83384   0.00000  Uiso   1.00
C595   C     0.45712   0.18467   0.88822   0.00000  Uiso   1.00
C596   C     0.04288   0.14867   0.77845   0.00000  Uiso   1.00
C597   C     0.46986   0.12678   0.72164   0.00000  Uiso   1.00
C598   C     0.03014   0.20655   0.94503   0.00000  Uiso   1.00
Cu599  Cu    0.25500   0.17246   0.89479   0.00000  Uiso   1.00
Cu600  Cu    0.24499   0.16087   0.77187   0.00000  Uiso   1.00
H601   H     0.39610   0.19829   0.93044   0.00000  Uiso   1.00
H602   H     0.10390   0.13505   0.73623   0.00000  Uiso   1.00
H603   H     0.38142   0.13734   0.73459   0.00000  Uiso   1.00
H604   H     0.11858   0.19599   0.93208   0.00000  Uiso   1.00
H605   H     0.03147   0.11447   0.68080   0.00000  Uiso   1.00
H606   H     0.46853   0.21886   0.98587   0.00000  Uiso   1.00
H607   H     0.24419   0.32015   0.76202   0.00000  Uiso   1.00
H608   H     0.25581   0.01319   0.90465   0.00000  Uiso   1.00
H609   H     0.21499   0.12589   0.98272   0.00000  Uiso   1.00
H610   H     0.28501   0.20744   0.68395   0.00000  Uiso   1.00
N611   N     0.23744   0.15214   0.67951   0.00000  Uiso   1.00
N612   N     0.26255   0.18119   0.98716   0.00000  Uiso   1.00
O613   O     0.25325   0.09538   0.87326   0.00000  Uiso   1.00
O614   O     0.24674   0.23796   0.79341   0.00000  Uiso   1.00
O615   O     0.24480   0.08559   0.76945   0.00000  Uiso   1.00
O616   O     0.25520   0.24774   0.89721   0.00000  Uiso   1.00
O617   O     0.18935   0.17155   0.88524   0.00000  Uiso   1.00
O618   O     0.31064   0.16179   0.78143   0.00000  Uiso   1.00
O619   O     0.18090   0.16176   0.78143   0.00000  Uiso   1.00
O620   O     0.31910   0.17157   0.88523   0.00000  Uiso   1.00
O621   O     0.44610   0.10460   0.99910   0.00000  Uiso   1.00
H622   H     0.41885   0.08535   0.67342   0.00000  Uiso   1.00
O623   O     0.05390   0.22874   0.66757   0.00000  Uiso   1.00
H624   H     0.08115   0.24798   0.99325   0.00000  Uiso   1.00
C625   C     0.74864   0.06657   0.81777   0.00000  Uiso   1.00
C626   C     0.75136   0.26676   0.84890   0.00000  Uiso   1.00
C627   C     0.51622   0.12919   0.72315   0.00000  Uiso   1.00
C628   C     0.98378   0.20414   0.94352   0.00000  Uiso   1.00
C629   C     0.74799   0.01063   0.80898   0.00000  Uiso   1.00
C630   C     0.75201   0.32270   0.85769   0.00000  Uiso   1.00
C631   C     0.66436   0.16642   0.83387   0.00000  Uiso   1.00
C632   C     0.83564   0.16692   0.83280   0.00000  Uiso   1.00
C633   C     0.91098   0.18417   0.88763   0.00000  Uiso   1.00
C634   C     0.58902   0.14917   0.77904   0.00000  Uiso   1.00
C635   C     0.88399   0.16688   0.83218   0.00000  Uiso   1.00
C636   C     0.61601   0.16646   0.83448   0.00000  Uiso   1.00
C637   C     0.90314   0.14909   0.77687   0.00000  Uiso   1.00
C638   C     0.59686   0.18425   0.88980   0.00000  Uiso   1.00
C639   C     0.94954   0.14677   0.77656   0.00000  Uiso   1.00
C640   C     0.55046   0.18656   0.89011   0.00000  Uiso   1.00
C641   C     0.97667   0.16617   0.83282   0.00000  Uiso   1.00
C642   C     0.52333   0.16716   0.83384   0.00000  Uiso   1.00
C643   C     0.95712   0.18467   0.88822   0.00000  Uiso   1.00
C644   C     0.54288   0.14867   0.77845   0.00000  Uiso   1.00
C645   C     0.96986   0.12678   0.72164   0.00000  Uiso   1.00
C646   C     0.53014   0.20655   0.94503   0.00000  Uiso   1.00
Cu647  Cu    0.75500   0.17246   0.89479   0.00000  Uiso   1.00
Cu648  Cu    0.74499   0.16087   0.77187   0.00000  Uiso   1.00
H649   H     0.89610   0.19829   0.93044   0.00000  Uiso   1.00
H650   H     0.60390   0.13505   0.73623   0.00000  Uiso   1.00
H651   H     0.88142   0.13734   0.73459   0.00000  Uiso   1.00
H652   H     0.61858   0.19599   0.93208   0.00000  Uiso   1.00
H653   H     0.53147   0.11447   0.68080   0.00000  Uiso   1.00
H654   H     0.96853   0.21886   0.98587   0.00000  Uiso   1.00
H655   H     0.74419   0.32015   0.76202   0.00000  Uiso   1.00
H656   H     0.75581   0.01319   0.90465   0.00000  Uiso   1.00
H657   H     0.71499   0.12589   0.98272   0.00000  Uiso   1.00
H658   H     0.78501   0.20744   0.68395   0.00000  Uiso   1.00
N659   N     0.73744   0.15214   0.67951   0.00000  Uiso   1.00
N660   N     0.76255   0.18119   0.98716   0.00000  Uiso   1.00
O661   O     0.75325   0.09538   0.87326   0.00000  Uiso   1.00
O662   O     0.74674   0.23796   0.79341   0.00000  Uiso   1.00
O663   O     0.74480   0.08559   0.76945   0.00000  Uiso   1.00
O664   O     0.75520   0.24774   0.89721   0.00000  Uiso   1.00
O665   O     0.68935   0.17155   0.88524   0.00000  Uiso   1.00
O666   O     0.81064   0.16179   0.78143   0.00000  Uiso   1.00
O667   O     0.68090   0.16176   0.78143   0.00000  Uiso   1.00
O668   O     0.81910   0.17157   0.88523   0.00000  Uiso   1.00
O669   O     0.94610   0.10460   0.99910   0.00000  Uiso   1.00
H670   H     0.91885   0.08535   0.67342   0.00000  Uiso   1.00
O671   O     0.55390   0.22874   0.66757   0.00000  Uiso   1.00
H672   H     0.58115   0.24798   0.99325   0.00000  Uiso   1.00
C673   C     0.24864   0.39991   0.81777   0.00000  Uiso   1.00
C674   C     0.25136   0.60009   0.84890   0.00000  Uiso   1.00
C675   C     0.01622   0.46253   0.72315   0.00000  Uiso   1.00
C676   C     0.48378   0.53747   0.94352   0.00000  Uiso   1.00
C677   C     0.24799   0.34396   0.80898   0.00000  Uiso   1.00
C678   C     0.25201   0.65604   0.85769   0.00000  Uiso   1.00
C679   C     0.16436   0.49975   0.83387   0.00000  Uiso   1.00
C680   C     0.33564   0.50025   0.83280   0.00000  Uiso   1.00
C681   C     0.41098   0.51750   0.88763   0.00000  Uiso   1.00
C682   C     0.08902   0.48250   0.77904   0.00000  Uiso   1.00
C683   C     0.38399   0.50021   0.83218   0.00000  Uiso   1.00
C684   C     0.11601   0.49979   0.83448   0.00000  Uiso   1.00
C685   C     0.40314   0.48242   0.77687   0.00000  Uiso   1.00
C686   C     0.09686   0.51758   0.88980   0.00000  Uiso   1.00
C687   C     0.44954   0.48010   0.77656   0.00000  Uiso   1.00
C688   C     0.05046   0.51990   0.89011   0.00000  Uiso   1.00
C689   C     0.47667   0.49951   0.83282   0.00000  Uiso   1.00
C690   C     0.02333   0.50049   0.83384   0.00000  Uiso   1.00
C691   C     0.45712   0.51800   0.88822   0.00000  Uiso   1.00
C692   C     0.04288   0.48200   0.77845   0.00000  Uiso   1.00
C693   C     0.46986   0.46011   0.72164   0.00000  Uiso   1.00
C694   C     0.03014   0.53989   0.94503   0.00000  Uiso   1.00
Cu695  Cu    0.25500   0.50579   0.89479   0.00000  Uiso   1.00
Cu696  Cu    0.24499   0.49421   0.77187   0.00000  Uiso   1.00
H697   H     0.39610   0.53162   0.93044   0.00000  Uiso   1.00
H698   H     0.10390   0.46838   0.73623   0.00000  Uiso   1.00
H699   H     0.38142   0.47067   0.73459   0.00000  Uiso   1.00
H700   H     0.11858   0.52933   0.93208   0.00000  Uiso   1.00
H701   H     0.03147   0.44781   0.68080   0.00000  Uiso   1.00
H702   H     0.46853   0.55219   0.98587   0.00000  Uiso   1.00
H703   H     0.24419   0.65348   0.76202   0.00000  Uiso   1.00
H704   H     0.25581   0.34652   0.90465   0.00000  Uiso   1.00
H705   H     0.21499   0.45923   0.98272   0.00000  Uiso   1.00
H706   H     0.28501   0.54077   0.68395   0.00000  Uiso   1.00
N707   N     0.23744   0.48547   0.67951   0.00000  Uiso   1.00
N708   N     0.26255   0.51453   0.98716   0.00000  Uiso   1.00
O709   O     0.25325   0.42871   0.87326   0.00000  Uiso   1.00
O710   O     0.24674   0.57129   0.79341   0.00000  Uiso   1.00
O711   O     0.24480   0.41892   0.76945   0.00000  Uiso   1.00
O712   O     0.25520   0.58108   0.89721   0.00000  Uiso   1.00
O713   O     0.18935   0.50488   0.88524   0.00000  Uiso   1.00
O714   O     0.31064   0.49512   0.78143   0.00000  Uiso   1.00
O715   O     0.18090   0.49510   0.78143   0.00000  Uiso   1.00
O716   O     0.31910   0.50490   0.88523   0.00000  Uiso   1.00
O717   O     0.44610   0.43793   0.99910   0.00000  Uiso   1.00
H718   H     0.41885   0.41868   0.67342   0.00000  Uiso   1.00
O719   O     0.05390   0.56207   0.66757   0.00000  Uiso   1.00
H720   H     0.08115   0.58132   0.99325   0.00000  Uiso   1.00
C721   C     0.74864   0.39991   0.81777   0.00000  Uiso   1.00
C722   C     0.75136   0.60009   0.84890   0.00000  Uiso   1.00
C723   C     0.51622   0.46253   0.72315   0.00000  Uiso   1.00
C724   C     0.98378   0.53747   0.94352   0.00000  Uiso   1.00
C725   C     0.74799   0.34396   0.80898   0.00000  Uiso   1.00
C726   C     0.75201   0.65604   0.85769   0.00000  Uiso   1.00
C727   C     0.66436   0.49975   0.83387   0.00000  Uiso   1.00
C728   C     0.83564   0.50025   0.83280   0.00000  Uiso   1.00
C729   C     0.91098   0.51750   0.88763   0.00000  Uiso   1.00
C730   C     0.58902   0.48250   0.77904   0.00000  Uiso   1.00
C731   C     0.88399   0.50021   0.83218   0.00000  Uiso   1.00
C732   C     0.61601   0.49979   0.83448   0.00000  Uiso   1.00
C733   C     0.90314   0.48242   0.77687   0.00000  Uiso   1.00
C734   C     0.59686   0.51758   0.88980   0.00000  Uiso   1.00
C735   C     0.94954   0.48010   0.77656   0.00000  Uiso   1.00
C736   C     0.55046   0.51990   0.89011   0.00000  Uiso   1.00
C737   C     0.97667   0.49951   0.83282   0.00000  Uiso   1.00
C738   C     0.52333   0.50049   0.83384   0.00000  Uiso   1.00
C739   C     0.95712   0.51800   0.88822   0.00000  Uiso   1.00
C740   C     0.54288   0.48200   0.77845   0.00000  Uiso   1.00
C741   C     0.96986   0.46011   0.72164   0.00000  Uiso   1.00
C742   C     0.53014   0.53989   0.94503   0.00000  Uiso   1.00
Cu743  Cu    0.75500   0.50579   0.89479   0.00000  Uiso   1.00
Cu744  Cu    0.74499   0.49421   0.77187   0.00000  Uiso   1.00
H745   H     0.89610   0.53162   0.93044   0.00000  Uiso   1.00
H746   H     0.60390   0.46838   0.73623   0.00000  Uiso   1.00
H747   H     0.88142   0.47067   0.73459   0.00000  Uiso   1.00
H748   H     0.61858   0.52933   0.93208   0.00000  Uiso   1.00
H749   H     0.53147   0.44781   0.68080   0.00000  Uiso   1.00
H750   H     0.96853   0.55219   0.98587   0.00000  Uiso   1.00
H751   H     0.74419   0.65348   0.76202   0.00000  Uiso   1.00
H752   H     0.75581   0.34652   0.90465   0.00000  Uiso   1.00
H753   H     0.71499   0.45923   0.98272   0.00000  Uiso   1.00
H754   H     0.78501   0.54077   0.68395   0.00000  Uiso   1.00
N755   N     0.73744   0.48547   0.67951   0.00000  Uiso   1.00
N756   N     0.76255   0.51453   0.98716   0.00000  Uiso   1.00
O757   O     0.75325   0.42871   0.87326   0.00000  Uiso   1.00
O758   O     0.74674   0.57129   0.79341   0.00000  Uiso   1.00
O759   O     0.74480   0.41892   0.76945   0.00000  Uiso   1.00
O760   O     0.75520   0.58108   0.89721   0.00000  Uiso   1.00
O761   O     0.68935   0.50488   0.88524   0.00000  Uiso   1.00
O762   O     0.81064   0.49512   0.78143   0.00000  Uiso   1.00
O763   O     0.68090   0.49510   0.78143   0.00000  Uiso   1.00
O764   O     0.81910   0.50490   0.88523   0.00000  Uiso   1.00
O765   O     0.94610   0.43793   0.99910   0.00000  Uiso   1.00
H766   H     0.91885   0.41868   0.67342   0.00000  Uiso   1.00
O767   O     0.55390   0.56207   0.66757   0.00000  Uiso   1.00
H768   H     0.58115   0.58132   0.99325   0.00000  Uiso   1.00
C769   C     0.24864   0.73324   0.81777   0.00000  Uiso   1.00
C770   C     0.25136   0.93343   0.84890   0.00000  Uiso   1.00
C771   C     0.01622   0.79586   0.72315   0.00000  Uiso   1.00
C772   C     0.48378   0.87081   0.94352   0.00000  Uiso   1.00
C773   C     0.24799   0.67730   0.80898   0.00000  Uiso   1.00
C774   C     0.25201   0.98937   0.85769   0.00000  Uiso   1.00
C775   C     0.16436   0.83308   0.83387   0.00000  Uiso   1.00
C776   C     0.33564   0.83358   0.83280   0.00000  Uiso   1.00
C777   C     0.41098   0.85083   0.88763   0.00000  Uiso   1.00
C778   C     0.08902   0.81583   0.77904   0.00000  Uiso   1.00
C779   C     0.38399   0.83354   0.83218   0.00000  Uiso   1.00
C780   C     0.11601   0.83312   0.83448   0.00000  Uiso   1.00
C781   C     0.40314   0.81575   0.77687   0.00000  Uiso   1.00
C782   C     0.09686   0.85091   0.88980   0.00000  Uiso   1.00
C783   C     0.44954   0.81344   0.77656   0.00000  Uiso   1.00
C784   C     0.05046   0.85323   0.89011   0.00000  Uiso   1.00
C785   C     0.47667   0.83284   0.83282   0.00000  Uiso   1.00
C786   C     0.02333   0.83383   0.83384   0.00000  Uiso   1.00
C787   C     0.45712   0.85133   0.88822   0.00000  Uiso   1.00
C788   C     0.04288   0.81533   0.77845   0.00000  Uiso   1.00
C789   C     0.46986   0.79345   0.72164   0.00000  Uiso   1.00
C790   C     0.03014   0.87322   0.94503   0.00000  Uiso   1.00
Cu791  Cu    0.25500   0.83913   0.89479   0.00000  Uiso   1.00
Cu792  Cu    0.24499   0.82754   0.77187   0.00000  Uiso   1.00
H793   H     0.39610   0.86495   0.93044   0.00000  Uiso   1.00
H794   H     0.10390   0.80171   0.73623   0.00000  Uiso   1.00
H795   H     0.38142   0.80401   0.73459   0.00000  Uiso   1.00
H796   H     0.11858   0.86266   0.93208   0.00000  Uiso   1.00
H797   H     0.03147   0.78114   0.68080   0.00000  Uiso   1.00
H798   H     0.46853   0.88553   0.98587   0.00000  Uiso   1.00
H799   H     0.24419   0.98682   0.76202   0.00000  Uiso   1.00
H800   H     0.25581   0.67985   0.90465   0.00000  Uiso   1.00
H801   H     0.21499   0.79256   0.98272   0.00000  Uiso   1.00
H802   H     0.28501   0.87411   0.68395   0.00000  Uiso   1.00
N803   N     0.23744   0.81881   0.67951   0.00000  Uiso   1.00
N804   N     0.26255   0.84786   0.98716   0.00000  Uiso   1.00
O805   O     0.25325   0.76204   0.87326   0.00000  Uiso   1.00
O806   O     0.24674   0.90462   0.79341   0.00000  Uiso   1.00
O807   O     0.24480   0.75226   0.76945   0.00000  Uiso   1.00
O808   O     0.25520   0.91441   0.89721   0.00000  Uiso   1.00
O809   O     0.18935   0.83821   0.88524   0.00000  Uiso   1.00
O810   O     0.31064   0.82845   0.78143   0.00000  Uiso   1.00
O811   O     0.18090   0.82843   0.78143   0.00000  Uiso   1.00
O812   O     0.31910   0.83824   0.88523   0.00000  Uiso   1.00
O813   O     0.44610   0.77126   0.99910   0.00000  Uiso   1.00
H814   H     0.41885   0.75202   0.67342   0.00000  Uiso   1.00
O815   O     0.05390   0.89540   0.66757   0.00000  Uiso   1.00
H816   H     0.08115   0.91465   0.99325   0.00000  Uiso   1.00
C817   C     0.74864   0.73324   0.81777   0.00000  Uiso   1.00
C818   C     0.75136   0.93343   0.84890   0.00000  Uiso   1.00
C819   C     0.51622   0.79586   0.72315   0.00000  Uiso   1.00
C820   C     0.98378   0.87081   0.94352   0.00000  Uiso   1.00
C821   C     0.74799   0.67730   0.80898   0.00000  Uiso   1.00
C822   C     0.75201   0.98937   0.85769   0.00000  Uiso   1.00
C823   C     0.66436   0.83308   0.83387   0.00000  Uiso   1.00
C824   C     0.83564   0.83358   0.83280   0.00000  Uiso   1.00
C825   C     0.91098   0.85083   0.88763   0.00000  Uiso   1.00
C826   C     0.58902   0.81583   0.77904   0.00000  Uiso   1.00
C827   C     0.88399   0.83354   0.83218   0.00000  Uiso   1.00
C828   C     0.61601   0.83312   0.83448   0.00000  Uiso   1.00
C829   C     0.90314   0.81575   0.77687   0.00000  Uiso   1.00
C830   C     0.59686   0.85091   0.88980   0.00000  Uiso   1.00
C831   C     0.94954   0.81344   0.77656   0.00000  Uiso   1.00
C832   C     0.55046   0.85323   0.89011   0.00000  Uiso   1.00
C833   C     0.97667   0.83284   0.83282   0.00000  Uiso   1.00
C834   C     0.52333   0.83383   0.83384   0.00000  Uiso   1.00
C835   C     0.95712   0.85133   0.88822   0.00000  Uiso   1.00
C836   C     0.54288   0.81533   0.77845   0.00000  Uiso   1.00
C837   C     0.96986   0.79345   0.72164   0.00000  Uiso   1.00
C838   C     0.53014   0.87322   0.94503   0.00000  Uiso   1.00
Cu839  Cu    0.75500   0.83913   0.89479   0.00000  Uiso   1.00
Cu840  Cu    0.74499   0.82754   0.77187   0.00000  Uiso   1.00
H841   H     0.89610   0.86495   0.93044   0.00000  Uiso   1.00
H842   H     0.60390   0.80171   0.73623   0.00000  Uiso   1.00
H843   H     0.88142   0.80401   0.73459   0.00000  Uiso   1.00
H844   H     0.61858   0.86266   0.93208   0.00000  Uiso   1.00
H845   H     0.53147   0.78114   0.68080   0.00000  Uiso   1.00
H846   H     0.96853   0.88553   0.98587   0.00000  Uiso   1.00
H847   H     0.74419   0.98682   0.76202   0.00000  Uiso   1.00
H848   H     0.75581   0.67985   0.90465   0.00000  Uiso   1.00
H849   H     0.71499   0.79256   0.98272   0.00000  Uiso   1.00
H850   H     0.78501   0.87411   0.68395   0.00000  Uiso   1.00
N851   N     0.73744   0.81881   0.67951   0.00000  Uiso   1.00
N852   N     0.76255   0.84786   0.98716   0.00000  Uiso   1.00
O853   O     0.75325   0.76204   0.87326   0.00000  Uiso   1.00
O854   O     0.74674   0.90462   0.79341   0.00000  Uiso   1.00
O855   O     0.74480   0.75226   0.76945   0.00000  Uiso   1.00
O856   O     0.75520   0.91441   0.89721   0.00000  Uiso   1.00
O857   O     0.68935   0.83821   0.88524   0.00000  Uiso   1.00
O858   O     0.81064   0.82845   0.78143   0.00000  Uiso   1.00
O859   O     0.68090   0.82843   0.78143   0.00000  Uiso   1.00
O860   O     0.81910   0.83824   0.88523   0.00000  Uiso   1.00
O861   O     0.94610   0.77126   0.99910   0.00000  Uiso   1.00
H862   H     0.91885   0.75202   0.67342   0.00000  Uiso   1.00
O863   O     0.55390   0.89540   0.66757   0.00000  Uiso   1.00
H864   H     0.58115   0.91465   0.99325   0.00000  Uiso   1.00
loop_
_geom_bond_atom_site_label_1
_geom_bond_atom_site_label_2
_geom_bond_distance
_geom_bond_site_symmetry_2
_ccdc_geom_bond_type
C1     O37     1.292   .     A
C1     C5      1.426   .     S
C1     O39     1.283   .     A
C2     O38     1.292   .     A
C2     C6      1.426   .     S
C2     O40     1.283   .     A
C3     C20     1.398   .     A
C3     H29     1.085   .     S
C3     C69     1.392   1_455 S
C4     C19     1.398   .     A
C4     H30     1.085   .     S
C4     C70     1.392   .     S
C5     C198    1.326   1_545 S
C5     H223    1.088   1_545 S
C6     C101    1.326   .     S
C6     H128    1.088   .     S
C7     O43     1.292   .     A
C7     O41     1.298   .     A
C7     C12     1.457   .     S
C8     C11     1.457   .     S
C8     O42     1.298   .     A
C8     O44     1.292   .     A
C9     C11     1.399   .     A
C9     H25     1.085   .     S
C9     C19     1.388   .     A
C10    H26     1.085   .     S
C10    C12     1.399   .     A
C10    C20     1.388   .     A
C11    C13     1.399   .     A
C12    C14     1.399   .     A
C13    C15     1.402   .     A
C13    H27     1.081   .     S
C14    H28     1.081   .     S
C14    C16     1.402   .     A
C15    C17     1.421   .     A
C15    C21     1.419   .     A
C16    C18     1.421   .     A
C16    C22     1.419   .     A
C17    C19     1.409   .     A
C17    C66     1.403   .     S
C18    C20     1.409   .     A
C18    C65     1.403   1_455 S
C21    C51     1.392   .     S
C21    O621    1.380   1_554 S
C22    C52     1.392   1_455 S
C22    O335    1.380   .     S
Cu23   Cu24    2.685   .     S
Cu23   O41     1.970   .     S
Cu23   O40     1.950   .     S
Cu23   N36     2.018   .     S
Cu23   O37     1.956   .     S
Cu23   O44     1.959   .     S
Cu24   O38     1.956   .     S
Cu24   N35     2.018   .     S
Cu24   O39     1.950   .     S
Cu24   O42     1.970   .     S
Cu24   O43     1.959   .     S
H31    C101    1.088   .     S
H32    C198    1.088   1_545 S
H33    N323    1.029   .     S
H34    N612    1.029   1_554 S
N35    H609    1.029   1_554 S
N35    N612    1.298   1_554 S
N36    N323    1.298   .     S
N36    H322    1.029   .     S
O45    C309    1.380   .     S
O45    H334    0.989   .     S
H46    O621    0.989   1_554 S
O47    C598    1.380   1_554 S
O47    H624    0.989   1_554 S
H48    O335    0.989   .     S
C49    O85     1.292   .     A
C49    C53     1.426   .     S
C49    O87     1.283   .     A
C50    O86     1.292   .     A
C50    C54     1.426   .     S
C50    O88     1.283   .     A
C51    C68     1.398   .     A
C51    H77     1.085   .     S
C52    C67     1.398   .     A
C52    H78     1.085   .     S
C52    C22     1.392   1_655 S
C53    C246    1.326   1_545 S
C53    H271    1.088   1_545 S
C54    C149    1.326   .     S
C54    H176    1.088   .     S
C55    O91     1.292   .     A
C55    O89     1.298   .     A
C55    C60     1.457   .     S
C56    C59     1.457   .     S
C56    O90     1.298   .     A
C56    O92     1.292   .     A
C57    C59     1.399   .     A
C57    H73     1.085   .     S
C57    C67     1.388   .     A
C58    H74     1.085   .     S
C58    C60     1.399   .     A
C58    C68     1.388   .     A
C59    C61     1.399   .     A
C60    C62     1.399   .     A
C61    C63     1.402   .     A
C61    H75     1.081   .     S
C62    H76     1.081   .     S
C62    C64     1.402   .     A
C63    C65     1.421   .     A
C63    C69     1.419   .     A
C64    C66     1.421   .     A
C64    C70     1.419   .     A
C65    C67     1.409   .     A
C65    C18     1.403   1_655 S
C66    C68     1.409   .     A
C69    C3      1.392   1_655 S
C69    O669    1.380   1_554 S
C70    O383    1.380   .     S
Cu71   Cu72    2.685   .     S
Cu71   O89     1.970   .     S
Cu71   O88     1.950   .     S
Cu71   N84     2.018   .     S
Cu71   O85     1.956   .     S
Cu71   O92     1.959   .     S
Cu72   O86     1.956   .     S
Cu72   N83     2.018   .     S
Cu72   O87     1.950   .     S
Cu72   O90     1.970   .     S
Cu72   O91     1.959   .     S
H79    C149    1.088   .     S
H80    C246    1.088   1_545 S
H81    N371    1.029   .     S
H82    N660    1.029   1_554 S
N83    H657    1.029   1_554 S
N83    N660    1.298   1_554 S
N84    N371    1.298   .     S
N84    H370    1.029   .     S
O93    C357    1.380   .     S
O93    H382    0.989   .     S
H94    O669    0.989   1_554 S
O95    C646    1.380   1_554 S
O95    H672    0.989   1_554 S
H96    O383    0.989   .     S
C97    O133    1.292   .     A
C97    C101    1.426   .     S
C97    O135    1.283   .     A
C98    O134    1.292   .     A
C98    C102    1.426   .     S
C98    O136    1.283   .     A
C99    C116    1.398   .     A
C99    H125    1.085   .     S
C99    C165    1.392   1_455 S
C100   C115    1.398   .     A
C100   H126    1.085   .     S
C100   C166    1.392   .     S
C102   C197    1.326   .     S
C102   H224    1.088   .     S
C103   O139    1.292   .     A
C103   O137    1.298   .     A
C103   C108    1.457   .     S
C104   C107    1.457   .     S
C104   O138    1.298   .     A
C104   O140    1.292   .     A
C105   C107    1.399   .     A
C105   H121    1.085   .     S
C105   C115    1.388   .     A
C106   H122    1.085   .     S
C106   C108    1.399   .     A
C106   C116    1.388   .     A
C107   C109    1.399   .     A
C108   C110    1.399   .     A
C109   C111    1.402   .     A
C109   H123    1.081   .     S
C110   H124    1.081   .     S
C110   C112    1.402   .     A
C111   C113    1.421   .     A
C111   C117    1.419   .     A
C112   C114    1.421   .     A
C112   C118    1.419   .     A
C113   C115    1.409   .     A
C113   C162    1.403   .     S
C114   C116    1.409   .     A
C114   C161    1.403   1_455 S
C117   C147    1.392   .     S
C117   O717    1.380   1_554 S
C118   C148    1.392   1_455 S
C118   O431    1.380   .     S
Cu119  Cu120   2.685   .     S
Cu119  O137    1.970   .     S
Cu119  O136    1.950   .     S
Cu119  N132    2.018   .     S
Cu119  O133    1.956   .     S
Cu119  O140    1.959   .     S
Cu120  O134    1.956   .     S
Cu120  N131    2.018   .     S
Cu120  O135    1.950   .     S
Cu120  O138    1.970   .     S
Cu120  O139    1.959   .     S
H127   C197    1.088   .     S
H129   N419    1.029   .     S
H130   N708    1.029   1_554 S
N131   H705    1.029   1_554 S
N131   N708    1.298   1_554 S
N132   N419    1.298   .     S
N132   H418    1.029   .     S
O141   C405    1.380   .     S
O141   H430    0.989   .     S
H142   O717    0.989   1_554 S
O143   C694    1.380   1_554 S
O143   H720    0.989   1_554 S
H144   O431    0.989   .     S
C145   O181    1.292   .     A
C145   C149    1.426   .     S
C145   O183    1.283   .     A
C146   O182    1.292   .     A
C146   C150    1.426   .     S
C146   O184    1.283   .     A
C147   C164    1.398   .     A
C147   H173    1.085   .     S
C148   C163    1.398   .     A
C148   H174    1.085   .     S
C148   C118    1.392   1_655 S
C150   C245    1.326   .     S
C150   H272    1.088   .     S
C151   O187    1.292   .     A
C151   O185    1.298   .     A
C151   C156    1.457   .     S
C152   C155    1.457   .     S
C152   O186    1.298   .     A
C152   O188    1.292   .     A
C153   C155    1.399   .     A
C153   H169    1.085   .     S
C153   C163    1.388   .     A
C154   H170    1.085   .     S
C154   C156    1.399   .     A
C154   C164    1.388   .     A
C155   C157    1.399   .     A
C156   C158    1.399   .     A
C157   C159    1.402   .     A
C157   H171    1.081   .     S
C158   H172    1.081   .     S
C158   C160    1.402   .     A
C159   C161    1.421   .     A
C159   C165    1.419   .     A
C160   C162    1.421   .     A
C160   C166    1.419   .     A
C161   C163    1.409   .     A
C161   C114    1.403   1_655 S
C162   C164    1.409   .     A
C165   C99     1.392   1_655 S
C165   O765    1.380   1_554 S
C166   O479    1.380   .     S
Cu167  Cu168   2.685   .     S
Cu167  O185    1.970   .     S
Cu167  O184    1.950   .     S
Cu167  N180    2.018   .     S
Cu167  O181    1.956   .     S
Cu167  O188    1.959   .     S
Cu168  O182    1.956   .     S
Cu168  N179    2.018   .     S
Cu168  O183    1.950   .     S
Cu168  O186    1.970   .     S
Cu168  O187    1.959   .     S
H175   C245    1.088   .     S
H177   N467    1.029   .     S
H178   N756    1.029   1_554 S
N179   H753    1.029   1_554 S
N179   N756    1.298   1_554 S
N180   N467    1.298   .     S
N180   H466    1.029   .     S
O189   C453    1.380   .     S
O189   H478    0.989   .     S
H190   O765    0.989   1_554 S
O191   C742    1.380   1_554 S
O191   H768    0.989   1_554 S
H192   O479    0.989   .     S
C193   O229    1.292   .     A
C193   C197    1.426   .     S
C193   O231    1.283   .     A
C194   O230    1.292   .     A
C194   C198    1.426   .     S
C194   O232    1.283   .     A
C195   C212    1.398   .     A
C195   H221    1.085   .     S
C195   C261    1.392   1_455 S
C196   C211    1.398   .     A
C196   H222    1.085   .     S
C196   C262    1.392   .     S
C198   C5      1.326   1_565 S
C198   H32     1.088   1_565 S
C199   O235    1.292   .     A
C199   O233    1.298   .     A
C199   C204    1.457   .     S
C200   C203    1.457   .     S
C200   O234    1.298   .     A
C200   O236    1.292   .     A
C201   C203    1.399   .     A
C201   H217    1.085   .     S
C201   C211    1.388   .     A
C202   H218    1.085   .     S
C202   C204    1.399   .     A
C202   C212    1.388   .     A
C203   C205    1.399   .     A
C204   C206    1.399   .     A
C205   C207    1.402   .     A
C205   H219    1.081   .     S
C206   H220    1.081   .     S
C206   C208    1.402   .     A
C207   C209    1.421   .     A
C207   C213    1.419   .     A
C208   C210    1.421   .     A
C208   C214    1.419   .     A
C209   C211    1.409   .     A
C209   C258    1.403   .     S
C210   C212    1.409   .     A
C210   C257    1.403   1_455 S
C213   C243    1.392   .     S
C213   O813    1.380   1_554 S
C214   C244    1.392   1_455 S
C214   O527    1.380   .     S
Cu215  Cu216   2.685   .     S
Cu215  O233    1.970   .     S
Cu215  O232    1.950   .     S
Cu215  N228    2.018   .     S
Cu215  O229    1.956   .     S
Cu215  O236    1.959   .     S
Cu216  O230    1.956   .     S
Cu216  N227    2.018   .     S
Cu216  O231    1.950   .     S
Cu216  O234    1.970   .     S
Cu216  O235    1.959   .     S
H223   C5      1.088   1_565 S
H225   N515    1.029   .     S
H226   N804    1.029   1_554 S
N227   H801    1.029   1_554 S
N227   N804    1.298   1_554 S
N228   N515    1.298   .     S
N228   H514    1.029   .     S
O237   C501    1.380   .     S
O237   H526    0.989   .     S
H238   O813    0.989   1_554 S
O239   C790    1.380   1_554 S
O239   H816    0.989   1_554 S
H240   O527    0.989   .     S
C241   O277    1.292   .     A
C241   C245    1.426   .     S
C241   O279    1.283   .     A
C242   O278    1.292   .     A
C242   C246    1.426   .     S
C242   O280    1.283   .     A
C243   C260    1.398   .     A
C243   H269    1.085   .     S
C244   C259    1.398   .     A
C244   H270    1.085   .     S
C244   C214    1.392   1_655 S
C246   C53     1.326   1_565 S
C246   H80     1.088   1_565 S
C247   O283    1.292   .     A
C247   O281    1.298   .     A
C247   C252    1.457   .     S
C248   C251    1.457   .     S
C248   O282    1.298   .     A
C248   O284    1.292   .     A
C249   C251    1.399   .     A
C249   H265    1.085   .     S
C249   C259    1.388   .     A
C250   H266    1.085   .     S
C250   C252    1.399   .     A
C250   C260    1.388   .     A
C251   C253    1.399   .     A
C252   C254    1.399   .     A
C253   C255    1.402   .     A
C253   H267    1.081   .     S
C254   H268    1.081   .     S
C254   C256    1.402   .     A
C255   C257    1.421   .     A
C255   C261    1.419   .     A
C256   C258    1.421   .     A
C256   C262    1.419   .     A
C257   C259    1.409   .     A
C257   C210    1.403   1_655 S
C258   C260    1.409   .     A
C261   C195    1.392   1_655 S
C261   O861    1.380   1_554 S
C262   O575    1.380   .     S
Cu263  Cu264   2.685   .     S
Cu263  O281    1.970   .     S
Cu263  O280    1.950   .     S
Cu263  N276    2.018   .     S
Cu263  O277    1.956   .     S
Cu263  O284    1.959   .     S
Cu264  O278    1.956   .     S
Cu264  N275    2.018   .     S
Cu264  O279    1.950   .     S
Cu264  O282    1.970   .     S
Cu264  O283    1.959   .     S
H271   C53     1.088   1_565 S
H273   N563    1.029   .     S
H274   N852    1.029   1_554 S
N275   H849    1.029   1_554 S
N275   N852    1.298   1_554 S
N276   N563    1.298   .     S
N276   H562    1.029   .     S
O285   C549    1.380   .     S
O285   H574    0.989   .     S
H286   O861    0.989   1_554 S
O287   C838    1.380   1_554 S
O287   H864    0.989   1_554 S
H288   O575    0.989   .     S
C289   O325    1.292   .     A
C289   C293    1.426   .     S
C289   O327    1.283   .     A
C290   O326    1.292   .     A
C290   C294    1.426   .     S
C290   O328    1.283   .     A
C291   C308    1.398   .     A
C291   H317    1.085   .     S
C291   C357    1.392   1_455 S
C292   C307    1.398   .     A
C292   H318    1.085   .     S
C292   C358    1.392   .     S
C293   C486    1.326   1_545 S
C293   H511    1.088   1_545 S
C294   C389    1.326   .     S
C294   H416    1.088   .     S
C295   O331    1.292   .     A
C295   O329    1.298   .     A
C295   C300    1.457   .     S
C296   C299    1.457   .     S
C296   O330    1.298   .     A
C296   O332    1.292   .     A
C297   C299    1.399   .     A
C297   H313    1.085   .     S
C297   C307    1.388   .     A
C298   H314    1.085   .     S
C298   C300    1.399   .     A
C298   C308    1.388   .     A
C299   C301    1.399   .     A
C300   C302    1.399   .     A
C301   C303    1.402   .     A
C301   H315    1.081   .     S
C302   H316    1.081   .     S
C302   C304    1.402   .     A
C303   C305    1.421   .     A
C303   C309    1.419   .     A
C304   C306    1.421   .     A
C304   C310    1.419   .     A
C305   C307    1.409   .     A
C305   C354    1.403   .     S
C306   C308    1.409   .     A
C306   C353    1.403   1_455 S
C309   C339    1.392   .     S
C310   C340    1.392   1_455 S
C310   O623    1.380   .     S
Cu311  Cu312   2.685   .     S
Cu311  O329    1.970   .     S
Cu311  O328    1.950   .     S
Cu311  N324    2.018   .     S
Cu311  O325    1.956   .     S
Cu311  O332    1.959   .     S
Cu312  O326    1.956   .     S
Cu312  N323    2.018   .     S
Cu312  O327    1.950   .     S
Cu312  O330    1.970   .     S
Cu312  O331    1.959   .     S
H319   C389    1.088   .     S
H320   C486    1.088   1_545 S
H321   N611    1.029   .     S
N324   N611    1.298   .     S
N324   H610    1.029   .     S
O333   C597    1.380   .     S
O333   H622    0.989   .     S
H336   O623    0.989   .     S
C337   O373    1.292   .     A
C337   C341    1.426   .     S
C337   O375    1.283   .     A
C338   O374    1.292   .     A
C338   C342    1.426   .     S
C338   O376    1.283   .     A
C339   C356    1.398   .     A
C339   H365    1.085   .     S
C340   C355    1.398   .     A
C340   H366    1.085   .     S
C340   C310    1.392   1_655 S
C341   C534    1.326   1_545 S
C341   H559    1.088   1_545 S
C342   C437    1.326   .     S
C342   H464    1.088   .     S
C343   O379    1.292   .     A
C343   O377    1.298   .     A
C343   C348    1.457   .     S
C344   C347    1.457   .     S
C344   O378    1.298   .     A
C344   O380    1.292   .     A
C345   C347    1.399   .     A
C345   H361    1.085   .     S
C345   C355    1.388   .     A
C346   H362    1.085   .     S
C346   C348    1.399   .     A
C346   C356    1.388   .     A
C347   C349    1.399   .     A
C348   C350    1.399   .     A
C349   C351    1.402   .     A
C349   H363    1.081   .     S
C350   H364    1.081   .     S
C350   C352    1.402   .     A
C351   C353    1.421   .     A
C351   C357    1.419   .     A
C352   C354    1.421   .     A
C352   C358    1.419   .     A
C353   C355    1.409   .     A
C353   C306    1.403   1_655 S
C354   C356    1.409   .     A
C357   C291    1.392   1_655 S
C358   O671    1.380   .     S
Cu359  Cu360   2.685   .     S
Cu359  O377    1.970   .     S
Cu359  O376    1.950   .     S
Cu359  N372    2.018   .     S
Cu359  O373    1.956   .     S
Cu359  O380    1.959   .     S
Cu360  O374    1.956   .     S
Cu360  N371    2.018   .     S
Cu360  O375    1.950   .     S
Cu360  O378    1.970   .     S
Cu360  O379    1.959   .     S
H367   C437    1.088   .     S
H368   C534    1.088   1_545 S
H369   N659    1.029   .     S
N372   N659    1.298   .     S
N372   H658    1.029   .     S
O381   C645    1.380   .     S
O381   H670    0.989   .     S
H384   O671    0.989   .     S
C385   O421    1.292   .     A
C385   C389    1.426   .     S
C385   O423    1.283   .     A
C386   O422    1.292   .     A
C386   C390    1.426   .     S
C386   O424    1.283   .     A
C387   C404    1.398   .     A
C387   H413    1.085   .     S
C387   C453    1.392   1_455 S
C388   C403    1.398   .     A
C388   H414    1.085   .     S
C388   C454    1.392   .     S
C390   C485    1.326   .     S
C390   H512    1.088   .     S
C391   O427    1.292   .     A
C391   O425    1.298   .     A
C391   C396    1.457   .     S
C392   C395    1.457   .     S
C392   O426    1.298   .     A
C392   O428    1.292   .     A
C393   C395    1.399   .     A
C393   H409    1.085   .     S
C393   C403    1.388   .     A
C394   H410    1.085   .     S
C394   C396    1.399   .     A
C394   C404    1.388   .     A
C395   C397    1.399   .     A
C396   C398    1.399   .     A
C397   C399    1.402   .     A
C397   H411    1.081   .     S
C398   H412    1.081   .     S
C398   C400    1.402   .     A
C399   C401    1.421   .     A
C399   C405    1.419   .     A
C400   C402    1.421   .     A
C400   C406    1.419   .     A
C401   C403    1.409   .     A
C401   C450    1.403   .     S
C402   C404    1.409   .     A
C402   C449    1.403   1_455 S
C405   C435    1.392   .     S
C406   C436    1.392   1_455 S
C406   O719    1.380   .     S
Cu407  Cu408   2.685   .     S
Cu407  O425    1.970   .     S
Cu407  O424    1.950   .     S
Cu407  N420    2.018   .     S
Cu407  O421    1.956   .     S
Cu407  O428    1.959   .     S
Cu408  O422    1.956   .     S
Cu408  N419    2.018   .     S
Cu408  O423    1.950   .     S
Cu408  O426    1.970   .     S
Cu408  O427    1.959   .     S
H415   C485    1.088   .     S
H417   N707    1.029   .     S
N420   N707    1.298   .     S
N420   H706    1.029   .     S
O429   C693    1.380   .     S
O429   H718    0.989   .     S
H432   O719    0.989   .     S
C433   O469    1.292   .     A
C433   C437    1.426   .     S
C433   O471    1.283   .     A
C434   O470    1.292   .     A
C434   C438    1.426   .     S
C434   O472    1.283   .     A
C435   C452    1.398   .     A
C435   H461    1.085   .     S
C436   C451    1.398   .     A
C436   H462    1.085   .     S
C436   C406    1.392   1_655 S
C438   C533    1.326   .     S
C438   H560    1.088   .     S
C439   O475    1.292   .     A
C439   O473    1.298   .     A
C439   C444    1.457   .     S
C440   C443    1.457   .     S
C440   O474    1.298   .     A
C440   O476    1.292   .     A
C441   C443    1.399   .     A
C441   H457    1.085   .     S
C441   C451    1.388   .     A
C442   H458    1.085   .     S
C442   C444    1.399   .     A
C442   C452    1.388   .     A
C443   C445    1.399   .     A
C444   C446    1.399   .     A
C445   C447    1.402   .     A
C445   H459    1.081   .     S
C446   H460    1.081   .     S
C446   C448    1.402   .     A
C447   C449    1.421   .     A
C447   C453    1.419   .     A
C448   C450    1.421   .     A
C448   C454    1.419   .     A
C449   C451    1.409   .     A
C449   C402    1.403   1_655 S
C450   C452    1.409   .     A
C453   C387    1.392   1_655 S
C454   O767    1.380   .     S
Cu455  Cu456   2.685   .     S
Cu455  O473    1.970   .     S
Cu455  O472    1.950   .     S
Cu455  N468    2.018   .     S
Cu455  O469    1.956   .     S
Cu455  O476    1.959   .     S
Cu456  O470    1.956   .     S
Cu456  N467    2.018   .     S
Cu456  O471    1.950   .     S
Cu456  O474    1.970   .     S
Cu456  O475    1.959   .     S
H463   C533    1.088   .     S
H465   N755    1.029   .     S
N468   N755    1.298   .     S
N468   H754    1.029   .     S
O477   C741    1.380   .     S
O477   H766    0.989   .     S
H480   O767    0.989   .     S
C481   O517    1.292   .     A
C481   C485    1.426   .     S
C481   O519    1.283   .     A
C482   O518    1.292   .     A
C482   C486    1.426   .     S
C482   O520    1.283   .     A
C483   C500    1.398   .     A
C483   H509    1.085   .     S
C483   C549    1.392   1_455 S
C484   C499    1.398   .     A
C484   H510    1.085   .     S
C484   C550    1.392   .     S
C486   C293    1.326   1_565 S
C486   H320    1.088   1_565 S
C487   O523    1.292   .     A
C487   O521    1.298   .     A
C487   C492    1.457   .     S
C488   C491    1.457   .     S
C488   O522    1.298   .     A
C488   O524    1.292   .     A
C489   C491    1.399   .     A
C489   H505    1.085   .     S
C489   C499    1.388   .     A
C490   H506    1.085   .     S
C490   C492    1.399   .     A
C490   C500    1.388   .     A
C491   C493    1.399   .     A
C492   C494    1.399   .     A
C493   C495    1.402   .     A
C493   H507    1.081   .     S
C494   H508    1.081   .     S
C494   C496    1.402   .     A
C495   C497    1.421   .     A
C495   C501    1.419   .     A
C496   C498    1.421   .     A
C496   C502    1.419   .     A
C497   C499    1.409   .     A
C497   C546    1.403   .     S
C498   C500    1.409   .     A
C498   C545    1.403   1_455 S
C501   C531    1.392   .     S
C502   C532    1.392   1_455 S
C502   O815    1.380   .     S
Cu503  Cu504   2.685   .     S
Cu503  O521    1.970   .     S
Cu503  O520    1.950   .     S
Cu503  N516    2.018   .     S
Cu503  O517    1.956   .     S
Cu503  O524    1.959   .     S
Cu504  O518    1.956   .     S
Cu504  N515    2.018   .     S
Cu504  O519    1.950   .     S
Cu504  O522    1.970   .     S
Cu504  O523    1.959   .     S
H511   C293    1.088   1_565 S
H513   N803    1.029   .     S
N516   N803    1.298   .     S
N516   H802    1.029   .     S
O525   C789    1.380   .     S
O525   H814    0.989   .     S
H528   O815    0.989   .     S
C529   O565    1.292   .     A
C529   C533    1.426   .     S
C529   O567    1.283   .     A
C530   O566    1.292   .     A
C530   C534    1.426   .     S
C530   O568    1.283   .     A
C531   C548    1.398   .     A
C531   H557    1.085   .     S
C532   C547    1.398   .     A
C532   H558    1.085   .     S
C532   C502    1.392   1_655 S
C534   C341    1.326   1_565 S
C534   H368    1.088   1_565 S
C535   O571    1.292   .     A
C535   O569    1.298   .     A
C535   C540    1.457   .     S
C536   C539    1.457   .     S
C536   O570    1.298   .     A
C536   O572    1.292   .     A
C537   C539    1.399   .     A
C537   H553    1.085   .     S
C537   C547    1.388   .     A
C538   H554    1.085   .     S
C538   C540    1.399   .     A
C538   C548    1.388   .     A
C539   C541    1.399   .     A
C540   C542    1.399   .     A
C541   C543    1.402   .     A
C541   H555    1.081   .     S
C542   H556    1.081   .     S
C542   C544    1.402   .     A
C543   C545    1.421   .     A
C543   C549    1.419   .     A
C544   C546    1.421   .     A
C544   C550    1.419   .     A
C545   C547    1.409   .     A
C545   C498    1.403   1_655 S
C546   C548    1.409   .     A
C549   C483    1.392   1_655 S
C550   O863    1.380   .     S
Cu551  Cu552   2.685   .     S
Cu551  O569    1.970   .     S
Cu551  O568    1.950   .     S
Cu551  N564    2.018   .     S
Cu551  O565    1.956   .     S
Cu551  O572    1.959   .     S
Cu552  O566    1.956   .     S
Cu552  N563    2.018   .     S
Cu552  O567    1.950   .     S
Cu552  O570    1.970   .     S
Cu552  O571    1.959   .     S
H559   C341    1.088   1_565 S
H561   N851    1.029   .     S
N564   N851    1.298   .     S
N564   H850    1.029   .     S
O573   C837    1.380   .     S
O573   H862    0.989   .     S
H576   O863    0.989   .     S
C577   O613    1.292   .     A
C577   C581    1.426   .     S
C577   O615    1.283   .     A
C578   O614    1.292   .     A
C578   C582    1.426   .     S
C578   O616    1.283   .     A
C579   C596    1.398   .     A
C579   H605    1.085   .     S
C579   C645    1.392   1_455 S
C580   C595    1.398   .     A
C580   H606    1.085   .     S
C580   C646    1.392   .     S
C581   C774    1.326   1_545 S
C581   H799    1.088   1_545 S
C582   C677    1.326   .     S
C582   H704    1.088   .     S
C583   O619    1.292   .     A
C583   O617    1.298   .     A
C583   C588    1.457   .     S
C584   C587    1.457   .     S
C584   O618    1.298   .     A
C584   O620    1.292   .     A
C585   C587    1.399   .     A
C585   H601    1.085   .     S
C585   C595    1.388   .     A
C586   H602    1.085   .     S
C586   C588    1.399   .     A
C586   C596    1.388   .     A
C587   C589    1.399   .     A
C588   C590    1.399   .     A
C589   C591    1.402   .     A
C589   H603    1.081   .     S
C590   H604    1.081   .     S
C590   C592    1.402   .     A
C591   C593    1.421   .     A
C591   C597    1.419   .     A
C592   C594    1.421   .     A
C592   C598    1.419   .     A
C593   C595    1.409   .     A
C593   C642    1.403   .     S
C594   C596    1.409   .     A
C594   C641    1.403   1_455 S
C597   C627    1.392   .     S
C598   C628    1.392   1_455 S
C598   O47     1.380   1_556 S
Cu599  Cu600   2.685   .     S
Cu599  O617    1.970   .     S
Cu599  O616    1.950   .     S
Cu599  N612    2.018   .     S
Cu599  O613    1.956   .     S
Cu599  O620    1.959   .     S
Cu600  O614    1.956   .     S
Cu600  N611    2.018   .     S
Cu600  O615    1.950   .     S
Cu600  O618    1.970   .     S
Cu600  O619    1.959   .     S
H607   C677    1.088   .     S
H608   C774    1.088   1_545 S
H609   N35     1.029   1_556 S
N612   N35     1.298   1_556 S
N612   H34     1.029   1_556 S
O621   C21     1.380   1_556 S
O621   H46     0.989   1_556 S
H624   O47     0.989   1_556 S
C625   O661    1.292   .     A
C625   C629    1.426   .     S
C625   O663    1.283   .     A
C626   O662    1.292   .     A
C626   C630    1.426   .     S
C626   O664    1.283   .     A
C627   C644    1.398   .     A
C627   H653    1.085   .     S
C628   C643    1.398   .     A
C628   H654    1.085   .     S
C628   C598    1.392   1_655 S
C629   C822    1.326   1_545 S
C629   H847    1.088   1_545 S
C630   C725    1.326   .     S
C630   H752    1.088   .     S
C631   O667    1.292   .     A
C631   O665    1.298   .     A
C631   C636    1.457   .     S
C632   C635    1.457   .     S
C632   O666    1.298   .     A
C632   O668    1.292   .     A
C633   C635    1.399   .     A
C633   H649    1.085   .     S
C633   C643    1.388   .     A
C634   H650    1.085   .     S
C634   C636    1.399   .     A
C634   C644    1.388   .     A
C635   C637    1.399   .     A
C636   C638    1.399   .     A
C637   C639    1.402   .     A
C637   H651    1.081   .     S
C638   H652    1.081   .     S
C638   C640    1.402   .     A
C639   C641    1.421   .     A
C639   C645    1.419   .     A
C640   C642    1.421   .     A
C640   C646    1.419   .     A
C641   C643    1.409   .     A
C641   C594    1.403   1_655 S
C642   C644    1.409   .     A
C645   C579    1.392   1_655 S
C646   O95     1.380   1_556 S
Cu647  Cu648   2.685   .     S
Cu647  O665    1.970   .     S
Cu647  O664    1.950   .     S
Cu647  N660    2.018   .     S
Cu647  O661    1.956   .     S
Cu647  O668    1.959   .     S
Cu648  O662    1.956   .     S
Cu648  N659    2.018   .     S
Cu648  O663    1.950   .     S
Cu648  O666    1.970   .     S
Cu648  O667    1.959   .     S
H655   C725    1.088   .     S
H656   C822    1.088   1_545 S
H657   N83     1.029   1_556 S
N660   N83     1.298   1_556 S
N660   H82     1.029   1_556 S
O669   C69     1.380   1_556 S
O669   H94     0.989   1_556 S
H672   O95     0.989   1_556 S
C673   O709    1.292   .     A
C673   C677    1.426   .     S
C673   O711    1.283   .     A
C674   O710    1.292   .     A
C674   C678    1.426   .     S
C674   O712    1.283   .     A
C675   C692    1.398   .     A
C675   H701    1.085   .     S
C675   C741    1.392   1_455 S
C676   C691    1.398   .     A
C676   H702    1.085   .     S
C676   C742    1.392   .     S
C678   C773    1.326   .     S
C678   H800    1.088   .     S
C679   O715    1.292   .     A
C679   O713    1.298   .     A
C679   C684    1.457   .     S
C680   C683    1.457   .     S
C680   O714    1.298   .     A
C680   O716    1.292   .     A
C681   C683    1.399   .     A
C681   H697    1.085   .     S
C681   C691    1.388   .     A
C682   H698    1.085   .     S
C682   C684    1.399   .     A
C682   C692    1.388   .     A
C683   C685    1.399   .     A
C684   C686    1.399   .     A
C685   C687    1.402   .     A
C685   H699    1.081   .     S
C686   H700    1.081   .     S
C686   C688    1.402   .     A
C687   C689    1.421   .     A
C687   C693    1.419   .     A
C688   C690    1.421   .     A
C688   C694    1.419   .     A
C689   C691    1.409   .     A
C689   C738    1.403   .     S
C690   C692    1.409   .     A
C690   C737    1.403   1_455 S
C693   C723    1.392   .     S
C694   C724    1.392   1_455 S
C694   O143    1.380   1_556 S
Cu695  Cu696   2.685   .     S
Cu695  O713    1.970   .     S
Cu695  O712    1.950   .     S
Cu695  N708    2.018   .     S
Cu695  O709    1.956   .     S
Cu695  O716    1.959   .     S
Cu696  O710    1.956   .     S
Cu696  N707    2.018   .     S
Cu696  O711    1.950   .     S
Cu696  O714    1.970   .     S
Cu696  O715    1.959   .     S
H703   C773    1.088   .     S
H705   N131    1.029   1_556 S
N708   N131    1.298   1_556 S
N708   H130    1.029   1_556 S
O717   C117    1.380   1_556 S
O717   H142    0.989   1_556 S
H720   O143    0.989   1_556 S
C721   O757    1.292   .     A
C721   C725    1.426   .     S
C721   O759    1.283   .     A
C722   O758    1.292   .     A
C722   C726    1.426   .     S
C722   O760    1.283   .     A
C723   C740    1.398   .     A
C723   H749    1.085   .     S
C724   C739    1.398   .     A
C724   H750    1.085   .     S
C724   C694    1.392   1_655 S
C726   C821    1.326   .     S
C726   H848    1.088   .     S
C727   O763    1.292   .     A
C727   O761    1.298   .     A
C727   C732    1.457   .     S
C728   C731    1.457   .     S
C728   O762    1.298   .     A
C728   O764    1.292   .     A
C729   C731    1.399   .     A
C729   H745    1.085   .     S
C729   C739    1.388   .     A
C730   H746    1.085   .     S
C730   C732    1.399   .     A
C730   C740    1.388   .     A
C731   C733    1.399   .     A
C732   C734    1.399   .     A
C733   C735    1.402   .     A
C733   H747    1.081   .     S
C734   H748    1.081   .     S
C734   C736    1.402   .     A
C735   C737    1.421   .     A
C735   C741    1.419   .     A
C736   C738    1.421   .     A
C736   C742    1.419   .     A
C737   C739    1.409   .     A
C737   C690    1.403   1_655 S
C738   C740    1.409   .     A
C741   C675    1.392   1_655 S
C742   O191    1.380   1_556 S
Cu743  Cu744   2.685   .     S
Cu743  O761    1.970   .     S
Cu743  O760    1.950   .     S
Cu743  N756    2.018   .     S
Cu743  O757    1.956   .     S
Cu743  O764    1.959   .     S
Cu744  O758    1.956   .     S
Cu744  N755    2.018   .     S
Cu744  O759    1.950   .     S
Cu744  O762    1.970   .     S
Cu744  O763    1.959   .     S
H751   C821    1.088   .     S
H753   N179    1.029   1_556 S
N756   N179    1.298   1_556 S
N756   H178    1.029   1_556 S
O765   C165    1.380   1_556 S
O765   H190    0.989   1_556 S
H768   O191    0.989   1_556 S
C769   O805    1.292   .     A
C769   C773    1.426   .     S
C769   O807    1.283   .     A
C770   O806    1.292   .     A
C770   C774    1.426   .     S
C770   O808    1.283   .     A
C771   C788    1.398   .     A
C771   H797    1.085   .     S
C771   C837    1.392   1_455 S
C772   C787    1.398   .     A
C772   H798    1.085   .     S
C772   C838    1.392   .     S
C774   C581    1.326   1_565 S
C774   H608    1.088   1_565 S
C775   O811    1.292   .     A
C775   O809    1.298   .     A
C775   C780    1.457   .     S
C776   C779    1.457   .     S
C776   O810    1.298   .     A
C776   O812    1.292   .     A
C777   C779    1.399   .     A
C777   H793    1.085   .     S
C777   C787    1.388   .     A
C778   H794    1.085   .     S
C778   C780    1.399   .     A
C778   C788    1.388   .     A
C779   C781    1.399   .     A
C780   C782    1.399   .     A
C781   C783    1.402   .     A
C781   H795    1.081   .     S
C782   H796    1.081   .     S
C782   C784    1.402   .     A
C783   C785    1.421   .     A
C783   C789    1.419   .     A
C784   C786    1.421   .     A
C784   C790    1.419   .     A
C785   C787    1.409   .     A
C785   C834    1.403   .     S
C786   C788    1.409   .     A
C786   C833    1.403   1_455 S
C789   C819    1.392   .     S
C790   C820    1.392   1_455 S
C790   O239    1.380   1_556 S
Cu791  Cu792   2.685   .     S
Cu791  O809    1.970   .     S
Cu791  O808    1.950   .     S
Cu791  N804    2.018   .     S
Cu791  O805    1.956   .     S
Cu791  O812    1.959   .     S
Cu792  O806    1.956   .     S
Cu792  N803    2.018   .     S
Cu792  O807    1.950   .     S
Cu792  O810    1.970   .     S
Cu792  O811    1.959   .     S
H799   C581    1.088   1_565 S
H801   N227    1.029   1_556 S
N804   N227    1.298   1_556 S
N804   H226    1.029   1_556 S
O813   C213    1.380   1_556 S
O813   H238    0.989   1_556 S
H816   O239    0.989   1_556 S
C817   O853    1.292   .     A
C817   C821    1.426   .     S
C817   O855    1.283   .     A
C818   O854    1.292   .     A
C818   C822    1.426   .     S
C818   O856    1.283   .     A
C819   C836    1.398   .     A
C819   H845    1.085   .     S
C820   C835    1.398   .     A
C820   H846    1.085   .     S
C820   C790    1.392   1_655 S
C822   C629    1.326   1_565 S
C822   H656    1.088   1_565 S
C823   O859    1.292   .     A
C823   O857    1.298   .     A
C823   C828    1.457   .     S
C824   C827    1.457   .     S
C824   O858    1.298   .     A
C824   O860    1.292   .     A
C825   C827    1.399   .     A
C825   H841    1.085   .     S
C825   C835    1.388   .     A
C826   H842    1.085   .     S
C826   C828    1.399   .     A
C826   C836    1.388   .     A
C827   C829    1.399   .     A
C828   C830    1.399   .     A
C829   C831    1.402   .     A
C829   H843    1.081   .     S
C830   H844    1.081   .     S
C830   C832    1.402   .     A
C831   C833    1.421   .     A
C831   C837    1.419   .     A
C832   C834    1.421   .     A
C832   C838    1.419   .     A
C833   C835    1.409   .     A
C833   C786    1.403   1_655 S
C834   C836    1.409   .     A
C837   C771    1.392   1_655 S
C838   O287    1.380   1_556 S
Cu839  Cu840   2.685   .     S
Cu839  O857    1.970   .     S
Cu839  O856    1.950   .     S
Cu839  N852    2.018   .     S
Cu839  O853    1.956   .     S
Cu839  O860    1.959   .     S
Cu840  O854    1.956   .     S
Cu840  N851    2.018   .     S
Cu840  O855    1.950   .     S
Cu840  O858    1.970   .     S
Cu840  O859    1.959   .     S
H847   C629    1.088   1_565 S
H849   N275    1.029   1_556 S
N852   N275    1.298   1_556 S
N852   H274    1.029   1_556 S
O861   C261    1.380   1_556 S
O861   H286    0.989   1_556 S
H864   O287    0.989   1_556 S
