data_str_m2_o10_o17_pcu_sym.131
_audit_creation_date              2020-01-03
_audit_creation_method            'Materials Studio'
_symmetry_space_group_name_H-M    'P1'
_symmetry_Int_Tables_number       1
_symmetry_cell_setting            triclinic
loop_
_symmetry_equiv_pos_as_xyz
  x,y,z
_cell_length_a                    30.0058
_cell_length_b                    26.2668
_cell_length_c                    22.3237
_cell_angle_alpha                 103.0354
_cell_angle_beta                  94.1014
_cell_angle_gamma                 91.8203
loop_
_atom_site_label
_atom_site_type_symbol
_atom_site_fract_x
_atom_site_fract_y
_atom_site_fract_z
_atom_site_U_iso_or_equiv
_atom_site_adp_type
_atom_site_occupancy
C1     C     0.24836   0.06675   0.15129   0.00000  Uiso   1.00
C2     C     0.25164   0.26658   0.18204   0.00000  Uiso   1.00
C3     C     0.02003   0.08423   0.20164   0.00000  Uiso   1.00
C4     C     0.47997   0.24910   0.13169   0.00000  Uiso   1.00
C5     C     0.24156   0.01141   0.14418   0.00000  Uiso   1.00
C6     C     0.25844   0.32193   0.18915   0.00000  Uiso   1.00
C7     C     0.16458   0.16581   0.16751   0.00000  Uiso   1.00
C8     C     0.33542   0.16753   0.16583   0.00000  Uiso   1.00
C9     C     0.40718   0.21093   0.14950   0.00000  Uiso   1.00
C10    C     0.09282   0.12240   0.18383   0.00000  Uiso   1.00
C11    C     0.38354   0.16849   0.16380   0.00000  Uiso   1.00
C12    C     0.11646   0.16484   0.16954   0.00000  Uiso   1.00
C13    C     0.40573   0.12725   0.18003   0.00000  Uiso   1.00
C14    C     0.09427   0.20608   0.15331   0.00000  Uiso   1.00
C15    C     0.45193   0.12660   0.18200   0.00000  Uiso   1.00
C16    C     0.04807   0.20673   0.15133   0.00000  Uiso   1.00
C17    C     0.47654   0.16749   0.16618   0.00000  Uiso   1.00
C18    C     0.02346   0.16585   0.16716   0.00000  Uiso   1.00
C19    C     0.45434   0.20986   0.14933   0.00000  Uiso   1.00
C20    C     0.04566   0.12347   0.18400   0.00000  Uiso   1.00
C21    C     0.47374   0.08559   0.19999   0.00000  Uiso   1.00
C22    C     0.02626   0.24774   0.13334   0.00000  Uiso   1.00
Cu23   Cu    0.25500   0.17246   0.22813   0.00000  Uiso   1.00
Cu24   Cu    0.24499   0.16087   0.10521   0.00000  Uiso   1.00
H25    H     0.38675   0.09547   0.19128   0.00000  Uiso   1.00
H26    H     0.11325   0.23787   0.14205   0.00000  Uiso   1.00
H27    H     0.45494   0.05460   0.21338   0.00000  Uiso   1.00
H28    H     0.04506   0.27873   0.11996   0.00000  Uiso   1.00
H29    H     0.03518   0.05252   0.21777   0.00000  Uiso   1.00
H30    H     0.46482   0.28081   0.11556   0.00000  Uiso   1.00
H31    H     0.21538   0.12610   0.31602   0.00000  Uiso   1.00
H32    H     0.28462   0.20724   0.01731   0.00000  Uiso   1.00
N33    N     0.23744   0.15214   0.01284   0.00000  Uiso   1.00
N34    N     0.26255   0.18119   0.32049   0.00000  Uiso   1.00
O35    O     0.25325   0.09538   0.20659   0.00000  Uiso   1.00
O36    O     0.24674   0.23796   0.12674   0.00000  Uiso   1.00
O37    O     0.24480   0.08559   0.10279   0.00000  Uiso   1.00
O38    O     0.25520   0.24774   0.23055   0.00000  Uiso   1.00
O39    O     0.18935   0.17155   0.21857   0.00000  Uiso   1.00
O40    O     0.31064   0.16179   0.11476   0.00000  Uiso   1.00
O41    O     0.18090   0.16176   0.11477   0.00000  Uiso   1.00
O42    O     0.31910   0.17157   0.21857   0.00000  Uiso   1.00
C43    C     0.38206   0.25628   0.13792   0.00000  Uiso   1.00
H44    H     0.35000   0.24989   0.11101   0.00000  Uiso   1.00
O45    O     0.39569   0.30117   0.16115   0.00000  Uiso   1.00
C46    C     0.11794   0.07706   0.19541   0.00000  Uiso   1.00
H47    H     0.15000   0.08344   0.22232   0.00000  Uiso   1.00
O48    O     0.10431   0.03217   0.17218   0.00000  Uiso   1.00
C49    C     0.20949   0.31767   0.09148   0.00000  Uiso   1.00
O50    O     0.21548   0.32129   0.03897   0.00000  Uiso   1.00
O51    O     0.17205   0.28916   0.10234   0.00000  Uiso   1.00
H52    H     0.15284   0.27288   0.06302   0.00000  Uiso   1.00
C53    C     0.29051   0.01567   0.24186   0.00000  Uiso   1.00
O54    O     0.28452   0.01204   0.29437   0.00000  Uiso   1.00
O55    O     0.32795   0.04417   0.23100   0.00000  Uiso   1.00
H56    H     0.34716   0.06045   0.27031   0.00000  Uiso   1.00
C57    C     0.74836   0.06675   0.15129   0.00000  Uiso   1.00
C58    C     0.75164   0.26658   0.18204   0.00000  Uiso   1.00
C59    C     0.52003   0.08423   0.20164   0.00000  Uiso   1.00
C60    C     0.97997   0.24910   0.13169   0.00000  Uiso   1.00
C61    C     0.74156   0.01141   0.14418   0.00000  Uiso   1.00
C62    C     0.75844   0.32193   0.18915   0.00000  Uiso   1.00
C63    C     0.66458   0.16581   0.16751   0.00000  Uiso   1.00
C64    C     0.83542   0.16753   0.16583   0.00000  Uiso   1.00
C65    C     0.90718   0.21093   0.14950   0.00000  Uiso   1.00
C66    C     0.59282   0.12240   0.18383   0.00000  Uiso   1.00
C67    C     0.88354   0.16849   0.16380   0.00000  Uiso   1.00
C68    C     0.61646   0.16484   0.16954   0.00000  Uiso   1.00
C69    C     0.90573   0.12725   0.18003   0.00000  Uiso   1.00
C70    C     0.59427   0.20608   0.15331   0.00000  Uiso   1.00
C71    C     0.95193   0.12660   0.18200   0.00000  Uiso   1.00
C72    C     0.54807   0.20673   0.15133   0.00000  Uiso   1.00
C73    C     0.97654   0.16749   0.16618   0.00000  Uiso   1.00
C74    C     0.52346   0.16585   0.16716   0.00000  Uiso   1.00
C75    C     0.95434   0.20986   0.14933   0.00000  Uiso   1.00
C76    C     0.54566   0.12347   0.18400   0.00000  Uiso   1.00
C77    C     0.97374   0.08559   0.19999   0.00000  Uiso   1.00
C78    C     0.52626   0.24774   0.13334   0.00000  Uiso   1.00
Cu79   Cu    0.75500   0.17246   0.22813   0.00000  Uiso   1.00
Cu80   Cu    0.74499   0.16087   0.10521   0.00000  Uiso   1.00
H81    H     0.88675   0.09547   0.19128   0.00000  Uiso   1.00
H82    H     0.61325   0.23787   0.14205   0.00000  Uiso   1.00
H83    H     0.95494   0.05460   0.21338   0.00000  Uiso   1.00
H84    H     0.54506   0.27873   0.11996   0.00000  Uiso   1.00
H85    H     0.53518   0.05252   0.21777   0.00000  Uiso   1.00
H86    H     0.96482   0.28081   0.11556   0.00000  Uiso   1.00
H87    H     0.71538   0.12610   0.31602   0.00000  Uiso   1.00
H88    H     0.78462   0.20724   0.01731   0.00000  Uiso   1.00
N89    N     0.73744   0.15214   0.01284   0.00000  Uiso   1.00
N90    N     0.76255   0.18119   0.32049   0.00000  Uiso   1.00
O91    O     0.75325   0.09538   0.20659   0.00000  Uiso   1.00
O92    O     0.74674   0.23796   0.12674   0.00000  Uiso   1.00
O93    O     0.74480   0.08559   0.10279   0.00000  Uiso   1.00
O94    O     0.75520   0.24774   0.23055   0.00000  Uiso   1.00
O95    O     0.68935   0.17155   0.21857   0.00000  Uiso   1.00
O96    O     0.81064   0.16179   0.11476   0.00000  Uiso   1.00
O97    O     0.68090   0.16176   0.11477   0.00000  Uiso   1.00
O98    O     0.81910   0.17157   0.21857   0.00000  Uiso   1.00
C99    C     0.88206   0.25628   0.13792   0.00000  Uiso   1.00
H100   H     0.85000   0.24989   0.11101   0.00000  Uiso   1.00
O101   O     0.89569   0.30117   0.16115   0.00000  Uiso   1.00
C102   C     0.61794   0.07706   0.19541   0.00000  Uiso   1.00
H103   H     0.65000   0.08344   0.22232   0.00000  Uiso   1.00
O104   O     0.60431   0.03217   0.17218   0.00000  Uiso   1.00
C105   C     0.70949   0.31767   0.09148   0.00000  Uiso   1.00
O106   O     0.71548   0.32129   0.03897   0.00000  Uiso   1.00
O107   O     0.67205   0.28916   0.10234   0.00000  Uiso   1.00
H108   H     0.65284   0.27288   0.06302   0.00000  Uiso   1.00
C109   C     0.79051   0.01567   0.24186   0.00000  Uiso   1.00
O110   O     0.78452   0.01204   0.29437   0.00000  Uiso   1.00
O111   O     0.82795   0.04417   0.23100   0.00000  Uiso   1.00
H112   H     0.84716   0.06045   0.27031   0.00000  Uiso   1.00
C113   C     0.24836   0.40009   0.15129   0.00000  Uiso   1.00
C114   C     0.25164   0.59991   0.18204   0.00000  Uiso   1.00
C115   C     0.02003   0.41757   0.20164   0.00000  Uiso   1.00
C116   C     0.47997   0.58243   0.13169   0.00000  Uiso   1.00
C117   C     0.24156   0.34474   0.14418   0.00000  Uiso   1.00
C118   C     0.25844   0.65526   0.18915   0.00000  Uiso   1.00
C119   C     0.16458   0.49914   0.16751   0.00000  Uiso   1.00
C120   C     0.33542   0.50086   0.16583   0.00000  Uiso   1.00
C121   C     0.40718   0.54427   0.14950   0.00000  Uiso   1.00
C122   C     0.09282   0.45573   0.18383   0.00000  Uiso   1.00
C123   C     0.38354   0.50183   0.16380   0.00000  Uiso   1.00
C124   C     0.11646   0.49817   0.16954   0.00000  Uiso   1.00
C125   C     0.40573   0.46058   0.18003   0.00000  Uiso   1.00
C126   C     0.09427   0.53942   0.15331   0.00000  Uiso   1.00
C127   C     0.45193   0.45994   0.18200   0.00000  Uiso   1.00
C128   C     0.04807   0.54006   0.15133   0.00000  Uiso   1.00
C129   C     0.47654   0.50082   0.16618   0.00000  Uiso   1.00
C130   C     0.02346   0.49918   0.16716   0.00000  Uiso   1.00
C131   C     0.45434   0.54320   0.14933   0.00000  Uiso   1.00
C132   C     0.04566   0.45680   0.18400   0.00000  Uiso   1.00
C133   C     0.47374   0.41892   0.19999   0.00000  Uiso   1.00
C134   C     0.02626   0.58108   0.13334   0.00000  Uiso   1.00
Cu135  Cu    0.25500   0.50579   0.22813   0.00000  Uiso   1.00
Cu136  Cu    0.24499   0.49421   0.10521   0.00000  Uiso   1.00
H137   H     0.38675   0.42880   0.19128   0.00000  Uiso   1.00
H138   H     0.11325   0.57120   0.14205   0.00000  Uiso   1.00
H139   H     0.45494   0.38793   0.21338   0.00000  Uiso   1.00
H140   H     0.04506   0.61207   0.11996   0.00000  Uiso   1.00
H141   H     0.03518   0.38585   0.21777   0.00000  Uiso   1.00
H142   H     0.46482   0.61415   0.11556   0.00000  Uiso   1.00
H143   H     0.21538   0.45943   0.31602   0.00000  Uiso   1.00
H144   H     0.28462   0.54057   0.01731   0.00000  Uiso   1.00
N145   N     0.23744   0.48547   0.01284   0.00000  Uiso   1.00
N146   N     0.26255   0.51453   0.32049   0.00000  Uiso   1.00
O147   O     0.25325   0.42871   0.20659   0.00000  Uiso   1.00
O148   O     0.24674   0.57129   0.12674   0.00000  Uiso   1.00
O149   O     0.24480   0.41892   0.10279   0.00000  Uiso   1.00
O150   O     0.25520   0.58108   0.23055   0.00000  Uiso   1.00
O151   O     0.18935   0.50488   0.21857   0.00000  Uiso   1.00
O152   O     0.31064   0.49512   0.11476   0.00000  Uiso   1.00
O153   O     0.18090   0.49510   0.11477   0.00000  Uiso   1.00
O154   O     0.31910   0.50490   0.21857   0.00000  Uiso   1.00
C155   C     0.38206   0.58961   0.13792   0.00000  Uiso   1.00
H156   H     0.35000   0.58322   0.11101   0.00000  Uiso   1.00
O157   O     0.39569   0.63450   0.16115   0.00000  Uiso   1.00
C158   C     0.11794   0.41039   0.19541   0.00000  Uiso   1.00
H159   H     0.15000   0.41678   0.22232   0.00000  Uiso   1.00
O160   O     0.10431   0.36550   0.17218   0.00000  Uiso   1.00
C161   C     0.20949   0.65100   0.09148   0.00000  Uiso   1.00
O162   O     0.21548   0.65463   0.03897   0.00000  Uiso   1.00
O163   O     0.17205   0.62250   0.10234   0.00000  Uiso   1.00
H164   H     0.15284   0.60622   0.06302   0.00000  Uiso   1.00
C165   C     0.29051   0.34900   0.24186   0.00000  Uiso   1.00
O166   O     0.28452   0.34538   0.29437   0.00000  Uiso   1.00
O167   O     0.32795   0.37750   0.23100   0.00000  Uiso   1.00
H168   H     0.34716   0.39379   0.27031   0.00000  Uiso   1.00
C169   C     0.74836   0.40009   0.15129   0.00000  Uiso   1.00
C170   C     0.75164   0.59991   0.18204   0.00000  Uiso   1.00
C171   C     0.52003   0.41757   0.20164   0.00000  Uiso   1.00
C172   C     0.97997   0.58243   0.13169   0.00000  Uiso   1.00
C173   C     0.74156   0.34474   0.14418   0.00000  Uiso   1.00
C174   C     0.75844   0.65526   0.18915   0.00000  Uiso   1.00
C175   C     0.66458   0.49914   0.16751   0.00000  Uiso   1.00
C176   C     0.83542   0.50086   0.16583   0.00000  Uiso   1.00
C177   C     0.90718   0.54427   0.14950   0.00000  Uiso   1.00
C178   C     0.59282   0.45573   0.18383   0.00000  Uiso   1.00
C179   C     0.88354   0.50183   0.16380   0.00000  Uiso   1.00
C180   C     0.61646   0.49817   0.16954   0.00000  Uiso   1.00
C181   C     0.90573   0.46058   0.18003   0.00000  Uiso   1.00
C182   C     0.59427   0.53942   0.15331   0.00000  Uiso   1.00
C183   C     0.95193   0.45994   0.18200   0.00000  Uiso   1.00
C184   C     0.54807   0.54006   0.15133   0.00000  Uiso   1.00
C185   C     0.97654   0.50082   0.16618   0.00000  Uiso   1.00
C186   C     0.52346   0.49918   0.16716   0.00000  Uiso   1.00
C187   C     0.95434   0.54320   0.14933   0.00000  Uiso   1.00
C188   C     0.54566   0.45680   0.18400   0.00000  Uiso   1.00
C189   C     0.97374   0.41892   0.19999   0.00000  Uiso   1.00
C190   C     0.52626   0.58108   0.13334   0.00000  Uiso   1.00
Cu191  Cu    0.75500   0.50579   0.22813   0.00000  Uiso   1.00
Cu192  Cu    0.74499   0.49421   0.10521   0.00000  Uiso   1.00
H193   H     0.88675   0.42880   0.19128   0.00000  Uiso   1.00
H194   H     0.61325   0.57120   0.14205   0.00000  Uiso   1.00
H195   H     0.95494   0.38793   0.21338   0.00000  Uiso   1.00
H196   H     0.54506   0.61207   0.11996   0.00000  Uiso   1.00
H197   H     0.53518   0.38585   0.21777   0.00000  Uiso   1.00
H198   H     0.96482   0.61415   0.11556   0.00000  Uiso   1.00
H199   H     0.71538   0.45943   0.31602   0.00000  Uiso   1.00
H200   H     0.78462   0.54057   0.01731   0.00000  Uiso   1.00
N201   N     0.73744   0.48547   0.01284   0.00000  Uiso   1.00
N202   N     0.76255   0.51453   0.32049   0.00000  Uiso   1.00
O203   O     0.75325   0.42871   0.20659   0.00000  Uiso   1.00
O204   O     0.74674   0.57129   0.12674   0.00000  Uiso   1.00
O205   O     0.74480   0.41892   0.10279   0.00000  Uiso   1.00
O206   O     0.75520   0.58108   0.23055   0.00000  Uiso   1.00
O207   O     0.68935   0.50488   0.21857   0.00000  Uiso   1.00
O208   O     0.81064   0.49512   0.11476   0.00000  Uiso   1.00
O209   O     0.68090   0.49510   0.11477   0.00000  Uiso   1.00
O210   O     0.81910   0.50490   0.21857   0.00000  Uiso   1.00
C211   C     0.88206   0.58961   0.13792   0.00000  Uiso   1.00
H212   H     0.85000   0.58322   0.11101   0.00000  Uiso   1.00
O213   O     0.89569   0.63450   0.16115   0.00000  Uiso   1.00
C214   C     0.61794   0.41039   0.19541   0.00000  Uiso   1.00
H215   H     0.65000   0.41678   0.22232   0.00000  Uiso   1.00
O216   O     0.60431   0.36550   0.17218   0.00000  Uiso   1.00
C217   C     0.70949   0.65100   0.09148   0.00000  Uiso   1.00
O218   O     0.71548   0.65463   0.03897   0.00000  Uiso   1.00
O219   O     0.67205   0.62250   0.10234   0.00000  Uiso   1.00
H220   H     0.65284   0.60622   0.06302   0.00000  Uiso   1.00
C221   C     0.79051   0.34900   0.24186   0.00000  Uiso   1.00
O222   O     0.78452   0.34538   0.29437   0.00000  Uiso   1.00
O223   O     0.82795   0.37750   0.23100   0.00000  Uiso   1.00
H224   H     0.84716   0.39379   0.27031   0.00000  Uiso   1.00
C225   C     0.24836   0.73342   0.15129   0.00000  Uiso   1.00
C226   C     0.25164   0.93325   0.18204   0.00000  Uiso   1.00
C227   C     0.02003   0.75090   0.20164   0.00000  Uiso   1.00
C228   C     0.47997   0.91577   0.13169   0.00000  Uiso   1.00
C229   C     0.24156   0.67807   0.14418   0.00000  Uiso   1.00
C230   C     0.25844   0.98859   0.18915   0.00000  Uiso   1.00
C231   C     0.16458   0.83247   0.16751   0.00000  Uiso   1.00
C232   C     0.33542   0.83419   0.16583   0.00000  Uiso   1.00
C233   C     0.40718   0.87760   0.14950   0.00000  Uiso   1.00
C234   C     0.09282   0.78907   0.18383   0.00000  Uiso   1.00
C235   C     0.38354   0.83516   0.16380   0.00000  Uiso   1.00
C236   C     0.11646   0.83151   0.16954   0.00000  Uiso   1.00
C237   C     0.40573   0.79392   0.18003   0.00000  Uiso   1.00
C238   C     0.09427   0.87275   0.15331   0.00000  Uiso   1.00
C239   C     0.45193   0.79327   0.18200   0.00000  Uiso   1.00
C240   C     0.04807   0.87340   0.15133   0.00000  Uiso   1.00
C241   C     0.47654   0.83415   0.16618   0.00000  Uiso   1.00
C242   C     0.02346   0.83251   0.16716   0.00000  Uiso   1.00
C243   C     0.45434   0.87653   0.14933   0.00000  Uiso   1.00
C244   C     0.04566   0.79014   0.18400   0.00000  Uiso   1.00
C245   C     0.47374   0.75226   0.19999   0.00000  Uiso   1.00
C246   C     0.02626   0.91441   0.13334   0.00000  Uiso   1.00
Cu247  Cu    0.25500   0.83913   0.22813   0.00000  Uiso   1.00
Cu248  Cu    0.24499   0.82754   0.10521   0.00000  Uiso   1.00
H249   H     0.38675   0.76213   0.19128   0.00000  Uiso   1.00
H250   H     0.11325   0.90453   0.14205   0.00000  Uiso   1.00
H251   H     0.45494   0.72127   0.21338   0.00000  Uiso   1.00
H252   H     0.04506   0.94540   0.11996   0.00000  Uiso   1.00
H253   H     0.03518   0.71919   0.21777   0.00000  Uiso   1.00
H254   H     0.46482   0.94748   0.11556   0.00000  Uiso   1.00
H255   H     0.21538   0.79276   0.31602   0.00000  Uiso   1.00
H256   H     0.28462   0.87390   0.01731   0.00000  Uiso   1.00
N257   N     0.23744   0.81881   0.01284   0.00000  Uiso   1.00
N258   N     0.26255   0.84786   0.32049   0.00000  Uiso   1.00
O259   O     0.25325   0.76204   0.20659   0.00000  Uiso   1.00
O260   O     0.24674   0.90462   0.12674   0.00000  Uiso   1.00
O261   O     0.24480   0.75226   0.10279   0.00000  Uiso   1.00
O262   O     0.25520   0.91441   0.23055   0.00000  Uiso   1.00
O263   O     0.18935   0.83821   0.21857   0.00000  Uiso   1.00
O264   O     0.31064   0.82845   0.11476   0.00000  Uiso   1.00
O265   O     0.18090   0.82843   0.11477   0.00000  Uiso   1.00
O266   O     0.31910   0.83824   0.21857   0.00000  Uiso   1.00
C267   C     0.38206   0.92294   0.13792   0.00000  Uiso   1.00
H268   H     0.35000   0.91656   0.11101   0.00000  Uiso   1.00
O269   O     0.39569   0.96783   0.16115   0.00000  Uiso   1.00
C270   C     0.11794   0.74372   0.19541   0.00000  Uiso   1.00
H271   H     0.15000   0.75011   0.22232   0.00000  Uiso   1.00
O272   O     0.10431   0.69883   0.17218   0.00000  Uiso   1.00
C273   C     0.20949   0.98433   0.09148   0.00000  Uiso   1.00
O274   O     0.21548   0.98796   0.03897   0.00000  Uiso   1.00
O275   O     0.17205   0.95583   0.10234   0.00000  Uiso   1.00
H276   H     0.15284   0.93955   0.06302   0.00000  Uiso   1.00
C277   C     0.29051   0.68234   0.24186   0.00000  Uiso   1.00
O278   O     0.28452   0.67871   0.29437   0.00000  Uiso   1.00
O279   O     0.32795   0.71084   0.23100   0.00000  Uiso   1.00
H280   H     0.34716   0.72712   0.27031   0.00000  Uiso   1.00
C281   C     0.74836   0.73342   0.15129   0.00000  Uiso   1.00
C282   C     0.75164   0.93325   0.18204   0.00000  Uiso   1.00
C283   C     0.52003   0.75090   0.20164   0.00000  Uiso   1.00
C284   C     0.97997   0.91577   0.13169   0.00000  Uiso   1.00
C285   C     0.74156   0.67807   0.14418   0.00000  Uiso   1.00
C286   C     0.75844   0.98859   0.18915   0.00000  Uiso   1.00
C287   C     0.66458   0.83247   0.16751   0.00000  Uiso   1.00
C288   C     0.83542   0.83419   0.16583   0.00000  Uiso   1.00
C289   C     0.90718   0.87760   0.14950   0.00000  Uiso   1.00
C290   C     0.59282   0.78907   0.18383   0.00000  Uiso   1.00
C291   C     0.88354   0.83516   0.16380   0.00000  Uiso   1.00
C292   C     0.61646   0.83151   0.16954   0.00000  Uiso   1.00
C293   C     0.90573   0.79392   0.18003   0.00000  Uiso   1.00
C294   C     0.59427   0.87275   0.15331   0.00000  Uiso   1.00
C295   C     0.95193   0.79327   0.18200   0.00000  Uiso   1.00
C296   C     0.54807   0.87340   0.15133   0.00000  Uiso   1.00
C297   C     0.97654   0.83415   0.16618   0.00000  Uiso   1.00
C298   C     0.52346   0.83251   0.16716   0.00000  Uiso   1.00
C299   C     0.95434   0.87653   0.14933   0.00000  Uiso   1.00
C300   C     0.54566   0.79014   0.18400   0.00000  Uiso   1.00
C301   C     0.97374   0.75226   0.19999   0.00000  Uiso   1.00
C302   C     0.52626   0.91441   0.13334   0.00000  Uiso   1.00
Cu303  Cu    0.75500   0.83913   0.22813   0.00000  Uiso   1.00
Cu304  Cu    0.74499   0.82754   0.10521   0.00000  Uiso   1.00
H305   H     0.88675   0.76213   0.19128   0.00000  Uiso   1.00
H306   H     0.61325   0.90453   0.14205   0.00000  Uiso   1.00
H307   H     0.95494   0.72127   0.21338   0.00000  Uiso   1.00
H308   H     0.54506   0.94540   0.11996   0.00000  Uiso   1.00
H309   H     0.53518   0.71919   0.21777   0.00000  Uiso   1.00
H310   H     0.96482   0.94748   0.11556   0.00000  Uiso   1.00
H311   H     0.71538   0.79276   0.31602   0.00000  Uiso   1.00
H312   H     0.78462   0.87390   0.01731   0.00000  Uiso   1.00
N313   N     0.73744   0.81881   0.01284   0.00000  Uiso   1.00
N314   N     0.76255   0.84786   0.32049   0.00000  Uiso   1.00
O315   O     0.75325   0.76204   0.20659   0.00000  Uiso   1.00
O316   O     0.74674   0.90462   0.12674   0.00000  Uiso   1.00
O317   O     0.74480   0.75226   0.10279   0.00000  Uiso   1.00
O318   O     0.75520   0.91441   0.23055   0.00000  Uiso   1.00
O319   O     0.68935   0.83821   0.21857   0.00000  Uiso   1.00
O320   O     0.81064   0.82845   0.11476   0.00000  Uiso   1.00
O321   O     0.68090   0.82843   0.11477   0.00000  Uiso   1.00
O322   O     0.81910   0.83824   0.21857   0.00000  Uiso   1.00
C323   C     0.88206   0.92294   0.13792   0.00000  Uiso   1.00
H324   H     0.85000   0.91656   0.11101   0.00000  Uiso   1.00
O325   O     0.89569   0.96783   0.16115   0.00000  Uiso   1.00
C326   C     0.61794   0.74372   0.19541   0.00000  Uiso   1.00
H327   H     0.65000   0.75011   0.22232   0.00000  Uiso   1.00
O328   O     0.60431   0.69883   0.17218   0.00000  Uiso   1.00
C329   C     0.70949   0.98433   0.09148   0.00000  Uiso   1.00
O330   O     0.71548   0.98796   0.03897   0.00000  Uiso   1.00
O331   O     0.67205   0.95583   0.10234   0.00000  Uiso   1.00
H332   H     0.65284   0.93955   0.06302   0.00000  Uiso   1.00
C333   C     0.79051   0.68234   0.24186   0.00000  Uiso   1.00
O334   O     0.78452   0.67871   0.29437   0.00000  Uiso   1.00
O335   O     0.82795   0.71084   0.23100   0.00000  Uiso   1.00
H336   H     0.84716   0.72712   0.27031   0.00000  Uiso   1.00
C337   C     0.24836   0.06675   0.48463   0.00000  Uiso   1.00
C338   C     0.25164   0.26658   0.51537   0.00000  Uiso   1.00
C339   C     0.02003   0.08423   0.53498   0.00000  Uiso   1.00
C340   C     0.47997   0.24910   0.46502   0.00000  Uiso   1.00
C341   C     0.24156   0.01141   0.47752   0.00000  Uiso   1.00
C342   C     0.25844   0.32193   0.52248   0.00000  Uiso   1.00
C343   C     0.16458   0.16581   0.50084   0.00000  Uiso   1.00
C344   C     0.33542   0.16753   0.49916   0.00000  Uiso   1.00
C345   C     0.40718   0.21093   0.48283   0.00000  Uiso   1.00
C346   C     0.09282   0.12240   0.51717   0.00000  Uiso   1.00
C347   C     0.38354   0.16849   0.49713   0.00000  Uiso   1.00
C348   C     0.11646   0.16484   0.50287   0.00000  Uiso   1.00
C349   C     0.40573   0.12725   0.51336   0.00000  Uiso   1.00
C350   C     0.09427   0.20608   0.48664   0.00000  Uiso   1.00
C351   C     0.45193   0.12660   0.51534   0.00000  Uiso   1.00
C352   C     0.04807   0.20673   0.48466   0.00000  Uiso   1.00
C353   C     0.47654   0.16749   0.49951   0.00000  Uiso   1.00
C354   C     0.02346   0.16585   0.50049   0.00000  Uiso   1.00
C355   C     0.45434   0.20986   0.48267   0.00000  Uiso   1.00
C356   C     0.04566   0.12347   0.51733   0.00000  Uiso   1.00
C357   C     0.47374   0.08559   0.53333   0.00000  Uiso   1.00
C358   C     0.02626   0.24774   0.46667   0.00000  Uiso   1.00
Cu359  Cu    0.25500   0.17246   0.56146   0.00000  Uiso   1.00
Cu360  Cu    0.24499   0.16087   0.43854   0.00000  Uiso   1.00
H361   H     0.38675   0.09547   0.52462   0.00000  Uiso   1.00
H362   H     0.11325   0.23787   0.47538   0.00000  Uiso   1.00
H363   H     0.45494   0.05460   0.54671   0.00000  Uiso   1.00
H364   H     0.04506   0.27873   0.45329   0.00000  Uiso   1.00
H365   H     0.03518   0.05252   0.55111   0.00000  Uiso   1.00
H366   H     0.46482   0.28081   0.44889   0.00000  Uiso   1.00
H367   H     0.21538   0.12610   0.64936   0.00000  Uiso   1.00
H368   H     0.28462   0.20724   0.35064   0.00000  Uiso   1.00
N369   N     0.23744   0.15214   0.34617   0.00000  Uiso   1.00
N370   N     0.26255   0.18119   0.65383   0.00000  Uiso   1.00
O371   O     0.25325   0.09538   0.53992   0.00000  Uiso   1.00
O372   O     0.24674   0.23796   0.46008   0.00000  Uiso   1.00
O373   O     0.24480   0.08559   0.43612   0.00000  Uiso   1.00
O374   O     0.25520   0.24774   0.56388   0.00000  Uiso   1.00
O375   O     0.18935   0.17155   0.55191   0.00000  Uiso   1.00
O376   O     0.31064   0.16179   0.44809   0.00000  Uiso   1.00
O377   O     0.18090   0.16176   0.44810   0.00000  Uiso   1.00
O378   O     0.31910   0.17157   0.55190   0.00000  Uiso   1.00
C379   C     0.38206   0.25628   0.47125   0.00000  Uiso   1.00
H380   H     0.35000   0.24989   0.44435   0.00000  Uiso   1.00
O381   O     0.39569   0.30117   0.49449   0.00000  Uiso   1.00
C382   C     0.11794   0.07706   0.52875   0.00000  Uiso   1.00
H383   H     0.15000   0.08344   0.55565   0.00000  Uiso   1.00
O384   O     0.10431   0.03217   0.50551   0.00000  Uiso   1.00
C385   C     0.20949   0.31767   0.42481   0.00000  Uiso   1.00
O386   O     0.21548   0.32129   0.37230   0.00000  Uiso   1.00
O387   O     0.17205   0.28916   0.43567   0.00000  Uiso   1.00
H388   H     0.15284   0.27288   0.39635   0.00000  Uiso   1.00
C389   C     0.29051   0.01567   0.57519   0.00000  Uiso   1.00
O390   O     0.28452   0.01204   0.62770   0.00000  Uiso   1.00
O391   O     0.32795   0.04417   0.56433   0.00000  Uiso   1.00
H392   H     0.34716   0.06045   0.60365   0.00000  Uiso   1.00
C393   C     0.74836   0.06675   0.48463   0.00000  Uiso   1.00
C394   C     0.75164   0.26658   0.51537   0.00000  Uiso   1.00
C395   C     0.52003   0.08423   0.53498   0.00000  Uiso   1.00
C396   C     0.97997   0.24910   0.46502   0.00000  Uiso   1.00
C397   C     0.74156   0.01141   0.47752   0.00000  Uiso   1.00
C398   C     0.75844   0.32193   0.52248   0.00000  Uiso   1.00
C399   C     0.66458   0.16581   0.50084   0.00000  Uiso   1.00
C400   C     0.83542   0.16753   0.49916   0.00000  Uiso   1.00
C401   C     0.90718   0.21093   0.48283   0.00000  Uiso   1.00
C402   C     0.59282   0.12240   0.51717   0.00000  Uiso   1.00
C403   C     0.88354   0.16849   0.49713   0.00000  Uiso   1.00
C404   C     0.61646   0.16484   0.50287   0.00000  Uiso   1.00
C405   C     0.90573   0.12725   0.51336   0.00000  Uiso   1.00
C406   C     0.59427   0.20608   0.48664   0.00000  Uiso   1.00
C407   C     0.95193   0.12660   0.51534   0.00000  Uiso   1.00
C408   C     0.54807   0.20673   0.48466   0.00000  Uiso   1.00
C409   C     0.97654   0.16749   0.49951   0.00000  Uiso   1.00
C410   C     0.52346   0.16585   0.50049   0.00000  Uiso   1.00
C411   C     0.95434   0.20986   0.48267   0.00000  Uiso   1.00
C412   C     0.54566   0.12347   0.51733   0.00000  Uiso   1.00
C413   C     0.97374   0.08559   0.53333   0.00000  Uiso   1.00
C414   C     0.52626   0.24774   0.46667   0.00000  Uiso   1.00
Cu415  Cu    0.75500   0.17246   0.56146   0.00000  Uiso   1.00
Cu416  Cu    0.74499   0.16087   0.43854   0.00000  Uiso   1.00
H417   H     0.88675   0.09547   0.52462   0.00000  Uiso   1.00
H418   H     0.61325   0.23787   0.47538   0.00000  Uiso   1.00
H419   H     0.95494   0.05460   0.54671   0.00000  Uiso   1.00
H420   H     0.54506   0.27873   0.45329   0.00000  Uiso   1.00
H421   H     0.53518   0.05252   0.55111   0.00000  Uiso   1.00
H422   H     0.96482   0.28081   0.44889   0.00000  Uiso   1.00
H423   H     0.71538   0.12610   0.64936   0.00000  Uiso   1.00
H424   H     0.78462   0.20724   0.35064   0.00000  Uiso   1.00
N425   N     0.73744   0.15214   0.34617   0.00000  Uiso   1.00
N426   N     0.76255   0.18119   0.65383   0.00000  Uiso   1.00
O427   O     0.75325   0.09538   0.53992   0.00000  Uiso   1.00
O428   O     0.74674   0.23796   0.46008   0.00000  Uiso   1.00
O429   O     0.74480   0.08559   0.43612   0.00000  Uiso   1.00
O430   O     0.75520   0.24774   0.56388   0.00000  Uiso   1.00
O431   O     0.68935   0.17155   0.55191   0.00000  Uiso   1.00
O432   O     0.81064   0.16179   0.44809   0.00000  Uiso   1.00
O433   O     0.68090   0.16176   0.44810   0.00000  Uiso   1.00
O434   O     0.81910   0.17157   0.55190   0.00000  Uiso   1.00
C435   C     0.88206   0.25628   0.47125   0.00000  Uiso   1.00
H436   H     0.85000   0.24989   0.44435   0.00000  Uiso   1.00
O437   O     0.89569   0.30117   0.49449   0.00000  Uiso   1.00
C438   C     0.61794   0.07706   0.52875   0.00000  Uiso   1.00
H439   H     0.65000   0.08344   0.55565   0.00000  Uiso   1.00
O440   O     0.60431   0.03217   0.50551   0.00000  Uiso   1.00
C441   C     0.70949   0.31767   0.42481   0.00000  Uiso   1.00
O442   O     0.71548   0.32129   0.37230   0.00000  Uiso   1.00
O443   O     0.67205   0.28916   0.43567   0.00000  Uiso   1.00
H444   H     0.65284   0.27288   0.39635   0.00000  Uiso   1.00
C445   C     0.79051   0.01567   0.57519   0.00000  Uiso   1.00
O446   O     0.78452   0.01204   0.62770   0.00000  Uiso   1.00
O447   O     0.82795   0.04417   0.56433   0.00000  Uiso   1.00
H448   H     0.84716   0.06045   0.60365   0.00000  Uiso   1.00
C449   C     0.24836   0.40009   0.48463   0.00000  Uiso   1.00
C450   C     0.25164   0.59991   0.51537   0.00000  Uiso   1.00
C451   C     0.02003   0.41757   0.53498   0.00000  Uiso   1.00
C452   C     0.47997   0.58243   0.46502   0.00000  Uiso   1.00
C453   C     0.24156   0.34474   0.47752   0.00000  Uiso   1.00
C454   C     0.25844   0.65526   0.52248   0.00000  Uiso   1.00
C455   C     0.16458   0.49914   0.50084   0.00000  Uiso   1.00
C456   C     0.33542   0.50086   0.49916   0.00000  Uiso   1.00
C457   C     0.40718   0.54427   0.48283   0.00000  Uiso   1.00
C458   C     0.09282   0.45573   0.51717   0.00000  Uiso   1.00
C459   C     0.38354   0.50183   0.49713   0.00000  Uiso   1.00
C460   C     0.11646   0.49817   0.50287   0.00000  Uiso   1.00
C461   C     0.40573   0.46058   0.51336   0.00000  Uiso   1.00
C462   C     0.09427   0.53942   0.48664   0.00000  Uiso   1.00
C463   C     0.45193   0.45994   0.51534   0.00000  Uiso   1.00
C464   C     0.04807   0.54006   0.48466   0.00000  Uiso   1.00
C465   C     0.47654   0.50082   0.49951   0.00000  Uiso   1.00
C466   C     0.02346   0.49918   0.50049   0.00000  Uiso   1.00
C467   C     0.45434   0.54320   0.48267   0.00000  Uiso   1.00
C468   C     0.04566   0.45680   0.51733   0.00000  Uiso   1.00
C469   C     0.47374   0.41892   0.53333   0.00000  Uiso   1.00
C470   C     0.02626   0.58108   0.46667   0.00000  Uiso   1.00
Cu471  Cu    0.25500   0.50579   0.56146   0.00000  Uiso   1.00
Cu472  Cu    0.24499   0.49421   0.43854   0.00000  Uiso   1.00
H473   H     0.38675   0.42880   0.52462   0.00000  Uiso   1.00
H474   H     0.11325   0.57120   0.47538   0.00000  Uiso   1.00
H475   H     0.45494   0.38793   0.54671   0.00000  Uiso   1.00
H476   H     0.04506   0.61207   0.45329   0.00000  Uiso   1.00
H477   H     0.03518   0.38585   0.55111   0.00000  Uiso   1.00
H478   H     0.46482   0.61415   0.44889   0.00000  Uiso   1.00
H479   H     0.21538   0.45943   0.64936   0.00000  Uiso   1.00
H480   H     0.28462   0.54057   0.35064   0.00000  Uiso   1.00
N481   N     0.23744   0.48547   0.34617   0.00000  Uiso   1.00
N482   N     0.26255   0.51453   0.65383   0.00000  Uiso   1.00
O483   O     0.25325   0.42871   0.53992   0.00000  Uiso   1.00
O484   O     0.24674   0.57129   0.46008   0.00000  Uiso   1.00
O485   O     0.24480   0.41892   0.43612   0.00000  Uiso   1.00
O486   O     0.25520   0.58108   0.56388   0.00000  Uiso   1.00
O487   O     0.18935   0.50488   0.55191   0.00000  Uiso   1.00
O488   O     0.31064   0.49512   0.44809   0.00000  Uiso   1.00
O489   O     0.18090   0.49510   0.44810   0.00000  Uiso   1.00
O490   O     0.31910   0.50490   0.55190   0.00000  Uiso   1.00
C491   C     0.38206   0.58961   0.47125   0.00000  Uiso   1.00
H492   H     0.35000   0.58322   0.44435   0.00000  Uiso   1.00
O493   O     0.39569   0.63450   0.49449   0.00000  Uiso   1.00
C494   C     0.11794   0.41039   0.52875   0.00000  Uiso   1.00
H495   H     0.15000   0.41678   0.55565   0.00000  Uiso   1.00
O496   O     0.10431   0.36550   0.50551   0.00000  Uiso   1.00
C497   C     0.20949   0.65100   0.42481   0.00000  Uiso   1.00
O498   O     0.21548   0.65463   0.37230   0.00000  Uiso   1.00
O499   O     0.17205   0.62250   0.43567   0.00000  Uiso   1.00
H500   H     0.15284   0.60622   0.39635   0.00000  Uiso   1.00
C501   C     0.29051   0.34900   0.57519   0.00000  Uiso   1.00
O502   O     0.28452   0.34538   0.62770   0.00000  Uiso   1.00
O503   O     0.32795   0.37750   0.56433   0.00000  Uiso   1.00
H504   H     0.34716   0.39379   0.60365   0.00000  Uiso   1.00
C505   C     0.74836   0.40009   0.48463   0.00000  Uiso   1.00
C506   C     0.75164   0.59991   0.51537   0.00000  Uiso   1.00
C507   C     0.52003   0.41757   0.53498   0.00000  Uiso   1.00
C508   C     0.97997   0.58243   0.46502   0.00000  Uiso   1.00
C509   C     0.74156   0.34474   0.47752   0.00000  Uiso   1.00
C510   C     0.75844   0.65526   0.52248   0.00000  Uiso   1.00
C511   C     0.66458   0.49914   0.50084   0.00000  Uiso   1.00
C512   C     0.83542   0.50086   0.49916   0.00000  Uiso   1.00
C513   C     0.90718   0.54427   0.48283   0.00000  Uiso   1.00
C514   C     0.59282   0.45573   0.51717   0.00000  Uiso   1.00
C515   C     0.88354   0.50183   0.49713   0.00000  Uiso   1.00
C516   C     0.61646   0.49817   0.50287   0.00000  Uiso   1.00
C517   C     0.90573   0.46058   0.51336   0.00000  Uiso   1.00
C518   C     0.59427   0.53942   0.48664   0.00000  Uiso   1.00
C519   C     0.95193   0.45994   0.51534   0.00000  Uiso   1.00
C520   C     0.54807   0.54006   0.48466   0.00000  Uiso   1.00
C521   C     0.97654   0.50082   0.49951   0.00000  Uiso   1.00
C522   C     0.52346   0.49918   0.50049   0.00000  Uiso   1.00
C523   C     0.95434   0.54320   0.48267   0.00000  Uiso   1.00
C524   C     0.54566   0.45680   0.51733   0.00000  Uiso   1.00
C525   C     0.97374   0.41892   0.53333   0.00000  Uiso   1.00
C526   C     0.52626   0.58108   0.46667   0.00000  Uiso   1.00
Cu527  Cu    0.75500   0.50579   0.56146   0.00000  Uiso   1.00
Cu528  Cu    0.74499   0.49421   0.43854   0.00000  Uiso   1.00
H529   H     0.88675   0.42880   0.52462   0.00000  Uiso   1.00
H530   H     0.61325   0.57120   0.47538   0.00000  Uiso   1.00
H531   H     0.95494   0.38793   0.54671   0.00000  Uiso   1.00
H532   H     0.54506   0.61207   0.45329   0.00000  Uiso   1.00
H533   H     0.53518   0.38585   0.55111   0.00000  Uiso   1.00
H534   H     0.96482   0.61415   0.44889   0.00000  Uiso   1.00
H535   H     0.71538   0.45943   0.64936   0.00000  Uiso   1.00
H536   H     0.78462   0.54057   0.35064   0.00000  Uiso   1.00
N537   N     0.73744   0.48547   0.34617   0.00000  Uiso   1.00
N538   N     0.76255   0.51453   0.65383   0.00000  Uiso   1.00
O539   O     0.75325   0.42871   0.53992   0.00000  Uiso   1.00
O540   O     0.74674   0.57129   0.46008   0.00000  Uiso   1.00
O541   O     0.74480   0.41892   0.43612   0.00000  Uiso   1.00
O542   O     0.75520   0.58108   0.56388   0.00000  Uiso   1.00
O543   O     0.68935   0.50488   0.55191   0.00000  Uiso   1.00
O544   O     0.81064   0.49512   0.44809   0.00000  Uiso   1.00
O545   O     0.68090   0.49510   0.44810   0.00000  Uiso   1.00
O546   O     0.81910   0.50490   0.55190   0.00000  Uiso   1.00
C547   C     0.88206   0.58961   0.47125   0.00000  Uiso   1.00
H548   H     0.85000   0.58322   0.44435   0.00000  Uiso   1.00
O549   O     0.89569   0.63450   0.49449   0.00000  Uiso   1.00
C550   C     0.61794   0.41039   0.52875   0.00000  Uiso   1.00
H551   H     0.65000   0.41678   0.55565   0.00000  Uiso   1.00
O552   O     0.60431   0.36550   0.50551   0.00000  Uiso   1.00
C553   C     0.70949   0.65100   0.42481   0.00000  Uiso   1.00
O554   O     0.71548   0.65463   0.37230   0.00000  Uiso   1.00
O555   O     0.67205   0.62250   0.43567   0.00000  Uiso   1.00
H556   H     0.65284   0.60622   0.39635   0.00000  Uiso   1.00
C557   C     0.79051   0.34900   0.57519   0.00000  Uiso   1.00
O558   O     0.78452   0.34538   0.62770   0.00000  Uiso   1.00
O559   O     0.82795   0.37750   0.56433   0.00000  Uiso   1.00
H560   H     0.84716   0.39379   0.60365   0.00000  Uiso   1.00
C561   C     0.24836   0.73342   0.48463   0.00000  Uiso   1.00
C562   C     0.25164   0.93325   0.51537   0.00000  Uiso   1.00
C563   C     0.02003   0.75090   0.53498   0.00000  Uiso   1.00
C564   C     0.47997   0.91577   0.46502   0.00000  Uiso   1.00
C565   C     0.24156   0.67807   0.47752   0.00000  Uiso   1.00
C566   C     0.25844   0.98859   0.52248   0.00000  Uiso   1.00
C567   C     0.16458   0.83247   0.50084   0.00000  Uiso   1.00
C568   C     0.33542   0.83419   0.49916   0.00000  Uiso   1.00
C569   C     0.40718   0.87760   0.48283   0.00000  Uiso   1.00
C570   C     0.09282   0.78907   0.51717   0.00000  Uiso   1.00
C571   C     0.38354   0.83516   0.49713   0.00000  Uiso   1.00
C572   C     0.11646   0.83151   0.50287   0.00000  Uiso   1.00
C573   C     0.40573   0.79392   0.51336   0.00000  Uiso   1.00
C574   C     0.09427   0.87275   0.48664   0.00000  Uiso   1.00
C575   C     0.45193   0.79327   0.51534   0.00000  Uiso   1.00
C576   C     0.04807   0.87340   0.48466   0.00000  Uiso   1.00
C577   C     0.47654   0.83415   0.49951   0.00000  Uiso   1.00
C578   C     0.02346   0.83251   0.50049   0.00000  Uiso   1.00
C579   C     0.45434   0.87653   0.48267   0.00000  Uiso   1.00
C580   C     0.04566   0.79014   0.51733   0.00000  Uiso   1.00
C581   C     0.47374   0.75226   0.53333   0.00000  Uiso   1.00
C582   C     0.02626   0.91441   0.46667   0.00000  Uiso   1.00
Cu583  Cu    0.25500   0.83913   0.56146   0.00000  Uiso   1.00
Cu584  Cu    0.24499   0.82754   0.43854   0.00000  Uiso   1.00
H585   H     0.38675   0.76213   0.52462   0.00000  Uiso   1.00
H586   H     0.11325   0.90453   0.47538   0.00000  Uiso   1.00
H587   H     0.45494   0.72127   0.54671   0.00000  Uiso   1.00
H588   H     0.04506   0.94540   0.45329   0.00000  Uiso   1.00
H589   H     0.03518   0.71919   0.55111   0.00000  Uiso   1.00
H590   H     0.46482   0.94748   0.44889   0.00000  Uiso   1.00
H591   H     0.21538   0.79276   0.64936   0.00000  Uiso   1.00
H592   H     0.28462   0.87390   0.35064   0.00000  Uiso   1.00
N593   N     0.23744   0.81881   0.34617   0.00000  Uiso   1.00
N594   N     0.26255   0.84786   0.65383   0.00000  Uiso   1.00
O595   O     0.25325   0.76204   0.53992   0.00000  Uiso   1.00
O596   O     0.24674   0.90462   0.46008   0.00000  Uiso   1.00
O597   O     0.24480   0.75226   0.43612   0.00000  Uiso   1.00
O598   O     0.25520   0.91441   0.56388   0.00000  Uiso   1.00
O599   O     0.18935   0.83821   0.55191   0.00000  Uiso   1.00
O600   O     0.31064   0.82845   0.44809   0.00000  Uiso   1.00
O601   O     0.18090   0.82843   0.44810   0.00000  Uiso   1.00
O602   O     0.31910   0.83824   0.55190   0.00000  Uiso   1.00
C603   C     0.38206   0.92294   0.47125   0.00000  Uiso   1.00
H604   H     0.35000   0.91656   0.44435   0.00000  Uiso   1.00
O605   O     0.39569   0.96783   0.49449   0.00000  Uiso   1.00
C606   C     0.11794   0.74372   0.52875   0.00000  Uiso   1.00
H607   H     0.15000   0.75011   0.55565   0.00000  Uiso   1.00
O608   O     0.10431   0.69883   0.50551   0.00000  Uiso   1.00
C609   C     0.20949   0.98433   0.42481   0.00000  Uiso   1.00
O610   O     0.21548   0.98796   0.37230   0.00000  Uiso   1.00
O611   O     0.17205   0.95583   0.43567   0.00000  Uiso   1.00
H612   H     0.15284   0.93955   0.39635   0.00000  Uiso   1.00
C613   C     0.29051   0.68234   0.57519   0.00000  Uiso   1.00
O614   O     0.28452   0.67871   0.62770   0.00000  Uiso   1.00
O615   O     0.32795   0.71084   0.56433   0.00000  Uiso   1.00
H616   H     0.34716   0.72712   0.60365   0.00000  Uiso   1.00
C617   C     0.74836   0.73342   0.48463   0.00000  Uiso   1.00
C618   C     0.75164   0.93325   0.51537   0.00000  Uiso   1.00
C619   C     0.52003   0.75090   0.53498   0.00000  Uiso   1.00
C620   C     0.97997   0.91577   0.46502   0.00000  Uiso   1.00
C621   C     0.74156   0.67807   0.47752   0.00000  Uiso   1.00
C622   C     0.75844   0.98859   0.52248   0.00000  Uiso   1.00
C623   C     0.66458   0.83247   0.50084   0.00000  Uiso   1.00
C624   C     0.83542   0.83419   0.49916   0.00000  Uiso   1.00
C625   C     0.90718   0.87760   0.48283   0.00000  Uiso   1.00
C626   C     0.59282   0.78907   0.51717   0.00000  Uiso   1.00
C627   C     0.88354   0.83516   0.49713   0.00000  Uiso   1.00
C628   C     0.61646   0.83151   0.50287   0.00000  Uiso   1.00
C629   C     0.90573   0.79392   0.51336   0.00000  Uiso   1.00
C630   C     0.59427   0.87275   0.48664   0.00000  Uiso   1.00
C631   C     0.95193   0.79327   0.51534   0.00000  Uiso   1.00
C632   C     0.54807   0.87340   0.48466   0.00000  Uiso   1.00
C633   C     0.97654   0.83415   0.49951   0.00000  Uiso   1.00
C634   C     0.52346   0.83251   0.50049   0.00000  Uiso   1.00
C635   C     0.95434   0.87653   0.48267   0.00000  Uiso   1.00
C636   C     0.54566   0.79014   0.51733   0.00000  Uiso   1.00
C637   C     0.97374   0.75226   0.53333   0.00000  Uiso   1.00
C638   C     0.52626   0.91441   0.46667   0.00000  Uiso   1.00
Cu639  Cu    0.75500   0.83913   0.56146   0.00000  Uiso   1.00
Cu640  Cu    0.74499   0.82754   0.43854   0.00000  Uiso   1.00
H641   H     0.88675   0.76213   0.52462   0.00000  Uiso   1.00
H642   H     0.61325   0.90453   0.47538   0.00000  Uiso   1.00
H643   H     0.95494   0.72127   0.54671   0.00000  Uiso   1.00
H644   H     0.54506   0.94540   0.45329   0.00000  Uiso   1.00
H645   H     0.53518   0.71919   0.55111   0.00000  Uiso   1.00
H646   H     0.96482   0.94748   0.44889   0.00000  Uiso   1.00
H647   H     0.71538   0.79276   0.64936   0.00000  Uiso   1.00
H648   H     0.78462   0.87390   0.35064   0.00000  Uiso   1.00
N649   N     0.73744   0.81881   0.34617   0.00000  Uiso   1.00
N650   N     0.76255   0.84786   0.65383   0.00000  Uiso   1.00
O651   O     0.75325   0.76204   0.53992   0.00000  Uiso   1.00
O652   O     0.74674   0.90462   0.46008   0.00000  Uiso   1.00
O653   O     0.74480   0.75226   0.43612   0.00000  Uiso   1.00
O654   O     0.75520   0.91441   0.56388   0.00000  Uiso   1.00
O655   O     0.68935   0.83821   0.55191   0.00000  Uiso   1.00
O656   O     0.81064   0.82845   0.44809   0.00000  Uiso   1.00
O657   O     0.68090   0.82843   0.44810   0.00000  Uiso   1.00
O658   O     0.81910   0.83824   0.55190   0.00000  Uiso   1.00
C659   C     0.88206   0.92294   0.47125   0.00000  Uiso   1.00
H660   H     0.85000   0.91656   0.44435   0.00000  Uiso   1.00
O661   O     0.89569   0.96783   0.49449   0.00000  Uiso   1.00
C662   C     0.61794   0.74372   0.52875   0.00000  Uiso   1.00
H663   H     0.65000   0.75011   0.55565   0.00000  Uiso   1.00
O664   O     0.60431   0.69883   0.50551   0.00000  Uiso   1.00
C665   C     0.70949   0.98433   0.42481   0.00000  Uiso   1.00
O666   O     0.71548   0.98796   0.37230   0.00000  Uiso   1.00
O667   O     0.67205   0.95583   0.43567   0.00000  Uiso   1.00
H668   H     0.65284   0.93955   0.39635   0.00000  Uiso   1.00
C669   C     0.79051   0.68234   0.57519   0.00000  Uiso   1.00
O670   O     0.78452   0.67871   0.62770   0.00000  Uiso   1.00
O671   O     0.82795   0.71084   0.56433   0.00000  Uiso   1.00
H672   H     0.84716   0.72712   0.60365   0.00000  Uiso   1.00
C673   C     0.24836   0.06675   0.81796   0.00000  Uiso   1.00
C674   C     0.25164   0.26658   0.84871   0.00000  Uiso   1.00
C675   C     0.02003   0.08423   0.86831   0.00000  Uiso   1.00
C676   C     0.47997   0.24910   0.79836   0.00000  Uiso   1.00
C677   C     0.24156   0.01141   0.81085   0.00000  Uiso   1.00
C678   C     0.25844   0.32193   0.85582   0.00000  Uiso   1.00
C679   C     0.16458   0.16581   0.83417   0.00000  Uiso   1.00
C680   C     0.33542   0.16753   0.83249   0.00000  Uiso   1.00
C681   C     0.40718   0.21093   0.81617   0.00000  Uiso   1.00
C682   C     0.09282   0.12240   0.85050   0.00000  Uiso   1.00
C683   C     0.38354   0.16849   0.83046   0.00000  Uiso   1.00
C684   C     0.11646   0.16484   0.83620   0.00000  Uiso   1.00
C685   C     0.40573   0.12725   0.84669   0.00000  Uiso   1.00
C686   C     0.09427   0.20608   0.81998   0.00000  Uiso   1.00
C687   C     0.45193   0.12660   0.84867   0.00000  Uiso   1.00
C688   C     0.04807   0.20673   0.81800   0.00000  Uiso   1.00
C689   C     0.47654   0.16749   0.83284   0.00000  Uiso   1.00
C690   C     0.02346   0.16585   0.83382   0.00000  Uiso   1.00
C691   C     0.45434   0.20986   0.81600   0.00000  Uiso   1.00
C692   C     0.04566   0.12347   0.85067   0.00000  Uiso   1.00
C693   C     0.47374   0.08559   0.86666   0.00000  Uiso   1.00
C694   C     0.02626   0.24774   0.80000   0.00000  Uiso   1.00
Cu695  Cu    0.25500   0.17246   0.89479   0.00000  Uiso   1.00
Cu696  Cu    0.24499   0.16087   0.77187   0.00000  Uiso   1.00
H697   H     0.38675   0.09547   0.85795   0.00000  Uiso   1.00
H698   H     0.11325   0.23787   0.80872   0.00000  Uiso   1.00
H699   H     0.45494   0.05460   0.88004   0.00000  Uiso   1.00
H700   H     0.04506   0.27873   0.78662   0.00000  Uiso   1.00
H701   H     0.03518   0.05252   0.88444   0.00000  Uiso   1.00
H702   H     0.46482   0.28081   0.78223   0.00000  Uiso   1.00
H703   H     0.21538   0.12610   0.98269   0.00000  Uiso   1.00
H704   H     0.28462   0.20724   0.68398   0.00000  Uiso   1.00
N705   N     0.23744   0.15214   0.67951   0.00000  Uiso   1.00
N706   N     0.26255   0.18119   0.98716   0.00000  Uiso   1.00
O707   O     0.25325   0.09538   0.87326   0.00000  Uiso   1.00
O708   O     0.24674   0.23796   0.79341   0.00000  Uiso   1.00
O709   O     0.24480   0.08559   0.76945   0.00000  Uiso   1.00
O710   O     0.25520   0.24774   0.89721   0.00000  Uiso   1.00
O711   O     0.18935   0.17155   0.88524   0.00000  Uiso   1.00
O712   O     0.31064   0.16179   0.78143   0.00000  Uiso   1.00
O713   O     0.18090   0.16176   0.78143   0.00000  Uiso   1.00
O714   O     0.31910   0.17157   0.88523   0.00000  Uiso   1.00
C715   C     0.38206   0.25628   0.80459   0.00000  Uiso   1.00
H716   H     0.35000   0.24989   0.77768   0.00000  Uiso   1.00
O717   O     0.39569   0.30117   0.82782   0.00000  Uiso   1.00
C718   C     0.11794   0.07706   0.86208   0.00000  Uiso   1.00
H719   H     0.15000   0.08344   0.88899   0.00000  Uiso   1.00
O720   O     0.10431   0.03217   0.83885   0.00000  Uiso   1.00
C721   C     0.20949   0.31767   0.75814   0.00000  Uiso   1.00
O722   O     0.21548   0.32129   0.70563   0.00000  Uiso   1.00
O723   O     0.17205   0.28916   0.76900   0.00000  Uiso   1.00
H724   H     0.15284   0.27288   0.72969   0.00000  Uiso   1.00
C725   C     0.29051   0.01567   0.90852   0.00000  Uiso   1.00
O726   O     0.28452   0.01204   0.96103   0.00000  Uiso   1.00
O727   O     0.32795   0.04417   0.89766   0.00000  Uiso   1.00
H728   H     0.34716   0.06045   0.93698   0.00000  Uiso   1.00
C729   C     0.74836   0.06675   0.81796   0.00000  Uiso   1.00
C730   C     0.75164   0.26658   0.84871   0.00000  Uiso   1.00
C731   C     0.52003   0.08423   0.86831   0.00000  Uiso   1.00
C732   C     0.97997   0.24910   0.79836   0.00000  Uiso   1.00
C733   C     0.74156   0.01141   0.81085   0.00000  Uiso   1.00
C734   C     0.75844   0.32193   0.85582   0.00000  Uiso   1.00
C735   C     0.66458   0.16581   0.83417   0.00000  Uiso   1.00
C736   C     0.83542   0.16753   0.83249   0.00000  Uiso   1.00
C737   C     0.90718   0.21093   0.81617   0.00000  Uiso   1.00
C738   C     0.59282   0.12240   0.85050   0.00000  Uiso   1.00
C739   C     0.88354   0.16849   0.83046   0.00000  Uiso   1.00
C740   C     0.61646   0.16484   0.83620   0.00000  Uiso   1.00
C741   C     0.90573   0.12725   0.84669   0.00000  Uiso   1.00
C742   C     0.59427   0.20608   0.81998   0.00000  Uiso   1.00
C743   C     0.95193   0.12660   0.84867   0.00000  Uiso   1.00
C744   C     0.54807   0.20673   0.81800   0.00000  Uiso   1.00
C745   C     0.97654   0.16749   0.83284   0.00000  Uiso   1.00
C746   C     0.52346   0.16585   0.83382   0.00000  Uiso   1.00
C747   C     0.95434   0.20986   0.81600   0.00000  Uiso   1.00
C748   C     0.54566   0.12347   0.85067   0.00000  Uiso   1.00
C749   C     0.97374   0.08559   0.86666   0.00000  Uiso   1.00
C750   C     0.52626   0.24774   0.80000   0.00000  Uiso   1.00
Cu751  Cu    0.75500   0.17246   0.89479   0.00000  Uiso   1.00
Cu752  Cu    0.74499   0.16087   0.77187   0.00000  Uiso   1.00
H753   H     0.88675   0.09547   0.85795   0.00000  Uiso   1.00
H754   H     0.61325   0.23787   0.80872   0.00000  Uiso   1.00
H755   H     0.95494   0.05460   0.88004   0.00000  Uiso   1.00
H756   H     0.54506   0.27873   0.78662   0.00000  Uiso   1.00
H757   H     0.53518   0.05252   0.88444   0.00000  Uiso   1.00
H758   H     0.96482   0.28081   0.78223   0.00000  Uiso   1.00
H759   H     0.71538   0.12610   0.98269   0.00000  Uiso   1.00
H760   H     0.78462   0.20724   0.68398   0.00000  Uiso   1.00
N761   N     0.73744   0.15214   0.67951   0.00000  Uiso   1.00
N762   N     0.76255   0.18119   0.98716   0.00000  Uiso   1.00
O763   O     0.75325   0.09538   0.87326   0.00000  Uiso   1.00
O764   O     0.74674   0.23796   0.79341   0.00000  Uiso   1.00
O765   O     0.74480   0.08559   0.76945   0.00000  Uiso   1.00
O766   O     0.75520   0.24774   0.89721   0.00000  Uiso   1.00
O767   O     0.68935   0.17155   0.88524   0.00000  Uiso   1.00
O768   O     0.81064   0.16179   0.78143   0.00000  Uiso   1.00
O769   O     0.68090   0.16176   0.78143   0.00000  Uiso   1.00
O770   O     0.81910   0.17157   0.88523   0.00000  Uiso   1.00
C771   C     0.88206   0.25628   0.80459   0.00000  Uiso   1.00
H772   H     0.85000   0.24989   0.77768   0.00000  Uiso   1.00
O773   O     0.89569   0.30117   0.82782   0.00000  Uiso   1.00
C774   C     0.61794   0.07706   0.86208   0.00000  Uiso   1.00
H775   H     0.65000   0.08344   0.88899   0.00000  Uiso   1.00
O776   O     0.60431   0.03217   0.83885   0.00000  Uiso   1.00
C777   C     0.70949   0.31767   0.75814   0.00000  Uiso   1.00
O778   O     0.71548   0.32129   0.70563   0.00000  Uiso   1.00
O779   O     0.67205   0.28916   0.76900   0.00000  Uiso   1.00
H780   H     0.65284   0.27288   0.72969   0.00000  Uiso   1.00
C781   C     0.79051   0.01567   0.90852   0.00000  Uiso   1.00
O782   O     0.78452   0.01204   0.96103   0.00000  Uiso   1.00
O783   O     0.82795   0.04417   0.89766   0.00000  Uiso   1.00
H784   H     0.84716   0.06045   0.93698   0.00000  Uiso   1.00
C785   C     0.24836   0.40009   0.81796   0.00000  Uiso   1.00
C786   C     0.25164   0.59991   0.84871   0.00000  Uiso   1.00
C787   C     0.02003   0.41757   0.86831   0.00000  Uiso   1.00
C788   C     0.47997   0.58243   0.79836   0.00000  Uiso   1.00
C789   C     0.24156   0.34474   0.81085   0.00000  Uiso   1.00
C790   C     0.25844   0.65526   0.85582   0.00000  Uiso   1.00
C791   C     0.16458   0.49914   0.83417   0.00000  Uiso   1.00
C792   C     0.33542   0.50086   0.83249   0.00000  Uiso   1.00
C793   C     0.40718   0.54427   0.81617   0.00000  Uiso   1.00
C794   C     0.09282   0.45573   0.85050   0.00000  Uiso   1.00
C795   C     0.38354   0.50183   0.83046   0.00000  Uiso   1.00
C796   C     0.11646   0.49817   0.83620   0.00000  Uiso   1.00
C797   C     0.40573   0.46058   0.84669   0.00000  Uiso   1.00
C798   C     0.09427   0.53942   0.81998   0.00000  Uiso   1.00
C799   C     0.45193   0.45994   0.84867   0.00000  Uiso   1.00
C800   C     0.04807   0.54006   0.81800   0.00000  Uiso   1.00
C801   C     0.47654   0.50082   0.83284   0.00000  Uiso   1.00
C802   C     0.02346   0.49918   0.83382   0.00000  Uiso   1.00
C803   C     0.45434   0.54320   0.81600   0.00000  Uiso   1.00
C804   C     0.04566   0.45680   0.85067   0.00000  Uiso   1.00
C805   C     0.47374   0.41892   0.86666   0.00000  Uiso   1.00
C806   C     0.02626   0.58108   0.80000   0.00000  Uiso   1.00
Cu807  Cu    0.25500   0.50579   0.89479   0.00000  Uiso   1.00
Cu808  Cu    0.24499   0.49421   0.77187   0.00000  Uiso   1.00
H809   H     0.38675   0.42880   0.85795   0.00000  Uiso   1.00
H810   H     0.11325   0.57120   0.80872   0.00000  Uiso   1.00
H811   H     0.45494   0.38793   0.88004   0.00000  Uiso   1.00
H812   H     0.04506   0.61207   0.78662   0.00000  Uiso   1.00
H813   H     0.03518   0.38585   0.88444   0.00000  Uiso   1.00
H814   H     0.46482   0.61415   0.78223   0.00000  Uiso   1.00
H815   H     0.21538   0.45943   0.98269   0.00000  Uiso   1.00
H816   H     0.28462   0.54057   0.68398   0.00000  Uiso   1.00
N817   N     0.23744   0.48547   0.67951   0.00000  Uiso   1.00
N818   N     0.26255   0.51453   0.98716   0.00000  Uiso   1.00
O819   O     0.25325   0.42871   0.87326   0.00000  Uiso   1.00
O820   O     0.24674   0.57129   0.79341   0.00000  Uiso   1.00
O821   O     0.24480   0.41892   0.76945   0.00000  Uiso   1.00
O822   O     0.25520   0.58108   0.89721   0.00000  Uiso   1.00
O823   O     0.18935   0.50488   0.88524   0.00000  Uiso   1.00
O824   O     0.31064   0.49512   0.78143   0.00000  Uiso   1.00
O825   O     0.18090   0.49510   0.78143   0.00000  Uiso   1.00
O826   O     0.31910   0.50490   0.88523   0.00000  Uiso   1.00
C827   C     0.38206   0.58961   0.80459   0.00000  Uiso   1.00
H828   H     0.35000   0.58322   0.77768   0.00000  Uiso   1.00
O829   O     0.39569   0.63450   0.82782   0.00000  Uiso   1.00
C830   C     0.11794   0.41039   0.86208   0.00000  Uiso   1.00
H831   H     0.15000   0.41678   0.88899   0.00000  Uiso   1.00
O832   O     0.10431   0.36550   0.83885   0.00000  Uiso   1.00
C833   C     0.20949   0.65100   0.75814   0.00000  Uiso   1.00
O834   O     0.21548   0.65463   0.70563   0.00000  Uiso   1.00
O835   O     0.17205   0.62250   0.76900   0.00000  Uiso   1.00
H836   H     0.15284   0.60622   0.72969   0.00000  Uiso   1.00
C837   C     0.29051   0.34900   0.90852   0.00000  Uiso   1.00
O838   O     0.28452   0.34538   0.96103   0.00000  Uiso   1.00
O839   O     0.32795   0.37750   0.89766   0.00000  Uiso   1.00
H840   H     0.34716   0.39379   0.93698   0.00000  Uiso   1.00
C841   C     0.74836   0.40009   0.81796   0.00000  Uiso   1.00
C842   C     0.75164   0.59991   0.84871   0.00000  Uiso   1.00
C843   C     0.52003   0.41757   0.86831   0.00000  Uiso   1.00
C844   C     0.97997   0.58243   0.79836   0.00000  Uiso   1.00
C845   C     0.74156   0.34474   0.81085   0.00000  Uiso   1.00
C846   C     0.75844   0.65526   0.85582   0.00000  Uiso   1.00
C847   C     0.66458   0.49914   0.83417   0.00000  Uiso   1.00
C848   C     0.83542   0.50086   0.83249   0.00000  Uiso   1.00
C849   C     0.90718   0.54427   0.81617   0.00000  Uiso   1.00
C850   C     0.59282   0.45573   0.85050   0.00000  Uiso   1.00
C851   C     0.88354   0.50183   0.83046   0.00000  Uiso   1.00
C852   C     0.61646   0.49817   0.83620   0.00000  Uiso   1.00
C853   C     0.90573   0.46058   0.84669   0.00000  Uiso   1.00
C854   C     0.59427   0.53942   0.81998   0.00000  Uiso   1.00
C855   C     0.95193   0.45994   0.84867   0.00000  Uiso   1.00
C856   C     0.54807   0.54006   0.81800   0.00000  Uiso   1.00
C857   C     0.97654   0.50082   0.83284   0.00000  Uiso   1.00
C858   C     0.52346   0.49918   0.83382   0.00000  Uiso   1.00
C859   C     0.95434   0.54320   0.81600   0.00000  Uiso   1.00
C860   C     0.54566   0.45680   0.85067   0.00000  Uiso   1.00
C861   C     0.97374   0.41892   0.86666   0.00000  Uiso   1.00
C862   C     0.52626   0.58108   0.80000   0.00000  Uiso   1.00
Cu863  Cu    0.75500   0.50579   0.89479   0.00000  Uiso   1.00
Cu864  Cu    0.74499   0.49421   0.77187   0.00000  Uiso   1.00
H865   H     0.88675   0.42880   0.85795   0.00000  Uiso   1.00
H866   H     0.61325   0.57120   0.80872   0.00000  Uiso   1.00
H867   H     0.95494   0.38793   0.88004   0.00000  Uiso   1.00
H868   H     0.54506   0.61207   0.78662   0.00000  Uiso   1.00
H869   H     0.53518   0.38585   0.88444   0.00000  Uiso   1.00
H870   H     0.96482   0.61415   0.78223   0.00000  Uiso   1.00
H871   H     0.71538   0.45943   0.98269   0.00000  Uiso   1.00
H872   H     0.78462   0.54057   0.68398   0.00000  Uiso   1.00
N873   N     0.73744   0.48547   0.67951   0.00000  Uiso   1.00
N874   N     0.76255   0.51453   0.98716   0.00000  Uiso   1.00
O875   O     0.75325   0.42871   0.87326   0.00000  Uiso   1.00
O876   O     0.74674   0.57129   0.79341   0.00000  Uiso   1.00
O877   O     0.74480   0.41892   0.76945   0.00000  Uiso   1.00
O878   O     0.75520   0.58108   0.89721   0.00000  Uiso   1.00
O879   O     0.68935   0.50488   0.88524   0.00000  Uiso   1.00
O880   O     0.81064   0.49512   0.78143   0.00000  Uiso   1.00
O881   O     0.68090   0.49510   0.78143   0.00000  Uiso   1.00
O882   O     0.81910   0.50490   0.88523   0.00000  Uiso   1.00
C883   C     0.88206   0.58961   0.80459   0.00000  Uiso   1.00
H884   H     0.85000   0.58322   0.77768   0.00000  Uiso   1.00
O885   O     0.89569   0.63450   0.82782   0.00000  Uiso   1.00
C886   C     0.61794   0.41039   0.86208   0.00000  Uiso   1.00
H887   H     0.65000   0.41678   0.88899   0.00000  Uiso   1.00
O888   O     0.60431   0.36550   0.83885   0.00000  Uiso   1.00
C889   C     0.70949   0.65100   0.75814   0.00000  Uiso   1.00
O890   O     0.71548   0.65463   0.70563   0.00000  Uiso   1.00
O891   O     0.67205   0.62250   0.76900   0.00000  Uiso   1.00
H892   H     0.65284   0.60622   0.72969   0.00000  Uiso   1.00
C893   C     0.79051   0.34900   0.90852   0.00000  Uiso   1.00
O894   O     0.78452   0.34538   0.96103   0.00000  Uiso   1.00
O895   O     0.82795   0.37750   0.89766   0.00000  Uiso   1.00
H896   H     0.84716   0.39379   0.93698   0.00000  Uiso   1.00
C897   C     0.24836   0.73342   0.81796   0.00000  Uiso   1.00
C898   C     0.25164   0.93325   0.84871   0.00000  Uiso   1.00
C899   C     0.02003   0.75090   0.86831   0.00000  Uiso   1.00
C900   C     0.47997   0.91577   0.79836   0.00000  Uiso   1.00
C901   C     0.24156   0.67807   0.81085   0.00000  Uiso   1.00
C902   C     0.25844   0.98859   0.85582   0.00000  Uiso   1.00
C903   C     0.16458   0.83247   0.83417   0.00000  Uiso   1.00
C904   C     0.33542   0.83419   0.83249   0.00000  Uiso   1.00
C905   C     0.40718   0.87760   0.81617   0.00000  Uiso   1.00
C906   C     0.09282   0.78907   0.85050   0.00000  Uiso   1.00
C907   C     0.38354   0.83516   0.83046   0.00000  Uiso   1.00
C908   C     0.11646   0.83151   0.83620   0.00000  Uiso   1.00
C909   C     0.40573   0.79392   0.84669   0.00000  Uiso   1.00
C910   C     0.09427   0.87275   0.81998   0.00000  Uiso   1.00
C911   C     0.45193   0.79327   0.84867   0.00000  Uiso   1.00
C912   C     0.04807   0.87340   0.81800   0.00000  Uiso   1.00
C913   C     0.47654   0.83415   0.83284   0.00000  Uiso   1.00
C914   C     0.02346   0.83251   0.83382   0.00000  Uiso   1.00
C915   C     0.45434   0.87653   0.81600   0.00000  Uiso   1.00
C916   C     0.04566   0.79014   0.85067   0.00000  Uiso   1.00
C917   C     0.47374   0.75226   0.86666   0.00000  Uiso   1.00
C918   C     0.02626   0.91441   0.80000   0.00000  Uiso   1.00
Cu919  Cu    0.25500   0.83913   0.89479   0.00000  Uiso   1.00
Cu920  Cu    0.24499   0.82754   0.77187   0.00000  Uiso   1.00
H921   H     0.38675   0.76213   0.85795   0.00000  Uiso   1.00
H922   H     0.11325   0.90453   0.80872   0.00000  Uiso   1.00
H923   H     0.45494   0.72127   0.88004   0.00000  Uiso   1.00
H924   H     0.04506   0.94540   0.78662   0.00000  Uiso   1.00
H925   H     0.03518   0.71919   0.88444   0.00000  Uiso   1.00
H926   H     0.46482   0.94748   0.78223   0.00000  Uiso   1.00
H927   H     0.21538   0.79276   0.98269   0.00000  Uiso   1.00
H928   H     0.28462   0.87390   0.68398   0.00000  Uiso   1.00
N929   N     0.23744   0.81881   0.67951   0.00000  Uiso   1.00
N930   N     0.26255   0.84786   0.98716   0.00000  Uiso   1.00
O931   O     0.25325   0.76204   0.87326   0.00000  Uiso   1.00
O932   O     0.24674   0.90462   0.79341   0.00000  Uiso   1.00
O933   O     0.24480   0.75226   0.76945   0.00000  Uiso   1.00
O934   O     0.25520   0.91441   0.89721   0.00000  Uiso   1.00
O935   O     0.18935   0.83821   0.88524   0.00000  Uiso   1.00
O936   O     0.31064   0.82845   0.78143   0.00000  Uiso   1.00
O937   O     0.18090   0.82843   0.78143   0.00000  Uiso   1.00
O938   O     0.31910   0.83824   0.88523   0.00000  Uiso   1.00
C939   C     0.38206   0.92294   0.80459   0.00000  Uiso   1.00
H940   H     0.35000   0.91656   0.77768   0.00000  Uiso   1.00
O941   O     0.39569   0.96783   0.82782   0.00000  Uiso   1.00
C942   C     0.11794   0.74372   0.86208   0.00000  Uiso   1.00
H943   H     0.15000   0.75011   0.88899   0.00000  Uiso   1.00
O944   O     0.10431   0.69883   0.83885   0.00000  Uiso   1.00
C945   C     0.20949   0.98433   0.75814   0.00000  Uiso   1.00
O946   O     0.21548   0.98796   0.70563   0.00000  Uiso   1.00
O947   O     0.17205   0.95583   0.76900   0.00000  Uiso   1.00
H948   H     0.15284   0.93955   0.72969   0.00000  Uiso   1.00
C949   C     0.29051   0.68234   0.90852   0.00000  Uiso   1.00
O950   O     0.28452   0.67871   0.96103   0.00000  Uiso   1.00
O951   O     0.32795   0.71084   0.89766   0.00000  Uiso   1.00
H952   H     0.34716   0.72712   0.93698   0.00000  Uiso   1.00
C953   C     0.74836   0.73342   0.81796   0.00000  Uiso   1.00
C954   C     0.75164   0.93325   0.84871   0.00000  Uiso   1.00
C955   C     0.52003   0.75090   0.86831   0.00000  Uiso   1.00
C956   C     0.97997   0.91577   0.79836   0.00000  Uiso   1.00
C957   C     0.74156   0.67807   0.81085   0.00000  Uiso   1.00
C958   C     0.75844   0.98859   0.85582   0.00000  Uiso   1.00
C959   C     0.66458   0.83247   0.83417   0.00000  Uiso   1.00
C960   C     0.83542   0.83419   0.83249   0.00000  Uiso   1.00
C961   C     0.90718   0.87760   0.81617   0.00000  Uiso   1.00
C962   C     0.59282   0.78907   0.85050   0.00000  Uiso   1.00
C963   C     0.88354   0.83516   0.83046   0.00000  Uiso   1.00
C964   C     0.61646   0.83151   0.83620   0.00000  Uiso   1.00
C965   C     0.90573   0.79392   0.84669   0.00000  Uiso   1.00
C966   C     0.59427   0.87275   0.81998   0.00000  Uiso   1.00
C967   C     0.95193   0.79327   0.84867   0.00000  Uiso   1.00
C968   C     0.54807   0.87340   0.81800   0.00000  Uiso   1.00
C969   C     0.97654   0.83415   0.83284   0.00000  Uiso   1.00
C970   C     0.52346   0.83251   0.83382   0.00000  Uiso   1.00
C971   C     0.95434   0.87653   0.81600   0.00000  Uiso   1.00
C972   C     0.54566   0.79014   0.85067   0.00000  Uiso   1.00
C973   C     0.97374   0.75226   0.86666   0.00000  Uiso   1.00
C974   C     0.52626   0.91441   0.80000   0.00000  Uiso   1.00
Cu975  Cu    0.75500   0.83913   0.89479   0.00000  Uiso   1.00
Cu976  Cu    0.74499   0.82754   0.77187   0.00000  Uiso   1.00
H977   H     0.88675   0.76213   0.85795   0.00000  Uiso   1.00
H978   H     0.61325   0.90453   0.80872   0.00000  Uiso   1.00
H979   H     0.95494   0.72127   0.88004   0.00000  Uiso   1.00
H980   H     0.54506   0.94540   0.78662   0.00000  Uiso   1.00
H981   H     0.53518   0.71919   0.88444   0.00000  Uiso   1.00
H982   H     0.96482   0.94748   0.78223   0.00000  Uiso   1.00
H983   H     0.71538   0.79276   0.98269   0.00000  Uiso   1.00
H984   H     0.78462   0.87390   0.68398   0.00000  Uiso   1.00
N985   N     0.73744   0.81881   0.67951   0.00000  Uiso   1.00
N986   N     0.76255   0.84786   0.98716   0.00000  Uiso   1.00
O987   O     0.75325   0.76204   0.87326   0.00000  Uiso   1.00
O988   O     0.74674   0.90462   0.79341   0.00000  Uiso   1.00
O989   O     0.74480   0.75226   0.76945   0.00000  Uiso   1.00
O990   O     0.75520   0.91441   0.89721   0.00000  Uiso   1.00
O991   O     0.68935   0.83821   0.88524   0.00000  Uiso   1.00
O992   O     0.81064   0.82845   0.78143   0.00000  Uiso   1.00
O993   O     0.68090   0.82843   0.78143   0.00000  Uiso   1.00
O994   O     0.81910   0.83824   0.88523   0.00000  Uiso   1.00
C995   C     0.88206   0.92294   0.80459   0.00000  Uiso   1.00
H996   H     0.85000   0.91656   0.77768   0.00000  Uiso   1.00
O997   O     0.89569   0.96783   0.82782   0.00000  Uiso   1.00
C998   C     0.61794   0.74372   0.86208   0.00000  Uiso   1.00
H999   H     0.65000   0.75011   0.88899   0.00000  Uiso   1.00
O1000  O     0.60431   0.69883   0.83885   0.00000  Uiso   1.00
C1001  C     0.70949   0.98433   0.75814   0.00000  Uiso   1.00
O1002  O     0.71548   0.98796   0.70563   0.00000  Uiso   1.00
O1003  O     0.67205   0.95583   0.76900   0.00000  Uiso   1.00
H1004  H     0.65284   0.93955   0.72969   0.00000  Uiso   1.00
C1005  C     0.79051   0.68234   0.90852   0.00000  Uiso   1.00
O1006  O     0.78452   0.67871   0.96103   0.00000  Uiso   1.00
O1007  O     0.82795   0.71084   0.89766   0.00000  Uiso   1.00
H1008  H     0.84716   0.72712   0.93698   0.00000  Uiso   1.00
loop_
_geom_bond_atom_site_label_1
_geom_bond_atom_site_label_2
_geom_bond_distance
_geom_bond_site_symmetry_2
_ccdc_geom_bond_type
C1     C5      1.433   .     S
C1     O37     1.287   .     A
C1     O35     1.288   .     A
C2     O38     1.287   .     A
C2     O36     1.288   .     A
C2     C6      1.433   .     S
C3     C20     1.409   .     A
C3     H29     1.080   .     S
C3     C77     1.389   1_455 S
C4     C19     1.409   .     A
C4     H30     1.080   .     S
C4     C78     1.389   .     S
C5     C230    1.357   1_545 S
C5     C273    1.494   1_545 S
C6     C117    1.357   .     S
C6     C165    1.494   .     S
C7     C12     1.447   .     S
C7     O39     1.292   .     A
C7     O41     1.291   .     A
C8     C11     1.447   .     S
C8     O42     1.291   .     A
C8     O40     1.292   .     A
C9     C11     1.411   .     A
C9     C43     1.490   .     S
C9     C19     1.417   .     A
C10    C46     1.490   .     S
C10    C12     1.411   .     A
C10    C20     1.417   .     A
C11    C13     1.392   .     A
C12    C14     1.392   .     A
C13    H25     1.081   .     S
C13    C15     1.385   .     A
C14    H26     1.081   .     S
C14    C16     1.385   .     A
C15    C17     1.408   .     A
C15    C21     1.397   .     A
C16    C18     1.408   .     A
C16    C22     1.397   .     A
C17    C19     1.423   .     A
C17    C74     1.408   .     S
C18    C20     1.423   .     A
C18    C73     1.408   1_455 S
C21    H27     1.084   .     S
C21    C59     1.389   .     S
C22    H28     1.084   .     S
C22    C60     1.389   1_455 S
Cu23   O38     1.966   .     S
Cu23   O35     1.971   .     S
Cu23   Cu24    2.686   .     S
Cu23   N34     2.018   .     S
Cu23   O42     1.950   .     S
Cu23   O39     1.965   .     S
Cu24   N33     2.018   .     S
Cu24   O37     1.966   .     S
Cu24   O41     1.950   .     S
Cu24   O36     1.971   .     S
Cu24   O40     1.965   .     S
H31    N369    1.029   .     S
H32    N706    1.029   1_554 S
N33    H703    1.029   1_554 S
N33    N706    1.304   1_554 S
N34    N369    1.304   .     S
N34    H368    1.029   .     S
C43    O45     1.221   .     D
C43    H44     1.084   .     S
C46    O48     1.221   .     D
C46    H47     1.084   .     S
C49    O50     1.223   .     D
C49    O51     1.396   .     S
C49    C117    1.494   .     S
O51    H52     1.014   .     S
C53    O55     1.396   .     S
C53    O54     1.223   .     D
C53    C230    1.494   1_545 S
O55    H56     1.014   .     S
C57    C61     1.433   .     S
C57    O93     1.287   .     A
C57    O91     1.288   .     A
C58    O94     1.287   .     A
C58    O92     1.288   .     A
C58    C62     1.433   .     S
C59    C76     1.409   .     A
C59    H85     1.080   .     S
C60    C75     1.409   .     A
C60    H86     1.080   .     S
C60    C22     1.389   1_655 S
C61    C286    1.357   1_545 S
C61    C329    1.494   1_545 S
C62    C173    1.357   .     S
C62    C221    1.494   .     S
C63    C68     1.447   .     S
C63    O95     1.292   .     A
C63    O97     1.291   .     A
C64    C67     1.447   .     S
C64    O98     1.291   .     A
C64    O96     1.292   .     A
C65    C67     1.411   .     A
C65    C99     1.490   .     S
C65    C75     1.417   .     A
C66    C102    1.490   .     S
C66    C68     1.411   .     A
C66    C76     1.417   .     A
C67    C69     1.392   .     A
C68    C70     1.392   .     A
C69    H81     1.081   .     S
C69    C71     1.385   .     A
C70    H82     1.081   .     S
C70    C72     1.385   .     A
C71    C73     1.408   .     A
C71    C77     1.397   .     A
C72    C74     1.408   .     A
C72    C78     1.397   .     A
C73    C75     1.423   .     A
C73    C18     1.408   1_655 S
C74    C76     1.423   .     A
C77    H83     1.084   .     S
C77    C3      1.389   1_655 S
C78    H84     1.084   .     S
Cu79   O94     1.966   .     S
Cu79   O91     1.971   .     S
Cu79   Cu80    2.686   .     S
Cu79   N90     2.018   .     S
Cu79   O98     1.950   .     S
Cu79   O95     1.965   .     S
Cu80   N89     2.018   .     S
Cu80   O93     1.966   .     S
Cu80   O97     1.950   .     S
Cu80   O92     1.971   .     S
Cu80   O96     1.965   .     S
H87    N425    1.029   .     S
H88    N762    1.029   1_554 S
N89    H759    1.029   1_554 S
N89    N762    1.304   1_554 S
N90    N425    1.304   .     S
N90    H424    1.029   .     S
C99    O101    1.221   .     D
C99    H100    1.084   .     S
C102   O104    1.221   .     D
C102   H103    1.084   .     S
C105   O106    1.223   .     D
C105   O107    1.396   .     S
C105   C173    1.494   .     S
O107   H108    1.014   .     S
C109   O111    1.396   .     S
C109   O110    1.223   .     D
C109   C286    1.494   1_545 S
O111   H112    1.014   .     S
C113   C117    1.433   .     S
C113   O149    1.287   .     A
C113   O147    1.288   .     A
C114   O150    1.287   .     A
C114   O148    1.288   .     A
C114   C118    1.433   .     S
C115   C132    1.409   .     A
C115   H141    1.080   .     S
C115   C189    1.389   1_455 S
C116   C131    1.409   .     A
C116   H142    1.080   .     S
C116   C190    1.389   .     S
C118   C229    1.357   .     S
C118   C277    1.494   .     S
C119   C124    1.447   .     S
C119   O151    1.292   .     A
C119   O153    1.291   .     A
C120   C123    1.447   .     S
C120   O154    1.291   .     A
C120   O152    1.292   .     A
C121   C123    1.411   .     A
C121   C155    1.490   .     S
C121   C131    1.417   .     A
C122   C158    1.490   .     S
C122   C124    1.411   .     A
C122   C132    1.417   .     A
C123   C125    1.392   .     A
C124   C126    1.392   .     A
C125   H137    1.081   .     S
C125   C127    1.385   .     A
C126   H138    1.081   .     S
C126   C128    1.385   .     A
C127   C129    1.408   .     A
C127   C133    1.397   .     A
C128   C130    1.408   .     A
C128   C134    1.397   .     A
C129   C131    1.423   .     A
C129   C186    1.408   .     S
C130   C132    1.423   .     A
C130   C185    1.408   1_455 S
C133   H139    1.084   .     S
C133   C171    1.389   .     S
C134   H140    1.084   .     S
C134   C172    1.389   1_455 S
Cu135  O150    1.966   .     S
Cu135  O147    1.971   .     S
Cu135  Cu136   2.686   .     S
Cu135  N146    2.018   .     S
Cu135  O154    1.950   .     S
Cu135  O151    1.965   .     S
Cu136  N145    2.018   .     S
Cu136  O149    1.966   .     S
Cu136  O153    1.950   .     S
Cu136  O148    1.971   .     S
Cu136  O152    1.965   .     S
H143   N481    1.029   .     S
H144   N818    1.029   1_554 S
N145   H815    1.029   1_554 S
N145   N818    1.304   1_554 S
N146   N481    1.304   .     S
N146   H480    1.029   .     S
C155   O157    1.221   .     D
C155   H156    1.084   .     S
C158   O160    1.221   .     D
C158   H159    1.084   .     S
C161   O162    1.223   .     D
C161   O163    1.396   .     S
C161   C229    1.494   .     S
O163   H164    1.014   .     S
C165   O167    1.396   .     S
C165   O166    1.223   .     D
O167   H168    1.014   .     S
C169   C173    1.433   .     S
C169   O205    1.287   .     A
C169   O203    1.288   .     A
C170   O206    1.287   .     A
C170   O204    1.288   .     A
C170   C174    1.433   .     S
C171   C188    1.409   .     A
C171   H197    1.080   .     S
C172   C187    1.409   .     A
C172   H198    1.080   .     S
C172   C134    1.389   1_655 S
C174   C285    1.357   .     S
C174   C333    1.494   .     S
C175   C180    1.447   .     S
C175   O207    1.292   .     A
C175   O209    1.291   .     A
C176   C179    1.447   .     S
C176   O210    1.291   .     A
C176   O208    1.292   .     A
C177   C179    1.411   .     A
C177   C211    1.490   .     S
C177   C187    1.417   .     A
C178   C214    1.490   .     S
C178   C180    1.411   .     A
C178   C188    1.417   .     A
C179   C181    1.392   .     A
C180   C182    1.392   .     A
C181   H193    1.081   .     S
C181   C183    1.385   .     A
C182   H194    1.081   .     S
C182   C184    1.385   .     A
C183   C185    1.408   .     A
C183   C189    1.397   .     A
C184   C186    1.408   .     A
C184   C190    1.397   .     A
C185   C187    1.423   .     A
C185   C130    1.408   1_655 S
C186   C188    1.423   .     A
C189   H195    1.084   .     S
C189   C115    1.389   1_655 S
C190   H196    1.084   .     S
Cu191  O206    1.966   .     S
Cu191  O203    1.971   .     S
Cu191  Cu192   2.686   .     S
Cu191  N202    2.018   .     S
Cu191  O210    1.950   .     S
Cu191  O207    1.965   .     S
Cu192  N201    2.018   .     S
Cu192  O205    1.966   .     S
Cu192  O209    1.950   .     S
Cu192  O204    1.971   .     S
Cu192  O208    1.965   .     S
H199   N537    1.029   .     S
H200   N874    1.029   1_554 S
N201   H871    1.029   1_554 S
N201   N874    1.304   1_554 S
N202   N537    1.304   .     S
N202   H536    1.029   .     S
C211   O213    1.221   .     D
C211   H212    1.084   .     S
C214   O216    1.221   .     D
C214   H215    1.084   .     S
C217   O218    1.223   .     D
C217   O219    1.396   .     S
C217   C285    1.494   .     S
O219   H220    1.014   .     S
C221   O223    1.396   .     S
C221   O222    1.223   .     D
O223   H224    1.014   .     S
C225   C229    1.433   .     S
C225   O261    1.287   .     A
C225   O259    1.288   .     A
C226   O262    1.287   .     A
C226   O260    1.288   .     A
C226   C230    1.433   .     S
C227   C244    1.409   .     A
C227   H253    1.080   .     S
C227   C301    1.389   1_455 S
C228   C243    1.409   .     A
C228   H254    1.080   .     S
C228   C302    1.389   .     S
C230   C5      1.357   1_565 S
C230   C53     1.494   1_565 S
C231   C236    1.447   .     S
C231   O263    1.292   .     A
C231   O265    1.291   .     A
C232   C235    1.447   .     S
C232   O266    1.291   .     A
C232   O264    1.292   .     A
C233   C235    1.411   .     A
C233   C267    1.490   .     S
C233   C243    1.417   .     A
C234   C270    1.490   .     S
C234   C236    1.411   .     A
C234   C244    1.417   .     A
C235   C237    1.392   .     A
C236   C238    1.392   .     A
C237   H249    1.081   .     S
C237   C239    1.385   .     A
C238   H250    1.081   .     S
C238   C240    1.385   .     A
C239   C241    1.408   .     A
C239   C245    1.397   .     A
C240   C242    1.408   .     A
C240   C246    1.397   .     A
C241   C243    1.423   .     A
C241   C298    1.408   .     S
C242   C244    1.423   .     A
C242   C297    1.408   1_455 S
C245   H251    1.084   .     S
C245   C283    1.389   .     S
C246   H252    1.084   .     S
C246   C284    1.389   1_455 S
Cu247  O262    1.966   .     S
Cu247  O259    1.971   .     S
Cu247  Cu248   2.686   .     S
Cu247  N258    2.018   .     S
Cu247  O266    1.950   .     S
Cu247  O263    1.965   .     S
Cu248  N257    2.018   .     S
Cu248  O261    1.966   .     S
Cu248  O265    1.950   .     S
Cu248  O260    1.971   .     S
Cu248  O264    1.965   .     S
H255   N593    1.029   .     S
H256   N930    1.029   1_554 S
N257   H927    1.029   1_554 S
N257   N930    1.304   1_554 S
N258   N593    1.304   .     S
N258   H592    1.029   .     S
C267   O269    1.221   .     D
C267   H268    1.084   .     S
C270   O272    1.221   .     D
C270   H271    1.084   .     S
C273   O274    1.223   .     D
C273   O275    1.396   .     S
C273   C5      1.494   1_565 S
O275   H276    1.014   .     S
C277   O279    1.396   .     S
C277   O278    1.223   .     D
O279   H280    1.014   .     S
C281   C285    1.433   .     S
C281   O317    1.287   .     A
C281   O315    1.288   .     A
C282   O318    1.287   .     A
C282   O316    1.288   .     A
C282   C286    1.433   .     S
C283   C300    1.409   .     A
C283   H309    1.080   .     S
C284   C299    1.409   .     A
C284   H310    1.080   .     S
C284   C246    1.389   1_655 S
C286   C61     1.357   1_565 S
C286   C109    1.494   1_565 S
C287   C292    1.447   .     S
C287   O319    1.292   .     A
C287   O321    1.291   .     A
C288   C291    1.447   .     S
C288   O322    1.291   .     A
C288   O320    1.292   .     A
C289   C291    1.411   .     A
C289   C323    1.490   .     S
C289   C299    1.417   .     A
C290   C326    1.490   .     S
C290   C292    1.411   .     A
C290   C300    1.417   .     A
C291   C293    1.392   .     A
C292   C294    1.392   .     A
C293   H305    1.081   .     S
C293   C295    1.385   .     A
C294   H306    1.081   .     S
C294   C296    1.385   .     A
C295   C297    1.408   .     A
C295   C301    1.397   .     A
C296   C298    1.408   .     A
C296   C302    1.397   .     A
C297   C299    1.423   .     A
C297   C242    1.408   1_655 S
C298   C300    1.423   .     A
C301   H307    1.084   .     S
C301   C227    1.389   1_655 S
C302   H308    1.084   .     S
Cu303  O318    1.966   .     S
Cu303  O315    1.971   .     S
Cu303  Cu304   2.686   .     S
Cu303  N314    2.018   .     S
Cu303  O322    1.950   .     S
Cu303  O319    1.965   .     S
Cu304  N313    2.018   .     S
Cu304  O317    1.966   .     S
Cu304  O321    1.950   .     S
Cu304  O316    1.971   .     S
Cu304  O320    1.965   .     S
H311   N649    1.029   .     S
H312   N986    1.029   1_554 S
N313   H983    1.029   1_554 S
N313   N986    1.304   1_554 S
N314   N649    1.304   .     S
N314   H648    1.029   .     S
C323   O325    1.221   .     D
C323   H324    1.084   .     S
C326   O328    1.221   .     D
C326   H327    1.084   .     S
C329   O330    1.223   .     D
C329   O331    1.396   .     S
C329   C61     1.494   1_565 S
O331   H332    1.014   .     S
C333   O335    1.396   .     S
C333   O334    1.223   .     D
O335   H336    1.014   .     S
C337   C341    1.433   .     S
C337   O373    1.287   .     A
C337   O371    1.288   .     A
C338   O374    1.287   .     A
C338   O372    1.288   .     A
C338   C342    1.433   .     S
C339   C356    1.409   .     A
C339   H365    1.080   .     S
C339   C413    1.389   1_455 S
C340   C355    1.409   .     A
C340   H366    1.080   .     S
C340   C414    1.389   .     S
C341   C566    1.357   1_545 S
C341   C609    1.494   1_545 S
C342   C453    1.357   .     S
C342   C501    1.494   .     S
C343   C348    1.447   .     S
C343   O375    1.292   .     A
C343   O377    1.291   .     A
C344   C347    1.447   .     S
C344   O378    1.291   .     A
C344   O376    1.292   .     A
C345   C347    1.411   .     A
C345   C379    1.490   .     S
C345   C355    1.417   .     A
C346   C382    1.490   .     S
C346   C348    1.411   .     A
C346   C356    1.417   .     A
C347   C349    1.392   .     A
C348   C350    1.392   .     A
C349   H361    1.081   .     S
C349   C351    1.385   .     A
C350   H362    1.081   .     S
C350   C352    1.385   .     A
C351   C353    1.408   .     A
C351   C357    1.397   .     A
C352   C354    1.408   .     A
C352   C358    1.397   .     A
C353   C355    1.423   .     A
C353   C410    1.408   .     S
C354   C356    1.423   .     A
C354   C409    1.408   1_455 S
C357   H363    1.084   .     S
C357   C395    1.389   .     S
C358   H364    1.084   .     S
C358   C396    1.389   1_455 S
Cu359  O374    1.966   .     S
Cu359  O371    1.971   .     S
Cu359  Cu360   2.686   .     S
Cu359  N370    2.018   .     S
Cu359  O378    1.950   .     S
Cu359  O375    1.965   .     S
Cu360  N369    2.018   .     S
Cu360  O373    1.966   .     S
Cu360  O377    1.950   .     S
Cu360  O372    1.971   .     S
Cu360  O376    1.965   .     S
H367   N705    1.029   .     S
N370   N705    1.304   .     S
N370   H704    1.029   .     S
C379   O381    1.221   .     D
C379   H380    1.084   .     S
C382   O384    1.221   .     D
C382   H383    1.084   .     S
C385   O386    1.223   .     D
C385   O387    1.396   .     S
C385   C453    1.494   .     S
O387   H388    1.014   .     S
C389   O391    1.396   .     S
C389   O390    1.223   .     D
C389   C566    1.494   1_545 S
O391   H392    1.014   .     S
C393   C397    1.433   .     S
C393   O429    1.287   .     A
C393   O427    1.288   .     A
C394   O430    1.287   .     A
C394   O428    1.288   .     A
C394   C398    1.433   .     S
C395   C412    1.409   .     A
C395   H421    1.080   .     S
C396   C411    1.409   .     A
C396   H422    1.080   .     S
C396   C358    1.389   1_655 S
C397   C622    1.357   1_545 S
C397   C665    1.494   1_545 S
C398   C509    1.357   .     S
C398   C557    1.494   .     S
C399   C404    1.447   .     S
C399   O431    1.292   .     A
C399   O433    1.291   .     A
C400   C403    1.447   .     S
C400   O434    1.291   .     A
C400   O432    1.292   .     A
C401   C403    1.411   .     A
C401   C435    1.490   .     S
C401   C411    1.417   .     A
C402   C438    1.490   .     S
C402   C404    1.411   .     A
C402   C412    1.417   .     A
C403   C405    1.392   .     A
C404   C406    1.392   .     A
C405   H417    1.081   .     S
C405   C407    1.385   .     A
C406   H418    1.081   .     S
C406   C408    1.385   .     A
C407   C409    1.408   .     A
C407   C413    1.397   .     A
C408   C410    1.408   .     A
C408   C414    1.397   .     A
C409   C411    1.423   .     A
C409   C354    1.408   1_655 S
C410   C412    1.423   .     A
C413   H419    1.084   .     S
C413   C339    1.389   1_655 S
C414   H420    1.084   .     S
Cu415  O430    1.966   .     S
Cu415  O427    1.971   .     S
Cu415  Cu416   2.686   .     S
Cu415  N426    2.018   .     S
Cu415  O434    1.950   .     S
Cu415  O431    1.965   .     S
Cu416  N425    2.018   .     S
Cu416  O429    1.966   .     S
Cu416  O433    1.950   .     S
Cu416  O428    1.971   .     S
Cu416  O432    1.965   .     S
H423   N761    1.029   .     S
N426   N761    1.304   .     S
N426   H760    1.029   .     S
C435   O437    1.221   .     D
C435   H436    1.084   .     S
C438   O440    1.221   .     D
C438   H439    1.084   .     S
C441   O442    1.223   .     D
C441   O443    1.396   .     S
C441   C509    1.494   .     S
O443   H444    1.014   .     S
C445   O447    1.396   .     S
C445   O446    1.223   .     D
C445   C622    1.494   1_545 S
O447   H448    1.014   .     S
C449   C453    1.433   .     S
C449   O485    1.287   .     A
C449   O483    1.288   .     A
C450   O486    1.287   .     A
C450   O484    1.288   .     A
C450   C454    1.433   .     S
C451   C468    1.409   .     A
C451   H477    1.080   .     S
C451   C525    1.389   1_455 S
C452   C467    1.409   .     A
C452   H478    1.080   .     S
C452   C526    1.389   .     S
C454   C565    1.357   .     S
C454   C613    1.494   .     S
C455   C460    1.447   .     S
C455   O487    1.292   .     A
C455   O489    1.291   .     A
C456   C459    1.447   .     S
C456   O490    1.291   .     A
C456   O488    1.292   .     A
C457   C459    1.411   .     A
C457   C491    1.490   .     S
C457   C467    1.417   .     A
C458   C494    1.490   .     S
C458   C460    1.411   .     A
C458   C468    1.417   .     A
C459   C461    1.392   .     A
C460   C462    1.392   .     A
C461   H473    1.081   .     S
C461   C463    1.385   .     A
C462   H474    1.081   .     S
C462   C464    1.385   .     A
C463   C465    1.408   .     A
C463   C469    1.397   .     A
C464   C466    1.408   .     A
C464   C470    1.397   .     A
C465   C467    1.423   .     A
C465   C522    1.408   .     S
C466   C468    1.423   .     A
C466   C521    1.408   1_455 S
C469   H475    1.084   .     S
C469   C507    1.389   .     S
C470   H476    1.084   .     S
C470   C508    1.389   1_455 S
Cu471  O486    1.966   .     S
Cu471  O483    1.971   .     S
Cu471  Cu472   2.686   .     S
Cu471  N482    2.018   .     S
Cu471  O490    1.950   .     S
Cu471  O487    1.965   .     S
Cu472  N481    2.018   .     S
Cu472  O485    1.966   .     S
Cu472  O489    1.950   .     S
Cu472  O484    1.971   .     S
Cu472  O488    1.965   .     S
H479   N817    1.029   .     S
N482   N817    1.304   .     S
N482   H816    1.029   .     S
C491   O493    1.221   .     D
C491   H492    1.084   .     S
C494   O496    1.221   .     D
C494   H495    1.084   .     S
C497   O498    1.223   .     D
C497   O499    1.396   .     S
C497   C565    1.494   .     S
O499   H500    1.014   .     S
C501   O503    1.396   .     S
C501   O502    1.223   .     D
O503   H504    1.014   .     S
C505   C509    1.433   .     S
C505   O541    1.287   .     A
C505   O539    1.288   .     A
C506   O542    1.287   .     A
C506   O540    1.288   .     A
C506   C510    1.433   .     S
C507   C524    1.409   .     A
C507   H533    1.080   .     S
C508   C523    1.409   .     A
C508   H534    1.080   .     S
C508   C470    1.389   1_655 S
C510   C621    1.357   .     S
C510   C669    1.494   .     S
C511   C516    1.447   .     S
C511   O543    1.292   .     A
C511   O545    1.291   .     A
C512   C515    1.447   .     S
C512   O546    1.291   .     A
C512   O544    1.292   .     A
C513   C515    1.411   .     A
C513   C547    1.490   .     S
C513   C523    1.417   .     A
C514   C550    1.490   .     S
C514   C516    1.411   .     A
C514   C524    1.417   .     A
C515   C517    1.392   .     A
C516   C518    1.392   .     A
C517   H529    1.081   .     S
C517   C519    1.385   .     A
C518   H530    1.081   .     S
C518   C520    1.385   .     A
C519   C521    1.408   .     A
C519   C525    1.397   .     A
C520   C522    1.408   .     A
C520   C526    1.397   .     A
C521   C523    1.423   .     A
C521   C466    1.408   1_655 S
C522   C524    1.423   .     A
C525   H531    1.084   .     S
C525   C451    1.389   1_655 S
C526   H532    1.084   .     S
Cu527  O542    1.966   .     S
Cu527  O539    1.971   .     S
Cu527  Cu528   2.686   .     S
Cu527  N538    2.018   .     S
Cu527  O546    1.950   .     S
Cu527  O543    1.965   .     S
Cu528  N537    2.018   .     S
Cu528  O541    1.966   .     S
Cu528  O545    1.950   .     S
Cu528  O540    1.971   .     S
Cu528  O544    1.965   .     S
H535   N873    1.029   .     S
N538   N873    1.304   .     S
N538   H872    1.029   .     S
C547   O549    1.221   .     D
C547   H548    1.084   .     S
C550   O552    1.221   .     D
C550   H551    1.084   .     S
C553   O554    1.223   .     D
C553   O555    1.396   .     S
C553   C621    1.494   .     S
O555   H556    1.014   .     S
C557   O559    1.396   .     S
C557   O558    1.223   .     D
O559   H560    1.014   .     S
C561   C565    1.433   .     S
C561   O597    1.287   .     A
C561   O595    1.288   .     A
C562   O598    1.287   .     A
C562   O596    1.288   .     A
C562   C566    1.433   .     S
C563   C580    1.409   .     A
C563   H589    1.080   .     S
C563   C637    1.389   1_455 S
C564   C579    1.409   .     A
C564   H590    1.080   .     S
C564   C638    1.389   .     S
C566   C341    1.357   1_565 S
C566   C389    1.494   1_565 S
C567   C572    1.447   .     S
C567   O599    1.292   .     A
C567   O601    1.291   .     A
C568   C571    1.447   .     S
C568   O602    1.291   .     A
C568   O600    1.292   .     A
C569   C571    1.411   .     A
C569   C603    1.490   .     S
C569   C579    1.417   .     A
C570   C606    1.490   .     S
C570   C572    1.411   .     A
C570   C580    1.417   .     A
C571   C573    1.392   .     A
C572   C574    1.392   .     A
C573   H585    1.081   .     S
C573   C575    1.385   .     A
C574   H586    1.081   .     S
C574   C576    1.385   .     A
C575   C577    1.408   .     A
C575   C581    1.397   .     A
C576   C578    1.408   .     A
C576   C582    1.397   .     A
C577   C579    1.423   .     A
C577   C634    1.408   .     S
C578   C580    1.423   .     A
C578   C633    1.408   1_455 S
C581   H587    1.084   .     S
C581   C619    1.389   .     S
C582   H588    1.084   .     S
C582   C620    1.389   1_455 S
Cu583  O598    1.966   .     S
Cu583  O595    1.971   .     S
Cu583  Cu584   2.686   .     S
Cu583  N594    2.018   .     S
Cu583  O602    1.950   .     S
Cu583  O599    1.965   .     S
Cu584  N593    2.018   .     S
Cu584  O597    1.966   .     S
Cu584  O601    1.950   .     S
Cu584  O596    1.971   .     S
Cu584  O600    1.965   .     S
H591   N929    1.029   .     S
N594   N929    1.304   .     S
N594   H928    1.029   .     S
C603   O605    1.221   .     D
C603   H604    1.084   .     S
C606   O608    1.221   .     D
C606   H607    1.084   .     S
C609   O610    1.223   .     D
C609   O611    1.396   .     S
C609   C341    1.494   1_565 S
O611   H612    1.014   .     S
C613   O615    1.396   .     S
C613   O614    1.223   .     D
O615   H616    1.014   .     S
C617   C621    1.433   .     S
C617   O653    1.287   .     A
C617   O651    1.288   .     A
C618   O654    1.287   .     A
C618   O652    1.288   .     A
C618   C622    1.433   .     S
C619   C636    1.409   .     A
C619   H645    1.080   .     S
C620   C635    1.409   .     A
C620   H646    1.080   .     S
C620   C582    1.389   1_655 S
C622   C397    1.357   1_565 S
C622   C445    1.494   1_565 S
C623   C628    1.447   .     S
C623   O655    1.292   .     A
C623   O657    1.291   .     A
C624   C627    1.447   .     S
C624   O658    1.291   .     A
C624   O656    1.292   .     A
C625   C627    1.411   .     A
C625   C659    1.490   .     S
C625   C635    1.417   .     A
C626   C662    1.490   .     S
C626   C628    1.411   .     A
C626   C636    1.417   .     A
C627   C629    1.392   .     A
C628   C630    1.392   .     A
C629   H641    1.081   .     S
C629   C631    1.385   .     A
C630   H642    1.081   .     S
C630   C632    1.385   .     A
C631   C633    1.408   .     A
C631   C637    1.397   .     A
C632   C634    1.408   .     A
C632   C638    1.397   .     A
C633   C635    1.423   .     A
C633   C578    1.408   1_655 S
C634   C636    1.423   .     A
C637   H643    1.084   .     S
C637   C563    1.389   1_655 S
C638   H644    1.084   .     S
Cu639  O654    1.966   .     S
Cu639  O651    1.971   .     S
Cu639  Cu640   2.686   .     S
Cu639  N650    2.018   .     S
Cu639  O658    1.950   .     S
Cu639  O655    1.965   .     S
Cu640  N649    2.018   .     S
Cu640  O653    1.966   .     S
Cu640  O657    1.950   .     S
Cu640  O652    1.971   .     S
Cu640  O656    1.965   .     S
H647   N985    1.029   .     S
N650   N985    1.304   .     S
N650   H984    1.029   .     S
C659   O661    1.221   .     D
C659   H660    1.084   .     S
C662   O664    1.221   .     D
C662   H663    1.084   .     S
C665   O666    1.223   .     D
C665   O667    1.396   .     S
C665   C397    1.494   1_565 S
O667   H668    1.014   .     S
C669   O671    1.396   .     S
C669   O670    1.223   .     D
O671   H672    1.014   .     S
C673   C677    1.433   .     S
C673   O709    1.287   .     A
C673   O707    1.288   .     A
C674   O710    1.287   .     A
C674   O708    1.288   .     A
C674   C678    1.433   .     S
C675   C692    1.409   .     A
C675   H701    1.080   .     S
C675   C749    1.389   1_455 S
C676   C691    1.409   .     A
C676   H702    1.080   .     S
C676   C750    1.389   .     S
C677   C902    1.357   1_545 S
C677   C945    1.494   1_545 S
C678   C789    1.357   .     S
C678   C837    1.494   .     S
C679   C684    1.447   .     S
C679   O711    1.292   .     A
C679   O713    1.291   .     A
C680   C683    1.447   .     S
C680   O714    1.291   .     A
C680   O712    1.292   .     A
C681   C683    1.411   .     A
C681   C715    1.490   .     S
C681   C691    1.417   .     A
C682   C718    1.490   .     S
C682   C684    1.411   .     A
C682   C692    1.417   .     A
C683   C685    1.392   .     A
C684   C686    1.392   .     A
C685   H697    1.081   .     S
C685   C687    1.385   .     A
C686   H698    1.081   .     S
C686   C688    1.385   .     A
C687   C689    1.408   .     A
C687   C693    1.397   .     A
C688   C690    1.408   .     A
C688   C694    1.397   .     A
C689   C691    1.423   .     A
C689   C746    1.408   .     S
C690   C692    1.423   .     A
C690   C745    1.408   1_455 S
C693   H699    1.084   .     S
C693   C731    1.389   .     S
C694   H700    1.084   .     S
C694   C732    1.389   1_455 S
Cu695  O710    1.966   .     S
Cu695  O707    1.971   .     S
Cu695  Cu696   2.686   .     S
Cu695  N706    2.018   .     S
Cu695  O714    1.950   .     S
Cu695  O711    1.965   .     S
Cu696  N705    2.018   .     S
Cu696  O709    1.966   .     S
Cu696  O713    1.950   .     S
Cu696  O708    1.971   .     S
Cu696  O712    1.965   .     S
H703   N33     1.029   1_556 S
N706   N33     1.304   1_556 S
N706   H32     1.029   1_556 S
C715   O717    1.221   .     D
C715   H716    1.084   .     S
C718   O720    1.221   .     D
C718   H719    1.084   .     S
C721   O722    1.223   .     D
C721   O723    1.396   .     S
C721   C789    1.494   .     S
O723   H724    1.014   .     S
C725   O727    1.396   .     S
C725   O726    1.223   .     D
C725   C902    1.494   1_545 S
O727   H728    1.014   .     S
C729   C733    1.433   .     S
C729   O765    1.287   .     A
C729   O763    1.288   .     A
C730   O766    1.287   .     A
C730   O764    1.288   .     A
C730   C734    1.433   .     S
C731   C748    1.409   .     A
C731   H757    1.080   .     S
C732   C747    1.409   .     A
C732   H758    1.080   .     S
C732   C694    1.389   1_655 S
C733   C958    1.357   1_545 S
C733   C1001   1.494   1_545 S
C734   C845    1.357   .     S
C734   C893    1.494   .     S
C735   C740    1.447   .     S
C735   O767    1.292   .     A
C735   O769    1.291   .     A
C736   C739    1.447   .     S
C736   O770    1.291   .     A
C736   O768    1.292   .     A
C737   C739    1.411   .     A
C737   C771    1.490   .     S
C737   C747    1.417   .     A
C738   C774    1.490   .     S
C738   C740    1.411   .     A
C738   C748    1.417   .     A
C739   C741    1.392   .     A
C740   C742    1.392   .     A
C741   H753    1.081   .     S
C741   C743    1.385   .     A
C742   H754    1.081   .     S
C742   C744    1.385   .     A
C743   C745    1.408   .     A
C743   C749    1.397   .     A
C744   C746    1.408   .     A
C744   C750    1.397   .     A
C745   C747    1.423   .     A
C745   C690    1.408   1_655 S
C746   C748    1.423   .     A
C749   H755    1.084   .     S
C749   C675    1.389   1_655 S
C750   H756    1.084   .     S
Cu751  O766    1.966   .     S
Cu751  O763    1.971   .     S
Cu751  Cu752   2.686   .     S
Cu751  N762    2.018   .     S
Cu751  O770    1.950   .     S
Cu751  O767    1.965   .     S
Cu752  N761    2.018   .     S
Cu752  O765    1.966   .     S
Cu752  O769    1.950   .     S
Cu752  O764    1.971   .     S
Cu752  O768    1.965   .     S
H759   N89     1.029   1_556 S
N762   N89     1.304   1_556 S
N762   H88     1.029   1_556 S
C771   O773    1.221   .     D
C771   H772    1.084   .     S
C774   O776    1.221   .     D
C774   H775    1.084   .     S
C777   O778    1.223   .     D
C777   O779    1.396   .     S
C777   C845    1.494   .     S
O779   H780    1.014   .     S
C781   O783    1.396   .     S
C781   O782    1.223   .     D
C781   C958    1.494   1_545 S
O783   H784    1.014   .     S
C785   C789    1.433   .     S
C785   O821    1.287   .     A
C785   O819    1.288   .     A
C786   O822    1.287   .     A
C786   O820    1.288   .     A
C786   C790    1.433   .     S
C787   C804    1.409   .     A
C787   H813    1.080   .     S
C787   C861    1.389   1_455 S
C788   C803    1.409   .     A
C788   H814    1.080   .     S
C788   C862    1.389   .     S
C790   C901    1.357   .     S
C790   C949    1.494   .     S
C791   C796    1.447   .     S
C791   O823    1.292   .     A
C791   O825    1.291   .     A
C792   C795    1.447   .     S
C792   O826    1.291   .     A
C792   O824    1.292   .     A
C793   C795    1.411   .     A
C793   C827    1.490   .     S
C793   C803    1.417   .     A
C794   C830    1.490   .     S
C794   C796    1.411   .     A
C794   C804    1.417   .     A
C795   C797    1.392   .     A
C796   C798    1.392   .     A
C797   H809    1.081   .     S
C797   C799    1.385   .     A
C798   H810    1.081   .     S
C798   C800    1.385   .     A
C799   C801    1.408   .     A
C799   C805    1.397   .     A
C800   C802    1.408   .     A
C800   C806    1.397   .     A
C801   C803    1.423   .     A
C801   C858    1.408   .     S
C802   C804    1.423   .     A
C802   C857    1.408   1_455 S
C805   H811    1.084   .     S
C805   C843    1.389   .     S
C806   H812    1.084   .     S
C806   C844    1.389   1_455 S
Cu807  O822    1.966   .     S
Cu807  O819    1.971   .     S
Cu807  Cu808   2.686   .     S
Cu807  N818    2.018   .     S
Cu807  O826    1.950   .     S
Cu807  O823    1.965   .     S
Cu808  N817    2.018   .     S
Cu808  O821    1.966   .     S
Cu808  O825    1.950   .     S
Cu808  O820    1.971   .     S
Cu808  O824    1.965   .     S
H815   N145    1.029   1_556 S
N818   N145    1.304   1_556 S
N818   H144    1.029   1_556 S
C827   O829    1.221   .     D
C827   H828    1.084   .     S
C830   O832    1.221   .     D
C830   H831    1.084   .     S
C833   O834    1.223   .     D
C833   O835    1.396   .     S
C833   C901    1.494   .     S
O835   H836    1.014   .     S
C837   O839    1.396   .     S
C837   O838    1.223   .     D
O839   H840    1.014   .     S
C841   C845    1.433   .     S
C841   O877    1.287   .     A
C841   O875    1.288   .     A
C842   O878    1.287   .     A
C842   O876    1.288   .     A
C842   C846    1.433   .     S
C843   C860    1.409   .     A
C843   H869    1.080   .     S
C844   C859    1.409   .     A
C844   H870    1.080   .     S
C844   C806    1.389   1_655 S
C846   C957    1.357   .     S
C846   C1005   1.494   .     S
C847   C852    1.447   .     S
C847   O879    1.292   .     A
C847   O881    1.291   .     A
C848   C851    1.447   .     S
C848   O882    1.291   .     A
C848   O880    1.292   .     A
C849   C851    1.411   .     A
C849   C883    1.490   .     S
C849   C859    1.417   .     A
C850   C886    1.490   .     S
C850   C852    1.411   .     A
C850   C860    1.417   .     A
C851   C853    1.392   .     A
C852   C854    1.392   .     A
C853   H865    1.081   .     S
C853   C855    1.385   .     A
C854   H866    1.081   .     S
C854   C856    1.385   .     A
C855   C857    1.408   .     A
C855   C861    1.397   .     A
C856   C858    1.408   .     A
C856   C862    1.397   .     A
C857   C859    1.423   .     A
C857   C802    1.408   1_655 S
C858   C860    1.423   .     A
C861   H867    1.084   .     S
C861   C787    1.389   1_655 S
C862   H868    1.084   .     S
Cu863  O878    1.966   .     S
Cu863  O875    1.971   .     S
Cu863  Cu864   2.686   .     S
Cu863  N874    2.018   .     S
Cu863  O882    1.950   .     S
Cu863  O879    1.965   .     S
Cu864  N873    2.018   .     S
Cu864  O877    1.966   .     S
Cu864  O881    1.950   .     S
Cu864  O876    1.971   .     S
Cu864  O880    1.965   .     S
H871   N201    1.029   1_556 S
N874   N201    1.304   1_556 S
N874   H200    1.029   1_556 S
C883   O885    1.221   .     D
C883   H884    1.084   .     S
C886   O888    1.221   .     D
C886   H887    1.084   .     S
C889   O890    1.223   .     D
C889   O891    1.396   .     S
C889   C957    1.494   .     S
O891   H892    1.014   .     S
C893   O895    1.396   .     S
C893   O894    1.223   .     D
O895   H896    1.014   .     S
C897   C901    1.433   .     S
C897   O933    1.287   .     A
C897   O931    1.288   .     A
C898   O934    1.287   .     A
C898   O932    1.288   .     A
C898   C902    1.433   .     S
C899   C916    1.409   .     A
C899   H925    1.080   .     S
C899   C973    1.389   1_455 S
C900   C915    1.409   .     A
C900   H926    1.080   .     S
C900   C974    1.389   .     S
C902   C677    1.357   1_565 S
C902   C725    1.494   1_565 S
C903   C908    1.447   .     S
C903   O935    1.292   .     A
C903   O937    1.291   .     A
C904   C907    1.447   .     S
C904   O938    1.291   .     A
C904   O936    1.292   .     A
C905   C907    1.411   .     A
C905   C939    1.490   .     S
C905   C915    1.417   .     A
C906   C942    1.490   .     S
C906   C908    1.411   .     A
C906   C916    1.417   .     A
C907   C909    1.392   .     A
C908   C910    1.392   .     A
C909   H921    1.081   .     S
C909   C911    1.385   .     A
C910   H922    1.081   .     S
C910   C912    1.385   .     A
C911   C913    1.408   .     A
C911   C917    1.397   .     A
C912   C914    1.408   .     A
C912   C918    1.397   .     A
C913   C915    1.423   .     A
C913   C970    1.408   .     S
C914   C916    1.423   .     A
C914   C969    1.408   1_455 S
C917   H923    1.084   .     S
C917   C955    1.389   .     S
C918   H924    1.084   .     S
C918   C956    1.389   1_455 S
Cu919  O934    1.966   .     S
Cu919  O931    1.971   .     S
Cu919  Cu920   2.686   .     S
Cu919  N930    2.018   .     S
Cu919  O938    1.950   .     S
Cu919  O935    1.965   .     S
Cu920  N929    2.018   .     S
Cu920  O933    1.966   .     S
Cu920  O937    1.950   .     S
Cu920  O932    1.971   .     S
Cu920  O936    1.965   .     S
H927   N257    1.029   1_556 S
N930   N257    1.304   1_556 S
N930   H256    1.029   1_556 S
C939   O941    1.221   .     D
C939   H940    1.084   .     S
C942   O944    1.221   .     D
C942   H943    1.084   .     S
C945   O946    1.223   .     D
C945   O947    1.396   .     S
C945   C677    1.494   1_565 S
O947   H948    1.014   .     S
C949   O951    1.396   .     S
C949   O950    1.223   .     D
O951   H952    1.014   .     S
C953   C957    1.433   .     S
C953   O989    1.287   .     A
C953   O987    1.288   .     A
C954   O990    1.287   .     A
C954   O988    1.288   .     A
C954   C958    1.433   .     S
C955   C972    1.409   .     A
C955   H981    1.080   .     S
C956   C971    1.409   .     A
C956   H982    1.080   .     S
C956   C918    1.389   1_655 S
C958   C733    1.357   1_565 S
C958   C781    1.494   1_565 S
C959   C964    1.447   .     S
C959   O991    1.292   .     A
C959   O993    1.291   .     A
C960   C963    1.447   .     S
C960   O994    1.291   .     A
C960   O992    1.292   .     A
C961   C963    1.411   .     A
C961   C995    1.490   .     S
C961   C971    1.417   .     A
C962   C998    1.490   .     S
C962   C964    1.411   .     A
C962   C972    1.417   .     A
C963   C965    1.392   .     A
C964   C966    1.392   .     A
C965   H977    1.081   .     S
C965   C967    1.385   .     A
C966   H978    1.081   .     S
C966   C968    1.385   .     A
C967   C969    1.408   .     A
C967   C973    1.397   .     A
C968   C970    1.408   .     A
C968   C974    1.397   .     A
C969   C971    1.423   .     A
C969   C914    1.408   1_655 S
C970   C972    1.423   .     A
C973   H979    1.084   .     S
C973   C899    1.389   1_655 S
C974   H980    1.084   .     S
Cu975  O990    1.966   .     S
Cu975  O987    1.971   .     S
Cu975  Cu976   2.686   .     S
Cu975  N986    2.018   .     S
Cu975  O994    1.950   .     S
Cu975  O991    1.965   .     S
Cu976  N985    2.018   .     S
Cu976  O989    1.966   .     S
Cu976  O993    1.950   .     S
Cu976  O988    1.971   .     S
Cu976  O992    1.965   .     S
H983   N313    1.029   1_556 S
N986   N313    1.304   1_556 S
N986   H312    1.029   1_556 S
C995   O997    1.221   .     D
C995   H996    1.084   .     S
C998   O1000   1.221   .     D
C998   H999    1.084   .     S
C1001  O1002   1.223   .     D
C1001  O1003   1.396   .     S
C1001  C733    1.494   1_565 S
O1003  H1004   1.014   .     S
C1005  O1007   1.396   .     S
C1005  O1006   1.223   .     D
O1007  H1008   1.014   .     S
