data_str_m2_o1_o18_pcu_sym.52
_audit_creation_date              2020-01-03
_audit_creation_method            'Materials Studio'
_symmetry_space_group_name_H-M    'P1'
_symmetry_Int_Tables_number       1
_symmetry_cell_setting            triclinic
loop_
_symmetry_equiv_pos_as_xyz
  x,y,z
_cell_length_a                    28.8895
_cell_length_b                    32.5794
_cell_length_c                    30.7629
_cell_angle_alpha                 87.0952
_cell_angle_beta                  74.7114
_cell_angle_gamma                 90.4373
loop_
_atom_site_label
_atom_site_type_symbol
_atom_site_fract_x
_atom_site_fract_y
_atom_site_fract_z
_atom_site_U_iso_or_equiv
_atom_site_adp_type
_atom_site_occupancy
C1     C     0.00034   0.08752   0.24896   0.00000  Uiso   1.00
C2     C     0.04455   0.02165   0.23727   0.00000  Uiso   1.00
C3     C     0.33284   0.29044   0.25178   0.00000  Uiso   1.00
C4     C     0.00102   0.04282   0.24800   0.00000  Uiso   1.00
C5     C     0.18180   0.14527   0.28366   0.00000  Uiso   1.00
C6     C     0.15177   0.18734   0.21604   0.00000  Uiso   1.00
C7     C     0.13237   0.14489   0.28288   0.00000  Uiso   1.00
C8     C     0.20084   0.18805   0.21697   0.00000  Uiso   1.00
C9     C     0.30621   0.16647   0.33615   0.00000  Uiso   1.00
C10    C     0.02715   0.16702   0.16386   0.00000  Uiso   1.00
C11    C     0.29112   0.16443   0.38581   0.00000  Uiso   1.00
C12    C     0.33310   0.24578   0.25114   0.00000  Uiso   1.00
C13    C     0.04255   0.17033   0.11425   0.00000  Uiso   1.00
C14    C     0.30553   0.14539   0.45796   0.00000  Uiso   1.00
C15    C     0.03035   0.19474   0.04278   0.00000  Uiso   1.00
C16    C     0.32254   0.15253   0.41146   0.00000  Uiso   1.00
C17    C     0.01250   0.18592   0.08889   0.00000  Uiso   1.00
C18    C     0.24328   0.17199   0.40758   0.00000  Uiso   1.00
C19    C     0.08994   0.16129   0.09253   0.00000  Uiso   1.00
C20    C     0.22537   0.16664   0.45477   0.00000  Uiso   1.00
C21    C     0.10956   0.17064   0.04601   0.00000  Uiso   1.00
C22    C     0.25687   0.15112   0.47990   0.00000  Uiso   1.00
C23    C     0.19099   0.14703   0.04745   0.00000  Uiso   1.00
C24    C     0.07891   0.18833   0.02107   0.00000  Uiso   1.00
C25    C     0.17663   0.17465   0.47715   0.00000  Uiso   1.00
C26    C     0.15883   0.16391   0.02404   0.00000  Uiso   1.00
C27    C     0.20975   0.29813   0.26501   0.00000  Uiso   1.00
C28    C     0.16586   0.27219   0.28995   0.00000  Uiso   1.00
C29    C     0.10772   0.04564   0.18039   0.00000  Uiso   1.00
C30    C     0.15461   0.07039   0.16944   0.00000  Uiso   1.00
C31    C     0.19048   0.08752   0.32856   0.00000  Uiso   1.00
C32    C     0.22727   0.07238   0.35289   0.00000  Uiso   1.00
C33    C     0.13648   0.24249   0.17153   0.00000  Uiso   1.00
C34    C     0.14546   0.19385   0.45419   0.00000  Uiso   1.00
C35    C     0.15693   0.25699   0.12225   0.00000  Uiso   1.00
C36    C     0.23892   0.14088   0.02611   0.00000  Uiso   1.00
C37    C     0.09756   0.20019   0.47532   0.00000  Uiso   1.00
C38    C     0.29076   0.02088   0.26029   0.00000  Uiso   1.00
C39    C     0.04332   0.31234   0.23990   0.00000  Uiso   1.00
C40    C     0.28917   0.31138   0.26333   0.00000  Uiso   1.00
Cl41   Cl    0.27431   0.11739   0.05878   0.00000  Uiso   1.00
Cl42   Cl    0.06284   0.22507   0.44284   0.00000  Uiso   1.00
Cl43   Cl    0.09020   0.11433   0.32329   0.00000  Uiso   1.00
Cl44   Cl    0.24184   0.21894   0.17593   0.00000  Uiso   1.00
Cu45   Cu    0.04689   0.16667   0.25000   0.00000  Uiso   1.00
Cu46   Cu    0.28645   0.16666   0.25000   0.00000  Uiso   1.00
H47    H     0.11086   0.14785   0.11344   0.00000  Uiso   1.00
H48    H     0.07700   0.29663   0.23303   0.00000  Uiso   1.00
H49    H     0.22056   0.29011   0.22908   0.00000  Uiso   1.00
H50    H     0.19886   0.33072   0.26693   0.00000  Uiso   1.00
H51    H     0.15290   0.28164   0.32522   0.00000  Uiso   1.00
H52    H     0.13665   0.27643   0.27300   0.00000  Uiso   1.00
H53    H     0.17501   0.23923   0.29071   0.00000  Uiso   1.00
H54    H     0.08273   0.06189   0.16359   0.00000  Uiso   1.00
H55    H     0.11538   0.01474   0.16659   0.00000  Uiso   1.00
H56    H     0.18015   0.05536   0.18629   0.00000  Uiso   1.00
H57    H     0.17089   0.07228   0.13241   0.00000  Uiso   1.00
H58    H     0.22018   0.18034   0.38648   0.00000  Uiso   1.00
H59    H     0.14784   0.10198   0.18124   0.00000  Uiso   1.00
H60    H     0.19477   0.07205   0.29641   0.00000  Uiso   1.00
H61    H     0.15528   0.07806   0.35157   0.00000  Uiso   1.00
H62    H     0.21960   0.08511   0.38683   0.00000  Uiso   1.00
H63    H     0.22538   0.03830   0.35704   0.00000  Uiso   1.00
H64    H     0.26407   0.08217   0.33379   0.00000  Uiso   1.00
H65    H     0.15426   0.26031   0.19283   0.00000  Uiso   1.00
H66    H     0.09789   0.24950   0.18018   0.00000  Uiso   1.00
H67    H     0.13714   0.24178   0.10085   0.00000  Uiso   1.00
H68    H     0.15323   0.29077   0.11827   0.00000  Uiso   1.00
H69    H     0.30885   0.19237   0.10464   0.00000  Uiso   1.00
H70    H     0.19546   0.24951   0.11050   0.00000  Uiso   1.00
H71    H     0.02658   0.14734   0.39563   0.00000  Uiso   1.00
H72    H     0.33078   0.13488   0.47634   0.00000  Uiso   1.00
H73    H     0.00591   0.20742   0.02463   0.00000  Uiso   1.00
H74    H     0.18048   0.13804   0.08280   0.00000  Uiso   1.00
H75    H     0.15739   0.20570   0.41969   0.00000  Uiso   1.00
H76    H     0.25806   0.03723   0.27006   0.00000  Uiso   1.00
N77    N     0.11736   0.16668   0.24999   0.00000  Uiso   1.00
N78    N     0.21597   0.16666   0.25001   0.00000  Uiso   1.00
O79    O     0.03958   0.10655   0.25000   0.00000  Uiso   1.00
O80    O     0.08844   0.04220   0.22763   0.00000  Uiso   1.00
O81    O     0.19412   0.13083   0.32230   0.00000  Uiso   1.00
O82    O     0.14124   0.19948   0.17599   0.00000  Uiso   1.00
O83    O     0.29375   0.22678   0.25000   0.00000  Uiso   1.00
O84    O     0.29372   0.10654   0.25001   0.00000  Uiso   1.00
O85    O     0.03961   0.22679   0.25000   0.00000  Uiso   1.00
O86    O     0.01852   0.16668   0.31492   0.00000  Uiso   1.00
O87    O     0.31481   0.16666   0.18509   0.00000  Uiso   1.00
O88    O     0.27267   0.16667   0.31492   0.00000  Uiso   1.00
O89    O     0.06067   0.16667   0.18508   0.00000  Uiso   1.00
O90    O     0.24710   0.29008   0.28585   0.00000  Uiso   1.00
C91    C     0.33367   0.08752   0.24896   0.00000  Uiso   1.00
C92    C     0.37789   0.02165   0.23727   0.00000  Uiso   1.00
C93    C     0.66617   0.29044   0.25178   0.00000  Uiso   1.00
C94    C     0.33436   0.04282   0.24800   0.00000  Uiso   1.00
C95    C     0.51513   0.14527   0.28366   0.00000  Uiso   1.00
C96    C     0.48510   0.18734   0.21604   0.00000  Uiso   1.00
C97    C     0.46571   0.14489   0.28288   0.00000  Uiso   1.00
C98    C     0.53417   0.18805   0.21697   0.00000  Uiso   1.00
C99    C     0.63955   0.16647   0.33615   0.00000  Uiso   1.00
C100   C     0.36049   0.16702   0.16386   0.00000  Uiso   1.00
C101   C     0.62445   0.16443   0.38581   0.00000  Uiso   1.00
C102   C     0.66643   0.24578   0.25114   0.00000  Uiso   1.00
C103   C     0.37588   0.17033   0.11425   0.00000  Uiso   1.00
C104   C     0.63887   0.14539   0.45796   0.00000  Uiso   1.00
C105   C     0.36368   0.19474   0.04278   0.00000  Uiso   1.00
C106   C     0.65588   0.15253   0.41146   0.00000  Uiso   1.00
C107   C     0.34583   0.18592   0.08889   0.00000  Uiso   1.00
C108   C     0.57661   0.17199   0.40758   0.00000  Uiso   1.00
C109   C     0.42327   0.16129   0.09253   0.00000  Uiso   1.00
C110   C     0.55871   0.16664   0.45477   0.00000  Uiso   1.00
C111   C     0.44289   0.17064   0.04601   0.00000  Uiso   1.00
C112   C     0.59020   0.15112   0.47990   0.00000  Uiso   1.00
C113   C     0.52432   0.14703   0.04745   0.00000  Uiso   1.00
C114   C     0.41224   0.18833   0.02107   0.00000  Uiso   1.00
C115   C     0.50996   0.17465   0.47715   0.00000  Uiso   1.00
C116   C     0.49217   0.16391   0.02404   0.00000  Uiso   1.00
C117   C     0.54308   0.29813   0.26501   0.00000  Uiso   1.00
C118   C     0.49919   0.27219   0.28995   0.00000  Uiso   1.00
C119   C     0.44106   0.04564   0.18039   0.00000  Uiso   1.00
C120   C     0.48795   0.07039   0.16944   0.00000  Uiso   1.00
C121   C     0.52381   0.08752   0.32856   0.00000  Uiso   1.00
C122   C     0.56060   0.07238   0.35289   0.00000  Uiso   1.00
C123   C     0.46981   0.24249   0.17153   0.00000  Uiso   1.00
C124   C     0.47879   0.19385   0.45419   0.00000  Uiso   1.00
C125   C     0.49026   0.25699   0.12225   0.00000  Uiso   1.00
C126   C     0.57225   0.14088   0.02611   0.00000  Uiso   1.00
C127   C     0.43090   0.20019   0.47532   0.00000  Uiso   1.00
C128   C     0.62410   0.02088   0.26029   0.00000  Uiso   1.00
C129   C     0.37665   0.31234   0.23990   0.00000  Uiso   1.00
C130   C     0.62250   0.31138   0.26333   0.00000  Uiso   1.00
Cl131  Cl    0.60764   0.11739   0.05878   0.00000  Uiso   1.00
Cl132  Cl    0.39618   0.22507   0.44284   0.00000  Uiso   1.00
Cl133  Cl    0.42354   0.11433   0.32329   0.00000  Uiso   1.00
Cl134  Cl    0.57517   0.21894   0.17593   0.00000  Uiso   1.00
Cu135  Cu    0.38022   0.16667   0.25000   0.00000  Uiso   1.00
Cu136  Cu    0.61978   0.16666   0.25000   0.00000  Uiso   1.00
H137   H     0.44419   0.14785   0.11344   0.00000  Uiso   1.00
H138   H     0.41033   0.29663   0.23303   0.00000  Uiso   1.00
H139   H     0.55389   0.29011   0.22908   0.00000  Uiso   1.00
H140   H     0.53219   0.33072   0.26693   0.00000  Uiso   1.00
H141   H     0.48623   0.28164   0.32522   0.00000  Uiso   1.00
H142   H     0.46999   0.27643   0.27300   0.00000  Uiso   1.00
H143   H     0.50835   0.23923   0.29071   0.00000  Uiso   1.00
H144   H     0.41606   0.06189   0.16359   0.00000  Uiso   1.00
H145   H     0.44872   0.01474   0.16659   0.00000  Uiso   1.00
H146   H     0.51348   0.05536   0.18629   0.00000  Uiso   1.00
H147   H     0.50422   0.07228   0.13241   0.00000  Uiso   1.00
H148   H     0.55352   0.18034   0.38648   0.00000  Uiso   1.00
H149   H     0.48117   0.10198   0.18124   0.00000  Uiso   1.00
H150   H     0.52811   0.07205   0.29641   0.00000  Uiso   1.00
H151   H     0.48861   0.07806   0.35157   0.00000  Uiso   1.00
H152   H     0.55293   0.08511   0.38683   0.00000  Uiso   1.00
H153   H     0.55871   0.03830   0.35704   0.00000  Uiso   1.00
H154   H     0.59740   0.08217   0.33379   0.00000  Uiso   1.00
H155   H     0.48759   0.26031   0.19283   0.00000  Uiso   1.00
H156   H     0.43122   0.24950   0.18018   0.00000  Uiso   1.00
H157   H     0.47047   0.24178   0.10085   0.00000  Uiso   1.00
H158   H     0.48657   0.29077   0.11827   0.00000  Uiso   1.00
H159   H     0.64218   0.19237   0.10464   0.00000  Uiso   1.00
H160   H     0.52879   0.24951   0.11050   0.00000  Uiso   1.00
H161   H     0.35991   0.14734   0.39563   0.00000  Uiso   1.00
H162   H     0.66411   0.13488   0.47634   0.00000  Uiso   1.00
H163   H     0.33924   0.20742   0.02463   0.00000  Uiso   1.00
H164   H     0.51381   0.13804   0.08280   0.00000  Uiso   1.00
H165   H     0.49073   0.20570   0.41969   0.00000  Uiso   1.00
H166   H     0.59140   0.03723   0.27006   0.00000  Uiso   1.00
N167   N     0.45069   0.16668   0.24999   0.00000  Uiso   1.00
N168   N     0.54931   0.16666   0.25001   0.00000  Uiso   1.00
O169   O     0.37291   0.10655   0.25000   0.00000  Uiso   1.00
O170   O     0.42178   0.04220   0.22763   0.00000  Uiso   1.00
O171   O     0.52745   0.13083   0.32230   0.00000  Uiso   1.00
O172   O     0.47457   0.19948   0.17599   0.00000  Uiso   1.00
O173   O     0.62709   0.22678   0.25000   0.00000  Uiso   1.00
O174   O     0.62706   0.10654   0.25001   0.00000  Uiso   1.00
O175   O     0.37294   0.22679   0.25000   0.00000  Uiso   1.00
O176   O     0.35186   0.16668   0.31492   0.00000  Uiso   1.00
O177   O     0.64814   0.16666   0.18509   0.00000  Uiso   1.00
O178   O     0.60600   0.16667   0.31492   0.00000  Uiso   1.00
O179   O     0.39400   0.16667   0.18508   0.00000  Uiso   1.00
O180   O     0.58044   0.29008   0.28585   0.00000  Uiso   1.00
C181   C     0.66700   0.08752   0.24896   0.00000  Uiso   1.00
C182   C     0.71122   0.02165   0.23727   0.00000  Uiso   1.00
C183   C     0.99950   0.29044   0.25178   0.00000  Uiso   1.00
C184   C     0.66769   0.04282   0.24800   0.00000  Uiso   1.00
C185   C     0.84847   0.14527   0.28366   0.00000  Uiso   1.00
C186   C     0.81843   0.18734   0.21604   0.00000  Uiso   1.00
C187   C     0.79904   0.14489   0.28288   0.00000  Uiso   1.00
C188   C     0.86750   0.18805   0.21697   0.00000  Uiso   1.00
C189   C     0.97288   0.16647   0.33615   0.00000  Uiso   1.00
C190   C     0.69382   0.16702   0.16386   0.00000  Uiso   1.00
C191   C     0.95779   0.16443   0.38581   0.00000  Uiso   1.00
C192   C     0.99976   0.24578   0.25114   0.00000  Uiso   1.00
C193   C     0.70922   0.17033   0.11425   0.00000  Uiso   1.00
C194   C     0.97220   0.14539   0.45796   0.00000  Uiso   1.00
C195   C     0.69702   0.19474   0.04278   0.00000  Uiso   1.00
C196   C     0.98921   0.15253   0.41146   0.00000  Uiso   1.00
C197   C     0.67917   0.18592   0.08889   0.00000  Uiso   1.00
C198   C     0.90995   0.17199   0.40758   0.00000  Uiso   1.00
C199   C     0.75661   0.16129   0.09253   0.00000  Uiso   1.00
C200   C     0.89204   0.16664   0.45477   0.00000  Uiso   1.00
C201   C     0.77622   0.17064   0.04601   0.00000  Uiso   1.00
C202   C     0.92353   0.15112   0.47990   0.00000  Uiso   1.00
C203   C     0.85765   0.14703   0.04745   0.00000  Uiso   1.00
C204   C     0.74558   0.18833   0.02107   0.00000  Uiso   1.00
C205   C     0.84329   0.17465   0.47715   0.00000  Uiso   1.00
C206   C     0.82550   0.16391   0.02404   0.00000  Uiso   1.00
C207   C     0.87642   0.29813   0.26501   0.00000  Uiso   1.00
C208   C     0.83252   0.27219   0.28995   0.00000  Uiso   1.00
C209   C     0.77439   0.04564   0.18039   0.00000  Uiso   1.00
C210   C     0.82128   0.07039   0.16944   0.00000  Uiso   1.00
C211   C     0.85715   0.08752   0.32856   0.00000  Uiso   1.00
C212   C     0.89393   0.07238   0.35289   0.00000  Uiso   1.00
C213   C     0.80315   0.24249   0.17153   0.00000  Uiso   1.00
C214   C     0.81213   0.19385   0.45419   0.00000  Uiso   1.00
C215   C     0.82360   0.25699   0.12225   0.00000  Uiso   1.00
C216   C     0.90559   0.14088   0.02611   0.00000  Uiso   1.00
C217   C     0.76423   0.20019   0.47532   0.00000  Uiso   1.00
C218   C     0.95743   0.02088   0.26029   0.00000  Uiso   1.00
C219   C     0.70998   0.31234   0.23990   0.00000  Uiso   1.00
C220   C     0.95583   0.31138   0.26333   0.00000  Uiso   1.00
Cl221  Cl    0.94097   0.11739   0.05878   0.00000  Uiso   1.00
Cl222  Cl    0.72951   0.22507   0.44284   0.00000  Uiso   1.00
Cl223  Cl    0.75687   0.11433   0.32329   0.00000  Uiso   1.00
Cl224  Cl    0.90850   0.21894   0.17593   0.00000  Uiso   1.00
Cu225  Cu    0.71355   0.16667   0.25000   0.00000  Uiso   1.00
Cu226  Cu    0.95311   0.16666   0.25000   0.00000  Uiso   1.00
H227   H     0.77752   0.14785   0.11344   0.00000  Uiso   1.00
H228   H     0.74367   0.29663   0.23303   0.00000  Uiso   1.00
H229   H     0.88722   0.29011   0.22908   0.00000  Uiso   1.00
H230   H     0.86552   0.33072   0.26693   0.00000  Uiso   1.00
H231   H     0.81957   0.28164   0.32522   0.00000  Uiso   1.00
H232   H     0.80332   0.27643   0.27300   0.00000  Uiso   1.00
H233   H     0.84168   0.23923   0.29071   0.00000  Uiso   1.00
H234   H     0.74939   0.06189   0.16359   0.00000  Uiso   1.00
H235   H     0.78205   0.01474   0.16659   0.00000  Uiso   1.00
H236   H     0.84682   0.05536   0.18629   0.00000  Uiso   1.00
H237   H     0.83756   0.07228   0.13241   0.00000  Uiso   1.00
H238   H     0.88685   0.18034   0.38648   0.00000  Uiso   1.00
H239   H     0.81450   0.10198   0.18124   0.00000  Uiso   1.00
H240   H     0.86144   0.07205   0.29641   0.00000  Uiso   1.00
H241   H     0.82195   0.07806   0.35157   0.00000  Uiso   1.00
H242   H     0.88627   0.08511   0.38683   0.00000  Uiso   1.00
H243   H     0.89204   0.03830   0.35704   0.00000  Uiso   1.00
H244   H     0.93074   0.08217   0.33379   0.00000  Uiso   1.00
H245   H     0.82092   0.26031   0.19283   0.00000  Uiso   1.00
H246   H     0.76456   0.24950   0.18018   0.00000  Uiso   1.00
H247   H     0.80381   0.24178   0.10085   0.00000  Uiso   1.00
H248   H     0.81990   0.29077   0.11827   0.00000  Uiso   1.00
H249   H     0.97551   0.19237   0.10464   0.00000  Uiso   1.00
H250   H     0.86213   0.24951   0.11050   0.00000  Uiso   1.00
H251   H     0.69324   0.14734   0.39563   0.00000  Uiso   1.00
H252   H     0.99744   0.13488   0.47634   0.00000  Uiso   1.00
H253   H     0.67257   0.20742   0.02463   0.00000  Uiso   1.00
H254   H     0.84715   0.13804   0.08280   0.00000  Uiso   1.00
H255   H     0.82406   0.20570   0.41969   0.00000  Uiso   1.00
H256   H     0.92473   0.03723   0.27006   0.00000  Uiso   1.00
N257   N     0.78403   0.16668   0.24999   0.00000  Uiso   1.00
N258   N     0.88264   0.16666   0.25001   0.00000  Uiso   1.00
O259   O     0.70625   0.10655   0.25000   0.00000  Uiso   1.00
O260   O     0.75511   0.04220   0.22763   0.00000  Uiso   1.00
O261   O     0.86078   0.13083   0.32230   0.00000  Uiso   1.00
O262   O     0.80791   0.19948   0.17599   0.00000  Uiso   1.00
O263   O     0.96042   0.22678   0.25000   0.00000  Uiso   1.00
O264   O     0.96039   0.10654   0.25001   0.00000  Uiso   1.00
O265   O     0.70628   0.22679   0.25000   0.00000  Uiso   1.00
O266   O     0.68519   0.16668   0.31492   0.00000  Uiso   1.00
O267   O     0.98148   0.16666   0.18509   0.00000  Uiso   1.00
O268   O     0.93933   0.16667   0.31492   0.00000  Uiso   1.00
O269   O     0.72733   0.16667   0.18508   0.00000  Uiso   1.00
O270   O     0.91377   0.29008   0.28585   0.00000  Uiso   1.00
C271   C     0.00034   0.42085   0.24896   0.00000  Uiso   1.00
C272   C     0.04455   0.35498   0.23727   0.00000  Uiso   1.00
C273   C     0.33284   0.62378   0.25178   0.00000  Uiso   1.00
C274   C     0.00102   0.37615   0.24800   0.00000  Uiso   1.00
C275   C     0.18180   0.47860   0.28366   0.00000  Uiso   1.00
C276   C     0.15177   0.52068   0.21604   0.00000  Uiso   1.00
C277   C     0.13237   0.47822   0.28288   0.00000  Uiso   1.00
C278   C     0.20084   0.52138   0.21697   0.00000  Uiso   1.00
C279   C     0.30621   0.49980   0.33615   0.00000  Uiso   1.00
C280   C     0.02715   0.50035   0.16386   0.00000  Uiso   1.00
C281   C     0.29112   0.49776   0.38581   0.00000  Uiso   1.00
C282   C     0.33310   0.57912   0.25114   0.00000  Uiso   1.00
C283   C     0.04255   0.50366   0.11425   0.00000  Uiso   1.00
C284   C     0.30553   0.47872   0.45796   0.00000  Uiso   1.00
C285   C     0.03035   0.52807   0.04278   0.00000  Uiso   1.00
C286   C     0.32254   0.48586   0.41146   0.00000  Uiso   1.00
C287   C     0.01250   0.51925   0.08889   0.00000  Uiso   1.00
C288   C     0.24328   0.50533   0.40758   0.00000  Uiso   1.00
C289   C     0.08994   0.49462   0.09253   0.00000  Uiso   1.00
C290   C     0.22537   0.49997   0.45477   0.00000  Uiso   1.00
C291   C     0.10956   0.50398   0.04601   0.00000  Uiso   1.00
C292   C     0.25687   0.48445   0.47990   0.00000  Uiso   1.00
C293   C     0.19099   0.48036   0.04745   0.00000  Uiso   1.00
C294   C     0.07891   0.52166   0.02107   0.00000  Uiso   1.00
C295   C     0.17663   0.50798   0.47715   0.00000  Uiso   1.00
C296   C     0.15883   0.49724   0.02404   0.00000  Uiso   1.00
C297   C     0.20975   0.63147   0.26501   0.00000  Uiso   1.00
C298   C     0.16586   0.60552   0.28995   0.00000  Uiso   1.00
C299   C     0.10772   0.37897   0.18039   0.00000  Uiso   1.00
C300   C     0.15461   0.40372   0.16944   0.00000  Uiso   1.00
C301   C     0.19048   0.42085   0.32856   0.00000  Uiso   1.00
C302   C     0.22727   0.40572   0.35289   0.00000  Uiso   1.00
C303   C     0.13648   0.57582   0.17153   0.00000  Uiso   1.00
C304   C     0.14546   0.52718   0.45419   0.00000  Uiso   1.00
C305   C     0.15693   0.59033   0.12225   0.00000  Uiso   1.00
C306   C     0.23892   0.47422   0.02611   0.00000  Uiso   1.00
C307   C     0.09756   0.53352   0.47532   0.00000  Uiso   1.00
C308   C     0.29076   0.35421   0.26029   0.00000  Uiso   1.00
C309   C     0.04332   0.64567   0.23990   0.00000  Uiso   1.00
C310   C     0.28917   0.64472   0.26333   0.00000  Uiso   1.00
Cl311  Cl    0.27431   0.45072   0.05878   0.00000  Uiso   1.00
Cl312  Cl    0.06284   0.55841   0.44284   0.00000  Uiso   1.00
Cl313  Cl    0.09020   0.44767   0.32329   0.00000  Uiso   1.00
Cl314  Cl    0.24184   0.55228   0.17593   0.00000  Uiso   1.00
Cu315  Cu    0.04689   0.50001   0.25000   0.00000  Uiso   1.00
Cu316  Cu    0.28645   0.49999   0.25000   0.00000  Uiso   1.00
H317   H     0.11086   0.48118   0.11344   0.00000  Uiso   1.00
H318   H     0.07700   0.62996   0.23303   0.00000  Uiso   1.00
H319   H     0.22056   0.62344   0.22908   0.00000  Uiso   1.00
H320   H     0.19886   0.66405   0.26693   0.00000  Uiso   1.00
H321   H     0.15290   0.61497   0.32522   0.00000  Uiso   1.00
H322   H     0.13665   0.60976   0.27300   0.00000  Uiso   1.00
H323   H     0.17501   0.57256   0.29071   0.00000  Uiso   1.00
H324   H     0.08273   0.39523   0.16359   0.00000  Uiso   1.00
H325   H     0.11538   0.34807   0.16659   0.00000  Uiso   1.00
H326   H     0.18015   0.38870   0.18629   0.00000  Uiso   1.00
H327   H     0.17089   0.40561   0.13241   0.00000  Uiso   1.00
H328   H     0.22018   0.51367   0.38648   0.00000  Uiso   1.00
H329   H     0.14784   0.43532   0.18124   0.00000  Uiso   1.00
H330   H     0.19477   0.40538   0.29641   0.00000  Uiso   1.00
H331   H     0.15528   0.41140   0.35157   0.00000  Uiso   1.00
H332   H     0.21960   0.41844   0.38683   0.00000  Uiso   1.00
H333   H     0.22538   0.37163   0.35704   0.00000  Uiso   1.00
H334   H     0.26407   0.41551   0.33379   0.00000  Uiso   1.00
H335   H     0.15426   0.59364   0.19283   0.00000  Uiso   1.00
H336   H     0.09789   0.58283   0.18018   0.00000  Uiso   1.00
H337   H     0.13714   0.57511   0.10085   0.00000  Uiso   1.00
H338   H     0.15323   0.62410   0.11827   0.00000  Uiso   1.00
H339   H     0.30885   0.52570   0.10464   0.00000  Uiso   1.00
H340   H     0.19546   0.58285   0.11050   0.00000  Uiso   1.00
H341   H     0.02658   0.48067   0.39563   0.00000  Uiso   1.00
H342   H     0.33078   0.46822   0.47634   0.00000  Uiso   1.00
H343   H     0.00591   0.54076   0.02463   0.00000  Uiso   1.00
H344   H     0.18048   0.47138   0.08280   0.00000  Uiso   1.00
H345   H     0.15739   0.53903   0.41969   0.00000  Uiso   1.00
H346   H     0.25806   0.37056   0.27006   0.00000  Uiso   1.00
N347   N     0.11736   0.50001   0.24999   0.00000  Uiso   1.00
N348   N     0.21597   0.49999   0.25001   0.00000  Uiso   1.00
O349   O     0.03958   0.43989   0.25000   0.00000  Uiso   1.00
O350   O     0.08844   0.37553   0.22763   0.00000  Uiso   1.00
O351   O     0.19412   0.46416   0.32230   0.00000  Uiso   1.00
O352   O     0.14124   0.53282   0.17599   0.00000  Uiso   1.00
O353   O     0.29375   0.56011   0.25000   0.00000  Uiso   1.00
O354   O     0.29372   0.43988   0.25001   0.00000  Uiso   1.00
O355   O     0.03961   0.56012   0.25000   0.00000  Uiso   1.00
O356   O     0.01852   0.50001   0.31492   0.00000  Uiso   1.00
O357   O     0.31481   0.49999   0.18509   0.00000  Uiso   1.00
O358   O     0.27267   0.50000   0.31492   0.00000  Uiso   1.00
O359   O     0.06067   0.50000   0.18508   0.00000  Uiso   1.00
O360   O     0.24710   0.62342   0.28585   0.00000  Uiso   1.00
C361   C     0.33367   0.42085   0.24896   0.00000  Uiso   1.00
C362   C     0.37789   0.35498   0.23727   0.00000  Uiso   1.00
C363   C     0.66617   0.62378   0.25178   0.00000  Uiso   1.00
C364   C     0.33436   0.37615   0.24800   0.00000  Uiso   1.00
C365   C     0.51513   0.47860   0.28366   0.00000  Uiso   1.00
C366   C     0.48510   0.52068   0.21604   0.00000  Uiso   1.00
C367   C     0.46571   0.47822   0.28288   0.00000  Uiso   1.00
C368   C     0.53417   0.52138   0.21697   0.00000  Uiso   1.00
C369   C     0.63955   0.49980   0.33615   0.00000  Uiso   1.00
C370   C     0.36049   0.50035   0.16386   0.00000  Uiso   1.00
C371   C     0.62445   0.49776   0.38581   0.00000  Uiso   1.00
C372   C     0.66643   0.57912   0.25114   0.00000  Uiso   1.00
C373   C     0.37588   0.50366   0.11425   0.00000  Uiso   1.00
C374   C     0.63887   0.47872   0.45796   0.00000  Uiso   1.00
C375   C     0.36368   0.52807   0.04278   0.00000  Uiso   1.00
C376   C     0.65588   0.48586   0.41146   0.00000  Uiso   1.00
C377   C     0.34583   0.51925   0.08889   0.00000  Uiso   1.00
C378   C     0.57661   0.50533   0.40758   0.00000  Uiso   1.00
C379   C     0.42327   0.49462   0.09253   0.00000  Uiso   1.00
C380   C     0.55871   0.49997   0.45477   0.00000  Uiso   1.00
C381   C     0.44289   0.50398   0.04601   0.00000  Uiso   1.00
C382   C     0.59020   0.48445   0.47990   0.00000  Uiso   1.00
C383   C     0.52432   0.48036   0.04745   0.00000  Uiso   1.00
C384   C     0.41224   0.52166   0.02107   0.00000  Uiso   1.00
C385   C     0.50996   0.50798   0.47715   0.00000  Uiso   1.00
C386   C     0.49217   0.49724   0.02404   0.00000  Uiso   1.00
C387   C     0.54308   0.63147   0.26501   0.00000  Uiso   1.00
C388   C     0.49919   0.60552   0.28995   0.00000  Uiso   1.00
C389   C     0.44106   0.37897   0.18039   0.00000  Uiso   1.00
C390   C     0.48795   0.40372   0.16944   0.00000  Uiso   1.00
C391   C     0.52381   0.42085   0.32856   0.00000  Uiso   1.00
C392   C     0.56060   0.40572   0.35289   0.00000  Uiso   1.00
C393   C     0.46981   0.57582   0.17153   0.00000  Uiso   1.00
C394   C     0.47879   0.52718   0.45419   0.00000  Uiso   1.00
C395   C     0.49026   0.59033   0.12225   0.00000  Uiso   1.00
C396   C     0.57225   0.47422   0.02611   0.00000  Uiso   1.00
C397   C     0.43090   0.53352   0.47532   0.00000  Uiso   1.00
C398   C     0.62410   0.35421   0.26029   0.00000  Uiso   1.00
C399   C     0.37665   0.64567   0.23990   0.00000  Uiso   1.00
C400   C     0.62250   0.64472   0.26333   0.00000  Uiso   1.00
Cl401  Cl    0.60764   0.45072   0.05878   0.00000  Uiso   1.00
Cl402  Cl    0.39618   0.55841   0.44284   0.00000  Uiso   1.00
Cl403  Cl    0.42354   0.44767   0.32329   0.00000  Uiso   1.00
Cl404  Cl    0.57517   0.55228   0.17593   0.00000  Uiso   1.00
Cu405  Cu    0.38022   0.50001   0.25000   0.00000  Uiso   1.00
Cu406  Cu    0.61978   0.49999   0.25000   0.00000  Uiso   1.00
H407   H     0.44419   0.48118   0.11344   0.00000  Uiso   1.00
H408   H     0.41033   0.62996   0.23303   0.00000  Uiso   1.00
H409   H     0.55389   0.62344   0.22908   0.00000  Uiso   1.00
H410   H     0.53219   0.66405   0.26693   0.00000  Uiso   1.00
H411   H     0.48623   0.61497   0.32522   0.00000  Uiso   1.00
H412   H     0.46999   0.60976   0.27300   0.00000  Uiso   1.00
H413   H     0.50835   0.57256   0.29071   0.00000  Uiso   1.00
H414   H     0.41606   0.39523   0.16359   0.00000  Uiso   1.00
H415   H     0.44872   0.34807   0.16659   0.00000  Uiso   1.00
H416   H     0.51348   0.38870   0.18629   0.00000  Uiso   1.00
H417   H     0.50422   0.40561   0.13241   0.00000  Uiso   1.00
H418   H     0.55352   0.51367   0.38648   0.00000  Uiso   1.00
H419   H     0.48117   0.43532   0.18124   0.00000  Uiso   1.00
H420   H     0.52811   0.40538   0.29641   0.00000  Uiso   1.00
H421   H     0.48861   0.41140   0.35157   0.00000  Uiso   1.00
H422   H     0.55293   0.41844   0.38683   0.00000  Uiso   1.00
H423   H     0.55871   0.37163   0.35704   0.00000  Uiso   1.00
H424   H     0.59740   0.41551   0.33379   0.00000  Uiso   1.00
H425   H     0.48759   0.59364   0.19283   0.00000  Uiso   1.00
H426   H     0.43122   0.58283   0.18018   0.00000  Uiso   1.00
H427   H     0.47047   0.57511   0.10085   0.00000  Uiso   1.00
H428   H     0.48657   0.62410   0.11827   0.00000  Uiso   1.00
H429   H     0.64218   0.52570   0.10464   0.00000  Uiso   1.00
H430   H     0.52879   0.58285   0.11050   0.00000  Uiso   1.00
H431   H     0.35991   0.48067   0.39563   0.00000  Uiso   1.00
H432   H     0.66411   0.46822   0.47634   0.00000  Uiso   1.00
H433   H     0.33924   0.54076   0.02463   0.00000  Uiso   1.00
H434   H     0.51381   0.47138   0.08280   0.00000  Uiso   1.00
H435   H     0.49073   0.53903   0.41969   0.00000  Uiso   1.00
H436   H     0.59140   0.37056   0.27006   0.00000  Uiso   1.00
N437   N     0.45069   0.50001   0.24999   0.00000  Uiso   1.00
N438   N     0.54931   0.49999   0.25001   0.00000  Uiso   1.00
O439   O     0.37291   0.43989   0.25000   0.00000  Uiso   1.00
O440   O     0.42178   0.37553   0.22763   0.00000  Uiso   1.00
O441   O     0.52745   0.46416   0.32230   0.00000  Uiso   1.00
O442   O     0.47457   0.53282   0.17599   0.00000  Uiso   1.00
O443   O     0.62709   0.56011   0.25000   0.00000  Uiso   1.00
O444   O     0.62706   0.43988   0.25001   0.00000  Uiso   1.00
O445   O     0.37294   0.56012   0.25000   0.00000  Uiso   1.00
O446   O     0.35186   0.50001   0.31492   0.00000  Uiso   1.00
O447   O     0.64814   0.49999   0.18509   0.00000  Uiso   1.00
O448   O     0.60600   0.50000   0.31492   0.00000  Uiso   1.00
O449   O     0.39400   0.50000   0.18508   0.00000  Uiso   1.00
O450   O     0.58044   0.62342   0.28585   0.00000  Uiso   1.00
C451   C     0.66700   0.42085   0.24896   0.00000  Uiso   1.00
C452   C     0.71122   0.35498   0.23727   0.00000  Uiso   1.00
C453   C     0.99950   0.62378   0.25178   0.00000  Uiso   1.00
C454   C     0.66769   0.37615   0.24800   0.00000  Uiso   1.00
C455   C     0.84847   0.47860   0.28366   0.00000  Uiso   1.00
C456   C     0.81843   0.52068   0.21604   0.00000  Uiso   1.00
C457   C     0.79904   0.47822   0.28288   0.00000  Uiso   1.00
C458   C     0.86750   0.52138   0.21697   0.00000  Uiso   1.00
C459   C     0.97288   0.49980   0.33615   0.00000  Uiso   1.00
C460   C     0.69382   0.50035   0.16386   0.00000  Uiso   1.00
C461   C     0.95779   0.49776   0.38581   0.00000  Uiso   1.00
C462   C     0.99976   0.57912   0.25114   0.00000  Uiso   1.00
C463   C     0.70922   0.50366   0.11425   0.00000  Uiso   1.00
C464   C     0.97220   0.47872   0.45796   0.00000  Uiso   1.00
C465   C     0.69702   0.52807   0.04278   0.00000  Uiso   1.00
C466   C     0.98921   0.48586   0.41146   0.00000  Uiso   1.00
C467   C     0.67917   0.51925   0.08889   0.00000  Uiso   1.00
C468   C     0.90995   0.50533   0.40758   0.00000  Uiso   1.00
C469   C     0.75661   0.49462   0.09253   0.00000  Uiso   1.00
C470   C     0.89204   0.49997   0.45477   0.00000  Uiso   1.00
C471   C     0.77622   0.50398   0.04601   0.00000  Uiso   1.00
C472   C     0.92353   0.48445   0.47990   0.00000  Uiso   1.00
C473   C     0.85765   0.48036   0.04745   0.00000  Uiso   1.00
C474   C     0.74558   0.52166   0.02107   0.00000  Uiso   1.00
C475   C     0.84329   0.50798   0.47715   0.00000  Uiso   1.00
C476   C     0.82550   0.49724   0.02404   0.00000  Uiso   1.00
C477   C     0.87642   0.63147   0.26501   0.00000  Uiso   1.00
C478   C     0.83252   0.60552   0.28995   0.00000  Uiso   1.00
C479   C     0.77439   0.37897   0.18039   0.00000  Uiso   1.00
C480   C     0.82128   0.40372   0.16944   0.00000  Uiso   1.00
C481   C     0.85715   0.42085   0.32856   0.00000  Uiso   1.00
C482   C     0.89393   0.40572   0.35289   0.00000  Uiso   1.00
C483   C     0.80315   0.57582   0.17153   0.00000  Uiso   1.00
C484   C     0.81213   0.52718   0.45419   0.00000  Uiso   1.00
C485   C     0.82360   0.59033   0.12225   0.00000  Uiso   1.00
C486   C     0.90559   0.47422   0.02611   0.00000  Uiso   1.00
C487   C     0.76423   0.53352   0.47532   0.00000  Uiso   1.00
C488   C     0.95743   0.35421   0.26029   0.00000  Uiso   1.00
C489   C     0.70998   0.64567   0.23990   0.00000  Uiso   1.00
C490   C     0.95583   0.64472   0.26333   0.00000  Uiso   1.00
Cl491  Cl    0.94097   0.45072   0.05878   0.00000  Uiso   1.00
Cl492  Cl    0.72951   0.55841   0.44284   0.00000  Uiso   1.00
Cl493  Cl    0.75687   0.44767   0.32329   0.00000  Uiso   1.00
Cl494  Cl    0.90850   0.55228   0.17593   0.00000  Uiso   1.00
Cu495  Cu    0.71355   0.50001   0.25000   0.00000  Uiso   1.00
Cu496  Cu    0.95311   0.49999   0.25000   0.00000  Uiso   1.00
H497   H     0.77752   0.48118   0.11344   0.00000  Uiso   1.00
H498   H     0.74367   0.62996   0.23303   0.00000  Uiso   1.00
H499   H     0.88722   0.62344   0.22908   0.00000  Uiso   1.00
H500   H     0.86552   0.66405   0.26693   0.00000  Uiso   1.00
H501   H     0.81957   0.61497   0.32522   0.00000  Uiso   1.00
H502   H     0.80332   0.60976   0.27300   0.00000  Uiso   1.00
H503   H     0.84168   0.57256   0.29071   0.00000  Uiso   1.00
H504   H     0.74939   0.39523   0.16359   0.00000  Uiso   1.00
H505   H     0.78205   0.34807   0.16659   0.00000  Uiso   1.00
H506   H     0.84682   0.38870   0.18629   0.00000  Uiso   1.00
H507   H     0.83756   0.40561   0.13241   0.00000  Uiso   1.00
H508   H     0.88685   0.51367   0.38648   0.00000  Uiso   1.00
H509   H     0.81450   0.43532   0.18124   0.00000  Uiso   1.00
H510   H     0.86144   0.40538   0.29641   0.00000  Uiso   1.00
H511   H     0.82195   0.41140   0.35157   0.00000  Uiso   1.00
H512   H     0.88627   0.41844   0.38683   0.00000  Uiso   1.00
H513   H     0.89204   0.37163   0.35704   0.00000  Uiso   1.00
H514   H     0.93074   0.41551   0.33379   0.00000  Uiso   1.00
H515   H     0.82092   0.59364   0.19283   0.00000  Uiso   1.00
H516   H     0.76456   0.58283   0.18018   0.00000  Uiso   1.00
H517   H     0.80381   0.57511   0.10085   0.00000  Uiso   1.00
H518   H     0.81990   0.62410   0.11827   0.00000  Uiso   1.00
H519   H     0.97551   0.52570   0.10464   0.00000  Uiso   1.00
H520   H     0.86213   0.58285   0.11050   0.00000  Uiso   1.00
H521   H     0.69324   0.48067   0.39563   0.00000  Uiso   1.00
H522   H     0.99744   0.46822   0.47634   0.00000  Uiso   1.00
H523   H     0.67257   0.54076   0.02463   0.00000  Uiso   1.00
H524   H     0.84715   0.47138   0.08280   0.00000  Uiso   1.00
H525   H     0.82406   0.53903   0.41969   0.00000  Uiso   1.00
H526   H     0.92473   0.37056   0.27006   0.00000  Uiso   1.00
N527   N     0.78403   0.50001   0.24999   0.00000  Uiso   1.00
N528   N     0.88264   0.49999   0.25001   0.00000  Uiso   1.00
O529   O     0.70625   0.43989   0.25000   0.00000  Uiso   1.00
O530   O     0.75511   0.37553   0.22763   0.00000  Uiso   1.00
O531   O     0.86078   0.46416   0.32230   0.00000  Uiso   1.00
O532   O     0.80791   0.53282   0.17599   0.00000  Uiso   1.00
O533   O     0.96042   0.56011   0.25000   0.00000  Uiso   1.00
O534   O     0.96039   0.43988   0.25001   0.00000  Uiso   1.00
O535   O     0.70628   0.56012   0.25000   0.00000  Uiso   1.00
O536   O     0.68519   0.50001   0.31492   0.00000  Uiso   1.00
O537   O     0.98148   0.49999   0.18509   0.00000  Uiso   1.00
O538   O     0.93933   0.50000   0.31492   0.00000  Uiso   1.00
O539   O     0.72733   0.50000   0.18508   0.00000  Uiso   1.00
O540   O     0.91377   0.62342   0.28585   0.00000  Uiso   1.00
C541   C     0.00034   0.75419   0.24896   0.00000  Uiso   1.00
C542   C     0.04455   0.68831   0.23727   0.00000  Uiso   1.00
C543   C     0.33284   0.95711   0.25178   0.00000  Uiso   1.00
C544   C     0.00102   0.70948   0.24800   0.00000  Uiso   1.00
C545   C     0.18180   0.81194   0.28366   0.00000  Uiso   1.00
C546   C     0.15177   0.85401   0.21604   0.00000  Uiso   1.00
C547   C     0.13237   0.81155   0.28288   0.00000  Uiso   1.00
C548   C     0.20084   0.85471   0.21697   0.00000  Uiso   1.00
C549   C     0.30621   0.83313   0.33615   0.00000  Uiso   1.00
C550   C     0.02715   0.83368   0.16386   0.00000  Uiso   1.00
C551   C     0.29112   0.83110   0.38581   0.00000  Uiso   1.00
C552   C     0.33310   0.91245   0.25114   0.00000  Uiso   1.00
C553   C     0.04255   0.83700   0.11425   0.00000  Uiso   1.00
C554   C     0.30553   0.81205   0.45796   0.00000  Uiso   1.00
C555   C     0.03035   0.86141   0.04278   0.00000  Uiso   1.00
C556   C     0.32254   0.81919   0.41146   0.00000  Uiso   1.00
C557   C     0.01250   0.85259   0.08889   0.00000  Uiso   1.00
C558   C     0.24328   0.83866   0.40758   0.00000  Uiso   1.00
C559   C     0.08994   0.82796   0.09253   0.00000  Uiso   1.00
C560   C     0.22537   0.83330   0.45477   0.00000  Uiso   1.00
C561   C     0.10956   0.83731   0.04601   0.00000  Uiso   1.00
C562   C     0.25687   0.81778   0.47990   0.00000  Uiso   1.00
C563   C     0.19099   0.81369   0.04745   0.00000  Uiso   1.00
C564   C     0.07891   0.85499   0.02107   0.00000  Uiso   1.00
C565   C     0.17663   0.84131   0.47715   0.00000  Uiso   1.00
C566   C     0.15883   0.83057   0.02404   0.00000  Uiso   1.00
C567   C     0.20975   0.96480   0.26501   0.00000  Uiso   1.00
C568   C     0.16586   0.93886   0.28995   0.00000  Uiso   1.00
C569   C     0.10772   0.71230   0.18039   0.00000  Uiso   1.00
C570   C     0.15461   0.73706   0.16944   0.00000  Uiso   1.00
C571   C     0.19048   0.75418   0.32856   0.00000  Uiso   1.00
C572   C     0.22727   0.73905   0.35289   0.00000  Uiso   1.00
C573   C     0.13648   0.90916   0.17153   0.00000  Uiso   1.00
C574   C     0.14546   0.86051   0.45419   0.00000  Uiso   1.00
C575   C     0.15693   0.92366   0.12225   0.00000  Uiso   1.00
C576   C     0.23892   0.80755   0.02611   0.00000  Uiso   1.00
C577   C     0.09756   0.86686   0.47532   0.00000  Uiso   1.00
C578   C     0.29076   0.68754   0.26029   0.00000  Uiso   1.00
C579   C     0.04332   0.97901   0.23990   0.00000  Uiso   1.00
C580   C     0.28917   0.97805   0.26333   0.00000  Uiso   1.00
Cl581  Cl    0.27431   0.78405   0.05878   0.00000  Uiso   1.00
Cl582  Cl    0.06284   0.89174   0.44284   0.00000  Uiso   1.00
Cl583  Cl    0.09020   0.78100   0.32329   0.00000  Uiso   1.00
Cl584  Cl    0.24184   0.88561   0.17593   0.00000  Uiso   1.00
Cu585  Cu    0.04689   0.83334   0.25000   0.00000  Uiso   1.00
Cu586  Cu    0.28645   0.83333   0.25000   0.00000  Uiso   1.00
H587   H     0.11086   0.81452   0.11344   0.00000  Uiso   1.00
H588   H     0.07700   0.96329   0.23303   0.00000  Uiso   1.00
H589   H     0.22056   0.95678   0.22908   0.00000  Uiso   1.00
H590   H     0.19886   0.99739   0.26693   0.00000  Uiso   1.00
H591   H     0.15290   0.94831   0.32522   0.00000  Uiso   1.00
H592   H     0.13665   0.94309   0.27300   0.00000  Uiso   1.00
H593   H     0.17501   0.90589   0.29071   0.00000  Uiso   1.00
H594   H     0.08273   0.72856   0.16359   0.00000  Uiso   1.00
H595   H     0.11538   0.68141   0.16659   0.00000  Uiso   1.00
H596   H     0.18015   0.72203   0.18629   0.00000  Uiso   1.00
H597   H     0.17089   0.73894   0.13241   0.00000  Uiso   1.00
H598   H     0.22018   0.84700   0.38648   0.00000  Uiso   1.00
H599   H     0.14784   0.76865   0.18124   0.00000  Uiso   1.00
H600   H     0.19477   0.73871   0.29641   0.00000  Uiso   1.00
H601   H     0.15528   0.74473   0.35157   0.00000  Uiso   1.00
H602   H     0.21960   0.75177   0.38683   0.00000  Uiso   1.00
H603   H     0.22538   0.70497   0.35704   0.00000  Uiso   1.00
H604   H     0.26407   0.74884   0.33379   0.00000  Uiso   1.00
H605   H     0.15426   0.92698   0.19283   0.00000  Uiso   1.00
H606   H     0.09789   0.91616   0.18018   0.00000  Uiso   1.00
H607   H     0.13714   0.90845   0.10085   0.00000  Uiso   1.00
H608   H     0.15323   0.95743   0.11827   0.00000  Uiso   1.00
H609   H     0.30885   0.85903   0.10464   0.00000  Uiso   1.00
H610   H     0.19546   0.91618   0.11050   0.00000  Uiso   1.00
H611   H     0.02658   0.81400   0.39563   0.00000  Uiso   1.00
H612   H     0.33078   0.80155   0.47634   0.00000  Uiso   1.00
H613   H     0.00591   0.87409   0.02463   0.00000  Uiso   1.00
H614   H     0.18048   0.80471   0.08280   0.00000  Uiso   1.00
H615   H     0.15739   0.87237   0.41969   0.00000  Uiso   1.00
H616   H     0.25806   0.70390   0.27006   0.00000  Uiso   1.00
N617   N     0.11736   0.83334   0.24999   0.00000  Uiso   1.00
N618   N     0.21597   0.83332   0.25001   0.00000  Uiso   1.00
O619   O     0.03958   0.77322   0.25000   0.00000  Uiso   1.00
O620   O     0.08844   0.70887   0.22763   0.00000  Uiso   1.00
O621   O     0.19412   0.79749   0.32230   0.00000  Uiso   1.00
O622   O     0.14124   0.86615   0.17599   0.00000  Uiso   1.00
O623   O     0.29375   0.89345   0.25000   0.00000  Uiso   1.00
O624   O     0.29372   0.77321   0.25001   0.00000  Uiso   1.00
O625   O     0.03961   0.89346   0.25000   0.00000  Uiso   1.00
O626   O     0.01852   0.83334   0.31492   0.00000  Uiso   1.00
O627   O     0.31481   0.83332   0.18509   0.00000  Uiso   1.00
O628   O     0.27267   0.83333   0.31492   0.00000  Uiso   1.00
O629   O     0.06067   0.83333   0.18508   0.00000  Uiso   1.00
O630   O     0.24710   0.95675   0.28585   0.00000  Uiso   1.00
C631   C     0.33367   0.75419   0.24896   0.00000  Uiso   1.00
C632   C     0.37789   0.68831   0.23727   0.00000  Uiso   1.00
C633   C     0.66617   0.95711   0.25178   0.00000  Uiso   1.00
C634   C     0.33436   0.70948   0.24800   0.00000  Uiso   1.00
C635   C     0.51513   0.81194   0.28366   0.00000  Uiso   1.00
C636   C     0.48510   0.85401   0.21604   0.00000  Uiso   1.00
C637   C     0.46571   0.81155   0.28288   0.00000  Uiso   1.00
C638   C     0.53417   0.85471   0.21697   0.00000  Uiso   1.00
C639   C     0.63955   0.83313   0.33615   0.00000  Uiso   1.00
C640   C     0.36049   0.83368   0.16386   0.00000  Uiso   1.00
C641   C     0.62445   0.83110   0.38581   0.00000  Uiso   1.00
C642   C     0.66643   0.91245   0.25114   0.00000  Uiso   1.00
C643   C     0.37588   0.83700   0.11425   0.00000  Uiso   1.00
C644   C     0.63887   0.81205   0.45796   0.00000  Uiso   1.00
C645   C     0.36368   0.86141   0.04278   0.00000  Uiso   1.00
C646   C     0.65588   0.81919   0.41146   0.00000  Uiso   1.00
C647   C     0.34583   0.85259   0.08889   0.00000  Uiso   1.00
C648   C     0.57661   0.83866   0.40758   0.00000  Uiso   1.00
C649   C     0.42327   0.82796   0.09253   0.00000  Uiso   1.00
C650   C     0.55871   0.83330   0.45477   0.00000  Uiso   1.00
C651   C     0.44289   0.83731   0.04601   0.00000  Uiso   1.00
C652   C     0.59020   0.81778   0.47990   0.00000  Uiso   1.00
C653   C     0.52432   0.81369   0.04745   0.00000  Uiso   1.00
C654   C     0.41224   0.85499   0.02107   0.00000  Uiso   1.00
C655   C     0.50996   0.84131   0.47715   0.00000  Uiso   1.00
C656   C     0.49217   0.83057   0.02404   0.00000  Uiso   1.00
C657   C     0.54308   0.96480   0.26501   0.00000  Uiso   1.00
C658   C     0.49919   0.93886   0.28995   0.00000  Uiso   1.00
C659   C     0.44106   0.71230   0.18039   0.00000  Uiso   1.00
C660   C     0.48795   0.73706   0.16944   0.00000  Uiso   1.00
C661   C     0.52381   0.75418   0.32856   0.00000  Uiso   1.00
C662   C     0.56060   0.73905   0.35289   0.00000  Uiso   1.00
C663   C     0.46981   0.90916   0.17153   0.00000  Uiso   1.00
C664   C     0.47879   0.86051   0.45419   0.00000  Uiso   1.00
C665   C     0.49026   0.92366   0.12225   0.00000  Uiso   1.00
C666   C     0.57225   0.80755   0.02611   0.00000  Uiso   1.00
C667   C     0.43090   0.86686   0.47532   0.00000  Uiso   1.00
C668   C     0.62410   0.68754   0.26029   0.00000  Uiso   1.00
C669   C     0.37665   0.97901   0.23990   0.00000  Uiso   1.00
C670   C     0.62250   0.97805   0.26333   0.00000  Uiso   1.00
Cl671  Cl    0.60764   0.78405   0.05878   0.00000  Uiso   1.00
Cl672  Cl    0.39618   0.89174   0.44284   0.00000  Uiso   1.00
Cl673  Cl    0.42354   0.78100   0.32329   0.00000  Uiso   1.00
Cl674  Cl    0.57517   0.88561   0.17593   0.00000  Uiso   1.00
Cu675  Cu    0.38022   0.83334   0.25000   0.00000  Uiso   1.00
Cu676  Cu    0.61978   0.83333   0.25000   0.00000  Uiso   1.00
H677   H     0.44419   0.81452   0.11344   0.00000  Uiso   1.00
H678   H     0.41033   0.96329   0.23303   0.00000  Uiso   1.00
H679   H     0.55389   0.95678   0.22908   0.00000  Uiso   1.00
H680   H     0.53219   0.99739   0.26693   0.00000  Uiso   1.00
H681   H     0.48623   0.94831   0.32522   0.00000  Uiso   1.00
H682   H     0.46999   0.94309   0.27300   0.00000  Uiso   1.00
H683   H     0.50835   0.90589   0.29071   0.00000  Uiso   1.00
H684   H     0.41606   0.72856   0.16359   0.00000  Uiso   1.00
H685   H     0.44872   0.68141   0.16659   0.00000  Uiso   1.00
H686   H     0.51348   0.72203   0.18629   0.00000  Uiso   1.00
H687   H     0.50422   0.73894   0.13241   0.00000  Uiso   1.00
H688   H     0.55352   0.84700   0.38648   0.00000  Uiso   1.00
H689   H     0.48117   0.76865   0.18124   0.00000  Uiso   1.00
H690   H     0.52811   0.73871   0.29641   0.00000  Uiso   1.00
H691   H     0.48861   0.74473   0.35157   0.00000  Uiso   1.00
H692   H     0.55293   0.75177   0.38683   0.00000  Uiso   1.00
H693   H     0.55871   0.70497   0.35704   0.00000  Uiso   1.00
H694   H     0.59740   0.74884   0.33379   0.00000  Uiso   1.00
H695   H     0.48759   0.92698   0.19283   0.00000  Uiso   1.00
H696   H     0.43122   0.91616   0.18018   0.00000  Uiso   1.00
H697   H     0.47047   0.90845   0.10085   0.00000  Uiso   1.00
H698   H     0.48657   0.95743   0.11827   0.00000  Uiso   1.00
H699   H     0.64218   0.85903   0.10464   0.00000  Uiso   1.00
H700   H     0.52879   0.91618   0.11050   0.00000  Uiso   1.00
H701   H     0.35991   0.81400   0.39563   0.00000  Uiso   1.00
H702   H     0.66411   0.80155   0.47634   0.00000  Uiso   1.00
H703   H     0.33924   0.87409   0.02463   0.00000  Uiso   1.00
H704   H     0.51381   0.80471   0.08280   0.00000  Uiso   1.00
H705   H     0.49073   0.87237   0.41969   0.00000  Uiso   1.00
H706   H     0.59140   0.70390   0.27006   0.00000  Uiso   1.00
N707   N     0.45069   0.83334   0.24999   0.00000  Uiso   1.00
N708   N     0.54931   0.83332   0.25001   0.00000  Uiso   1.00
O709   O     0.37291   0.77322   0.25000   0.00000  Uiso   1.00
O710   O     0.42178   0.70887   0.22763   0.00000  Uiso   1.00
O711   O     0.52745   0.79749   0.32230   0.00000  Uiso   1.00
O712   O     0.47457   0.86615   0.17599   0.00000  Uiso   1.00
O713   O     0.62709   0.89345   0.25000   0.00000  Uiso   1.00
O714   O     0.62706   0.77321   0.25001   0.00000  Uiso   1.00
O715   O     0.37294   0.89346   0.25000   0.00000  Uiso   1.00
O716   O     0.35186   0.83334   0.31492   0.00000  Uiso   1.00
O717   O     0.64814   0.83332   0.18509   0.00000  Uiso   1.00
O718   O     0.60600   0.83333   0.31492   0.00000  Uiso   1.00
O719   O     0.39400   0.83333   0.18508   0.00000  Uiso   1.00
O720   O     0.58044   0.95675   0.28585   0.00000  Uiso   1.00
C721   C     0.66700   0.75419   0.24896   0.00000  Uiso   1.00
C722   C     0.71122   0.68831   0.23727   0.00000  Uiso   1.00
C723   C     0.99950   0.95711   0.25178   0.00000  Uiso   1.00
C724   C     0.66769   0.70948   0.24800   0.00000  Uiso   1.00
C725   C     0.84847   0.81194   0.28366   0.00000  Uiso   1.00
C726   C     0.81843   0.85401   0.21604   0.00000  Uiso   1.00
C727   C     0.79904   0.81155   0.28288   0.00000  Uiso   1.00
C728   C     0.86750   0.85471   0.21697   0.00000  Uiso   1.00
C729   C     0.97288   0.83313   0.33615   0.00000  Uiso   1.00
C730   C     0.69382   0.83368   0.16386   0.00000  Uiso   1.00
C731   C     0.95779   0.83110   0.38581   0.00000  Uiso   1.00
C732   C     0.99976   0.91245   0.25114   0.00000  Uiso   1.00
C733   C     0.70922   0.83700   0.11425   0.00000  Uiso   1.00
C734   C     0.97220   0.81205   0.45796   0.00000  Uiso   1.00
C735   C     0.69702   0.86141   0.04278   0.00000  Uiso   1.00
C736   C     0.98921   0.81919   0.41146   0.00000  Uiso   1.00
C737   C     0.67917   0.85259   0.08889   0.00000  Uiso   1.00
C738   C     0.90995   0.83866   0.40758   0.00000  Uiso   1.00
C739   C     0.75661   0.82796   0.09253   0.00000  Uiso   1.00
C740   C     0.89204   0.83330   0.45477   0.00000  Uiso   1.00
C741   C     0.77622   0.83731   0.04601   0.00000  Uiso   1.00
C742   C     0.92353   0.81778   0.47990   0.00000  Uiso   1.00
C743   C     0.85765   0.81369   0.04745   0.00000  Uiso   1.00
C744   C     0.74558   0.85499   0.02107   0.00000  Uiso   1.00
C745   C     0.84329   0.84131   0.47715   0.00000  Uiso   1.00
C746   C     0.82550   0.83057   0.02404   0.00000  Uiso   1.00
C747   C     0.87642   0.96480   0.26501   0.00000  Uiso   1.00
C748   C     0.83252   0.93886   0.28995   0.00000  Uiso   1.00
C749   C     0.77439   0.71230   0.18039   0.00000  Uiso   1.00
C750   C     0.82128   0.73706   0.16944   0.00000  Uiso   1.00
C751   C     0.85715   0.75418   0.32856   0.00000  Uiso   1.00
C752   C     0.89393   0.73905   0.35289   0.00000  Uiso   1.00
C753   C     0.80315   0.90916   0.17153   0.00000  Uiso   1.00
C754   C     0.81213   0.86051   0.45419   0.00000  Uiso   1.00
C755   C     0.82360   0.92366   0.12225   0.00000  Uiso   1.00
C756   C     0.90559   0.80755   0.02611   0.00000  Uiso   1.00
C757   C     0.76423   0.86686   0.47532   0.00000  Uiso   1.00
C758   C     0.95743   0.68754   0.26029   0.00000  Uiso   1.00
C759   C     0.70998   0.97901   0.23990   0.00000  Uiso   1.00
C760   C     0.95583   0.97805   0.26333   0.00000  Uiso   1.00
Cl761  Cl    0.94097   0.78405   0.05878   0.00000  Uiso   1.00
Cl762  Cl    0.72951   0.89174   0.44284   0.00000  Uiso   1.00
Cl763  Cl    0.75687   0.78100   0.32329   0.00000  Uiso   1.00
Cl764  Cl    0.90850   0.88561   0.17593   0.00000  Uiso   1.00
Cu765  Cu    0.71355   0.83334   0.25000   0.00000  Uiso   1.00
Cu766  Cu    0.95311   0.83333   0.25000   0.00000  Uiso   1.00
H767   H     0.77752   0.81452   0.11344   0.00000  Uiso   1.00
H768   H     0.74367   0.96329   0.23303   0.00000  Uiso   1.00
H769   H     0.88722   0.95678   0.22908   0.00000  Uiso   1.00
H770   H     0.86552   0.99739   0.26693   0.00000  Uiso   1.00
H771   H     0.81957   0.94831   0.32522   0.00000  Uiso   1.00
H772   H     0.80332   0.94309   0.27300   0.00000  Uiso   1.00
H773   H     0.84168   0.90589   0.29071   0.00000  Uiso   1.00
H774   H     0.74939   0.72856   0.16359   0.00000  Uiso   1.00
H775   H     0.78205   0.68141   0.16659   0.00000  Uiso   1.00
H776   H     0.84682   0.72203   0.18629   0.00000  Uiso   1.00
H777   H     0.83756   0.73894   0.13241   0.00000  Uiso   1.00
H778   H     0.88685   0.84700   0.38648   0.00000  Uiso   1.00
H779   H     0.81450   0.76865   0.18124   0.00000  Uiso   1.00
H780   H     0.86144   0.73871   0.29641   0.00000  Uiso   1.00
H781   H     0.82195   0.74473   0.35157   0.00000  Uiso   1.00
H782   H     0.88627   0.75177   0.38683   0.00000  Uiso   1.00
H783   H     0.89204   0.70497   0.35704   0.00000  Uiso   1.00
H784   H     0.93074   0.74884   0.33379   0.00000  Uiso   1.00
H785   H     0.82092   0.92698   0.19283   0.00000  Uiso   1.00
H786   H     0.76456   0.91616   0.18018   0.00000  Uiso   1.00
H787   H     0.80381   0.90845   0.10085   0.00000  Uiso   1.00
H788   H     0.81990   0.95743   0.11827   0.00000  Uiso   1.00
H789   H     0.97551   0.85903   0.10464   0.00000  Uiso   1.00
H790   H     0.86213   0.91618   0.11050   0.00000  Uiso   1.00
H791   H     0.69324   0.81400   0.39563   0.00000  Uiso   1.00
H792   H     0.99744   0.80155   0.47634   0.00000  Uiso   1.00
H793   H     0.67257   0.87409   0.02463   0.00000  Uiso   1.00
H794   H     0.84715   0.80471   0.08280   0.00000  Uiso   1.00
H795   H     0.82406   0.87237   0.41969   0.00000  Uiso   1.00
H796   H     0.92473   0.70390   0.27006   0.00000  Uiso   1.00
N797   N     0.78403   0.83334   0.24999   0.00000  Uiso   1.00
N798   N     0.88264   0.83332   0.25001   0.00000  Uiso   1.00
O799   O     0.70625   0.77322   0.25000   0.00000  Uiso   1.00
O800   O     0.75511   0.70887   0.22763   0.00000  Uiso   1.00
O801   O     0.86078   0.79749   0.32230   0.00000  Uiso   1.00
O802   O     0.80791   0.86615   0.17599   0.00000  Uiso   1.00
O803   O     0.96042   0.89345   0.25000   0.00000  Uiso   1.00
O804   O     0.96039   0.77321   0.25001   0.00000  Uiso   1.00
O805   O     0.70628   0.89346   0.25000   0.00000  Uiso   1.00
O806   O     0.68519   0.83334   0.31492   0.00000  Uiso   1.00
O807   O     0.98148   0.83332   0.18509   0.00000  Uiso   1.00
O808   O     0.93933   0.83333   0.31492   0.00000  Uiso   1.00
O809   O     0.72733   0.83333   0.18508   0.00000  Uiso   1.00
O810   O     0.91377   0.95675   0.28585   0.00000  Uiso   1.00
C811   C     0.00034   0.08752   0.74896   0.00000  Uiso   1.00
C812   C     0.04455   0.02165   0.73727   0.00000  Uiso   1.00
C813   C     0.33284   0.29044   0.75178   0.00000  Uiso   1.00
C814   C     0.00102   0.04282   0.74800   0.00000  Uiso   1.00
C815   C     0.18180   0.14527   0.78366   0.00000  Uiso   1.00
C816   C     0.15177   0.18734   0.71604   0.00000  Uiso   1.00
C817   C     0.13237   0.14489   0.78288   0.00000  Uiso   1.00
C818   C     0.20084   0.18805   0.71697   0.00000  Uiso   1.00
C819   C     0.30621   0.16647   0.83615   0.00000  Uiso   1.00
C820   C     0.02715   0.16702   0.66386   0.00000  Uiso   1.00
C821   C     0.29112   0.16443   0.88581   0.00000  Uiso   1.00
C822   C     0.33310   0.24578   0.75114   0.00000  Uiso   1.00
C823   C     0.04255   0.17033   0.61425   0.00000  Uiso   1.00
C824   C     0.30553   0.14539   0.95796   0.00000  Uiso   1.00
C825   C     0.03035   0.19474   0.54278   0.00000  Uiso   1.00
C826   C     0.32254   0.15253   0.91146   0.00000  Uiso   1.00
C827   C     0.01250   0.18592   0.58889   0.00000  Uiso   1.00
C828   C     0.24328   0.17199   0.90758   0.00000  Uiso   1.00
C829   C     0.08994   0.16129   0.59253   0.00000  Uiso   1.00
C830   C     0.22537   0.16664   0.95477   0.00000  Uiso   1.00
C831   C     0.10956   0.17064   0.54601   0.00000  Uiso   1.00
C832   C     0.25687   0.15112   0.97990   0.00000  Uiso   1.00
C833   C     0.19099   0.14703   0.54745   0.00000  Uiso   1.00
C834   C     0.07891   0.18833   0.52107   0.00000  Uiso   1.00
C835   C     0.17663   0.17465   0.97715   0.00000  Uiso   1.00
C836   C     0.15883   0.16391   0.52404   0.00000  Uiso   1.00
C837   C     0.20975   0.29813   0.76501   0.00000  Uiso   1.00
C838   C     0.16586   0.27219   0.78995   0.00000  Uiso   1.00
C839   C     0.10772   0.04564   0.68039   0.00000  Uiso   1.00
C840   C     0.15461   0.07039   0.66944   0.00000  Uiso   1.00
C841   C     0.19048   0.08752   0.82856   0.00000  Uiso   1.00
C842   C     0.22727   0.07238   0.85289   0.00000  Uiso   1.00
C843   C     0.13648   0.24249   0.67153   0.00000  Uiso   1.00
C844   C     0.14546   0.19385   0.95419   0.00000  Uiso   1.00
C845   C     0.15693   0.25699   0.62225   0.00000  Uiso   1.00
C846   C     0.23892   0.14088   0.52611   0.00000  Uiso   1.00
C847   C     0.09756   0.20019   0.97532   0.00000  Uiso   1.00
C848   C     0.29076   0.02088   0.76029   0.00000  Uiso   1.00
C849   C     0.04332   0.31234   0.73990   0.00000  Uiso   1.00
C850   C     0.28917   0.31138   0.76333   0.00000  Uiso   1.00
Cl851  Cl    0.27431   0.11739   0.55878   0.00000  Uiso   1.00
Cl852  Cl    0.06284   0.22507   0.94284   0.00000  Uiso   1.00
Cl853  Cl    0.09020   0.11433   0.82329   0.00000  Uiso   1.00
Cl854  Cl    0.24184   0.21894   0.67593   0.00000  Uiso   1.00
Cu855  Cu    0.04689   0.16667   0.75000   0.00000  Uiso   1.00
Cu856  Cu    0.28645   0.16666   0.75000   0.00000  Uiso   1.00
H857   H     0.11086   0.14785   0.61344   0.00000  Uiso   1.00
H858   H     0.07700   0.29663   0.73303   0.00000  Uiso   1.00
H859   H     0.22056   0.29011   0.72908   0.00000  Uiso   1.00
H860   H     0.19886   0.33072   0.76693   0.00000  Uiso   1.00
H861   H     0.15290   0.28164   0.82522   0.00000  Uiso   1.00
H862   H     0.13665   0.27643   0.77300   0.00000  Uiso   1.00
H863   H     0.17501   0.23923   0.79071   0.00000  Uiso   1.00
H864   H     0.08273   0.06189   0.66359   0.00000  Uiso   1.00
H865   H     0.11538   0.01474   0.66659   0.00000  Uiso   1.00
H866   H     0.18015   0.05536   0.68629   0.00000  Uiso   1.00
H867   H     0.17089   0.07228   0.63241   0.00000  Uiso   1.00
H868   H     0.22018   0.18034   0.88648   0.00000  Uiso   1.00
H869   H     0.14784   0.10198   0.68124   0.00000  Uiso   1.00
H870   H     0.19477   0.07205   0.79641   0.00000  Uiso   1.00
H871   H     0.15528   0.07806   0.85157   0.00000  Uiso   1.00
H872   H     0.21960   0.08511   0.88683   0.00000  Uiso   1.00
H873   H     0.22538   0.03830   0.85704   0.00000  Uiso   1.00
H874   H     0.26407   0.08217   0.83379   0.00000  Uiso   1.00
H875   H     0.15426   0.26031   0.69283   0.00000  Uiso   1.00
H876   H     0.09789   0.24950   0.68018   0.00000  Uiso   1.00
H877   H     0.13714   0.24178   0.60085   0.00000  Uiso   1.00
H878   H     0.15323   0.29077   0.61827   0.00000  Uiso   1.00
H879   H     0.30885   0.19237   0.60464   0.00000  Uiso   1.00
H880   H     0.19546   0.24951   0.61050   0.00000  Uiso   1.00
H881   H     0.02658   0.14734   0.89563   0.00000  Uiso   1.00
H882   H     0.33078   0.13488   0.97634   0.00000  Uiso   1.00
H883   H     0.00591   0.20742   0.52463   0.00000  Uiso   1.00
H884   H     0.18048   0.13804   0.58280   0.00000  Uiso   1.00
H885   H     0.15739   0.20570   0.91969   0.00000  Uiso   1.00
H886   H     0.25806   0.03723   0.77006   0.00000  Uiso   1.00
N887   N     0.11736   0.16668   0.74999   0.00000  Uiso   1.00
N888   N     0.21597   0.16666   0.75001   0.00000  Uiso   1.00
O889   O     0.03958   0.10655   0.75000   0.00000  Uiso   1.00
O890   O     0.08844   0.04220   0.72763   0.00000  Uiso   1.00
O891   O     0.19412   0.13083   0.82230   0.00000  Uiso   1.00
O892   O     0.14124   0.19948   0.67599   0.00000  Uiso   1.00
O893   O     0.29375   0.22678   0.75000   0.00000  Uiso   1.00
O894   O     0.29372   0.10654   0.75001   0.00000  Uiso   1.00
O895   O     0.03961   0.22679   0.75000   0.00000  Uiso   1.00
O896   O     0.01852   0.16668   0.81492   0.00000  Uiso   1.00
O897   O     0.31481   0.16666   0.68509   0.00000  Uiso   1.00
O898   O     0.27267   0.16667   0.81492   0.00000  Uiso   1.00
O899   O     0.06067   0.16667   0.68508   0.00000  Uiso   1.00
O900   O     0.24710   0.29008   0.78585   0.00000  Uiso   1.00
C901   C     0.33367   0.08752   0.74896   0.00000  Uiso   1.00
C902   C     0.37789   0.02165   0.73727   0.00000  Uiso   1.00
C903   C     0.66617   0.29044   0.75178   0.00000  Uiso   1.00
C904   C     0.33436   0.04282   0.74800   0.00000  Uiso   1.00
C905   C     0.51513   0.14527   0.78366   0.00000  Uiso   1.00
C906   C     0.48510   0.18734   0.71604   0.00000  Uiso   1.00
C907   C     0.46571   0.14489   0.78288   0.00000  Uiso   1.00
C908   C     0.53417   0.18805   0.71697   0.00000  Uiso   1.00
C909   C     0.63955   0.16647   0.83615   0.00000  Uiso   1.00
C910   C     0.36049   0.16702   0.66386   0.00000  Uiso   1.00
C911   C     0.62445   0.16443   0.88581   0.00000  Uiso   1.00
C912   C     0.66643   0.24578   0.75114   0.00000  Uiso   1.00
C913   C     0.37588   0.17033   0.61425   0.00000  Uiso   1.00
C914   C     0.63887   0.14539   0.95796   0.00000  Uiso   1.00
C915   C     0.36368   0.19474   0.54278   0.00000  Uiso   1.00
C916   C     0.65588   0.15253   0.91146   0.00000  Uiso   1.00
C917   C     0.34583   0.18592   0.58889   0.00000  Uiso   1.00
C918   C     0.57661   0.17199   0.90758   0.00000  Uiso   1.00
C919   C     0.42327   0.16129   0.59253   0.00000  Uiso   1.00
C920   C     0.55871   0.16664   0.95477   0.00000  Uiso   1.00
C921   C     0.44289   0.17064   0.54601   0.00000  Uiso   1.00
C922   C     0.59020   0.15112   0.97990   0.00000  Uiso   1.00
C923   C     0.52432   0.14703   0.54745   0.00000  Uiso   1.00
C924   C     0.41224   0.18833   0.52107   0.00000  Uiso   1.00
C925   C     0.50996   0.17465   0.97715   0.00000  Uiso   1.00
C926   C     0.49217   0.16391   0.52404   0.00000  Uiso   1.00
C927   C     0.54308   0.29813   0.76501   0.00000  Uiso   1.00
C928   C     0.49919   0.27219   0.78995   0.00000  Uiso   1.00
C929   C     0.44106   0.04564   0.68039   0.00000  Uiso   1.00
C930   C     0.48795   0.07039   0.66944   0.00000  Uiso   1.00
C931   C     0.52381   0.08752   0.82856   0.00000  Uiso   1.00
C932   C     0.56060   0.07238   0.85289   0.00000  Uiso   1.00
C933   C     0.46981   0.24249   0.67153   0.00000  Uiso   1.00
C934   C     0.47879   0.19385   0.95419   0.00000  Uiso   1.00
C935   C     0.49026   0.25699   0.62225   0.00000  Uiso   1.00
C936   C     0.57225   0.14088   0.52611   0.00000  Uiso   1.00
C937   C     0.43090   0.20019   0.97532   0.00000  Uiso   1.00
C938   C     0.62410   0.02088   0.76029   0.00000  Uiso   1.00
C939   C     0.37665   0.31234   0.73990   0.00000  Uiso   1.00
C940   C     0.62250   0.31138   0.76333   0.00000  Uiso   1.00
Cl941  Cl    0.60764   0.11739   0.55878   0.00000  Uiso   1.00
Cl942  Cl    0.39618   0.22507   0.94284   0.00000  Uiso   1.00
Cl943  Cl    0.42354   0.11433   0.82329   0.00000  Uiso   1.00
Cl944  Cl    0.57517   0.21894   0.67593   0.00000  Uiso   1.00
Cu945  Cu    0.38022   0.16667   0.75000   0.00000  Uiso   1.00
Cu946  Cu    0.61978   0.16666   0.75000   0.00000  Uiso   1.00
H947   H     0.44419   0.14785   0.61344   0.00000  Uiso   1.00
H948   H     0.41033   0.29663   0.73303   0.00000  Uiso   1.00
H949   H     0.55389   0.29011   0.72908   0.00000  Uiso   1.00
H950   H     0.53219   0.33072   0.76693   0.00000  Uiso   1.00
H951   H     0.48623   0.28164   0.82522   0.00000  Uiso   1.00
H952   H     0.46999   0.27643   0.77300   0.00000  Uiso   1.00
H953   H     0.50835   0.23923   0.79071   0.00000  Uiso   1.00
H954   H     0.41606   0.06189   0.66359   0.00000  Uiso   1.00
H955   H     0.44872   0.01474   0.66659   0.00000  Uiso   1.00
H956   H     0.51348   0.05536   0.68629   0.00000  Uiso   1.00
H957   H     0.50422   0.07228   0.63241   0.00000  Uiso   1.00
H958   H     0.55352   0.18034   0.88648   0.00000  Uiso   1.00
H959   H     0.48117   0.10198   0.68124   0.00000  Uiso   1.00
H960   H     0.52811   0.07205   0.79641   0.00000  Uiso   1.00
H961   H     0.48861   0.07806   0.85157   0.00000  Uiso   1.00
H962   H     0.55293   0.08511   0.88683   0.00000  Uiso   1.00
H963   H     0.55871   0.03830   0.85704   0.00000  Uiso   1.00
H964   H     0.59740   0.08217   0.83379   0.00000  Uiso   1.00
H965   H     0.48759   0.26031   0.69283   0.00000  Uiso   1.00
H966   H     0.43122   0.24950   0.68018   0.00000  Uiso   1.00
H967   H     0.47047   0.24178   0.60085   0.00000  Uiso   1.00
H968   H     0.48657   0.29077   0.61827   0.00000  Uiso   1.00
H969   H     0.64218   0.19237   0.60464   0.00000  Uiso   1.00
H970   H     0.52879   0.24951   0.61050   0.00000  Uiso   1.00
H971   H     0.35991   0.14734   0.89563   0.00000  Uiso   1.00
H972   H     0.66411   0.13488   0.97634   0.00000  Uiso   1.00
H973   H     0.33924   0.20742   0.52463   0.00000  Uiso   1.00
H974   H     0.51381   0.13804   0.58280   0.00000  Uiso   1.00
H975   H     0.49073   0.20570   0.91969   0.00000  Uiso   1.00
H976   H     0.59140   0.03723   0.77006   0.00000  Uiso   1.00
N977   N     0.45069   0.16668   0.74999   0.00000  Uiso   1.00
N978   N     0.54931   0.16666   0.75001   0.00000  Uiso   1.00
O979   O     0.37291   0.10655   0.75000   0.00000  Uiso   1.00
O980   O     0.42178   0.04220   0.72763   0.00000  Uiso   1.00
O981   O     0.52745   0.13083   0.82230   0.00000  Uiso   1.00
O982   O     0.47457   0.19948   0.67599   0.00000  Uiso   1.00
O983   O     0.62709   0.22678   0.75000   0.00000  Uiso   1.00
O984   O     0.62706   0.10654   0.75001   0.00000  Uiso   1.00
O985   O     0.37294   0.22679   0.75000   0.00000  Uiso   1.00
O986   O     0.35186   0.16668   0.81492   0.00000  Uiso   1.00
O987   O     0.64814   0.16666   0.68509   0.00000  Uiso   1.00
O988   O     0.60600   0.16667   0.81492   0.00000  Uiso   1.00
O989   O     0.39400   0.16667   0.68508   0.00000  Uiso   1.00
O990   O     0.58044   0.29008   0.78585   0.00000  Uiso   1.00
C991   C     0.66700   0.08752   0.74896   0.00000  Uiso   1.00
C992   C     0.71122   0.02165   0.73727   0.00000  Uiso   1.00
C993   C     0.99950   0.29044   0.75178   0.00000  Uiso   1.00
C994   C     0.66769   0.04282   0.74800   0.00000  Uiso   1.00
C995   C     0.84847   0.14527   0.78366   0.00000  Uiso   1.00
C996   C     0.81843   0.18734   0.71604   0.00000  Uiso   1.00
C997   C     0.79904   0.14489   0.78288   0.00000  Uiso   1.00
C998   C     0.86750   0.18805   0.71697   0.00000  Uiso   1.00
C999   C     0.97288   0.16647   0.83615   0.00000  Uiso   1.00
C1000  C     0.69382   0.16702   0.66386   0.00000  Uiso   1.00
C1001  C     0.95779   0.16443   0.88581   0.00000  Uiso   1.00
C1002  C     0.99976   0.24578   0.75114   0.00000  Uiso   1.00
C1003  C     0.70922   0.17033   0.61425   0.00000  Uiso   1.00
C1004  C     0.97220   0.14539   0.95796   0.00000  Uiso   1.00
C1005  C     0.69702   0.19474   0.54278   0.00000  Uiso   1.00
C1006  C     0.98921   0.15253   0.91146   0.00000  Uiso   1.00
C1007  C     0.67917   0.18592   0.58889   0.00000  Uiso   1.00
C1008  C     0.90995   0.17199   0.90758   0.00000  Uiso   1.00
C1009  C     0.75661   0.16129   0.59253   0.00000  Uiso   1.00
C1010  C     0.89204   0.16664   0.95477   0.00000  Uiso   1.00
C1011  C     0.77622   0.17064   0.54601   0.00000  Uiso   1.00
C1012  C     0.92353   0.15112   0.97990   0.00000  Uiso   1.00
C1013  C     0.85765   0.14703   0.54745   0.00000  Uiso   1.00
C1014  C     0.74558   0.18833   0.52107   0.00000  Uiso   1.00
C1015  C     0.84329   0.17465   0.97715   0.00000  Uiso   1.00
C1016  C     0.82550   0.16391   0.52404   0.00000  Uiso   1.00
C1017  C     0.87642   0.29813   0.76501   0.00000  Uiso   1.00
C1018  C     0.83252   0.27219   0.78995   0.00000  Uiso   1.00
C1019  C     0.77439   0.04564   0.68039   0.00000  Uiso   1.00
C1020  C     0.82128   0.07039   0.66944   0.00000  Uiso   1.00
C1021  C     0.85715   0.08752   0.82856   0.00000  Uiso   1.00
C1022  C     0.89393   0.07238   0.85289   0.00000  Uiso   1.00
C1023  C     0.80315   0.24249   0.67153   0.00000  Uiso   1.00
C1024  C     0.81213   0.19385   0.95419   0.00000  Uiso   1.00
C1025  C     0.82360   0.25699   0.62225   0.00000  Uiso   1.00
C1026  C     0.90559   0.14088   0.52611   0.00000  Uiso   1.00
C1027  C     0.76423   0.20019   0.97532   0.00000  Uiso   1.00
C1028  C     0.95743   0.02088   0.76029   0.00000  Uiso   1.00
C1029  C     0.70998   0.31234   0.73990   0.00000  Uiso   1.00
C1030  C     0.95583   0.31138   0.76333   0.00000  Uiso   1.00
Cl1031 Cl    0.94097   0.11739   0.55878   0.00000  Uiso   1.00
Cl1032 Cl    0.72951   0.22507   0.94284   0.00000  Uiso   1.00
Cl1033 Cl    0.75687   0.11433   0.82329   0.00000  Uiso   1.00
Cl1034 Cl    0.90850   0.21894   0.67593   0.00000  Uiso   1.00
Cu1035 Cu    0.71355   0.16667   0.75000   0.00000  Uiso   1.00
Cu1036 Cu    0.95311   0.16666   0.75000   0.00000  Uiso   1.00
H1037  H     0.77752   0.14785   0.61344   0.00000  Uiso   1.00
H1038  H     0.74367   0.29663   0.73303   0.00000  Uiso   1.00
H1039  H     0.88722   0.29011   0.72908   0.00000  Uiso   1.00
H1040  H     0.86552   0.33072   0.76693   0.00000  Uiso   1.00
H1041  H     0.81957   0.28164   0.82522   0.00000  Uiso   1.00
H1042  H     0.80332   0.27643   0.77300   0.00000  Uiso   1.00
H1043  H     0.84168   0.23923   0.79071   0.00000  Uiso   1.00
H1044  H     0.74939   0.06189   0.66359   0.00000  Uiso   1.00
H1045  H     0.78205   0.01474   0.66659   0.00000  Uiso   1.00
H1046  H     0.84682   0.05536   0.68629   0.00000  Uiso   1.00
H1047  H     0.83756   0.07228   0.63241   0.00000  Uiso   1.00
H1048  H     0.88685   0.18034   0.88648   0.00000  Uiso   1.00
H1049  H     0.81450   0.10198   0.68124   0.00000  Uiso   1.00
H1050  H     0.86144   0.07205   0.79641   0.00000  Uiso   1.00
H1051  H     0.82195   0.07806   0.85157   0.00000  Uiso   1.00
H1052  H     0.88627   0.08511   0.88683   0.00000  Uiso   1.00
H1053  H     0.89204   0.03830   0.85704   0.00000  Uiso   1.00
H1054  H     0.93074   0.08217   0.83379   0.00000  Uiso   1.00
H1055  H     0.82092   0.26031   0.69283   0.00000  Uiso   1.00
H1056  H     0.76456   0.24950   0.68018   0.00000  Uiso   1.00
H1057  H     0.80381   0.24178   0.60085   0.00000  Uiso   1.00
H1058  H     0.81990   0.29077   0.61827   0.00000  Uiso   1.00
H1059  H     0.97551   0.19237   0.60464   0.00000  Uiso   1.00
H1060  H     0.86213   0.24951   0.61050   0.00000  Uiso   1.00
H1061  H     0.69324   0.14734   0.89563   0.00000  Uiso   1.00
H1062  H     0.99744   0.13488   0.97634   0.00000  Uiso   1.00
H1063  H     0.67257   0.20742   0.52463   0.00000  Uiso   1.00
H1064  H     0.84715   0.13804   0.58280   0.00000  Uiso   1.00
H1065  H     0.82406   0.20570   0.91969   0.00000  Uiso   1.00
H1066  H     0.92473   0.03723   0.77006   0.00000  Uiso   1.00
N1067  N     0.78403   0.16668   0.74999   0.00000  Uiso   1.00
N1068  N     0.88264   0.16666   0.75001   0.00000  Uiso   1.00
O1069  O     0.70625   0.10655   0.75000   0.00000  Uiso   1.00
O1070  O     0.75511   0.04220   0.72763   0.00000  Uiso   1.00
O1071  O     0.86078   0.13083   0.82230   0.00000  Uiso   1.00
O1072  O     0.80791   0.19948   0.67599   0.00000  Uiso   1.00
O1073  O     0.96042   0.22678   0.75000   0.00000  Uiso   1.00
O1074  O     0.96039   0.10654   0.75001   0.00000  Uiso   1.00
O1075  O     0.70628   0.22679   0.75000   0.00000  Uiso   1.00
O1076  O     0.68519   0.16668   0.81492   0.00000  Uiso   1.00
O1077  O     0.98148   0.16666   0.68509   0.00000  Uiso   1.00
O1078  O     0.93933   0.16667   0.81492   0.00000  Uiso   1.00
O1079  O     0.72733   0.16667   0.68508   0.00000  Uiso   1.00
O1080  O     0.91377   0.29008   0.78585   0.00000  Uiso   1.00
C1081  C     0.00034   0.42085   0.74896   0.00000  Uiso   1.00
C1082  C     0.04455   0.35498   0.73727   0.00000  Uiso   1.00
C1083  C     0.33284   0.62378   0.75178   0.00000  Uiso   1.00
C1084  C     0.00102   0.37615   0.74800   0.00000  Uiso   1.00
C1085  C     0.18180   0.47860   0.78366   0.00000  Uiso   1.00
C1086  C     0.15177   0.52068   0.71604   0.00000  Uiso   1.00
C1087  C     0.13237   0.47822   0.78288   0.00000  Uiso   1.00
C1088  C     0.20084   0.52138   0.71697   0.00000  Uiso   1.00
C1089  C     0.30621   0.49980   0.83615   0.00000  Uiso   1.00
C1090  C     0.02715   0.50035   0.66386   0.00000  Uiso   1.00
C1091  C     0.29112   0.49776   0.88581   0.00000  Uiso   1.00
C1092  C     0.33310   0.57912   0.75114   0.00000  Uiso   1.00
C1093  C     0.04255   0.50366   0.61425   0.00000  Uiso   1.00
C1094  C     0.30553   0.47872   0.95796   0.00000  Uiso   1.00
C1095  C     0.03035   0.52807   0.54278   0.00000  Uiso   1.00
C1096  C     0.32254   0.48586   0.91146   0.00000  Uiso   1.00
C1097  C     0.01250   0.51925   0.58889   0.00000  Uiso   1.00
C1098  C     0.24328   0.50533   0.90758   0.00000  Uiso   1.00
C1099  C     0.08994   0.49462   0.59253   0.00000  Uiso   1.00
C1100  C     0.22537   0.49997   0.95477   0.00000  Uiso   1.00
C1101  C     0.10956   0.50398   0.54601   0.00000  Uiso   1.00
C1102  C     0.25687   0.48445   0.97990   0.00000  Uiso   1.00
C1103  C     0.19099   0.48036   0.54745   0.00000  Uiso   1.00
C1104  C     0.07891   0.52166   0.52107   0.00000  Uiso   1.00
C1105  C     0.17663   0.50798   0.97715   0.00000  Uiso   1.00
C1106  C     0.15883   0.49724   0.52404   0.00000  Uiso   1.00
C1107  C     0.20975   0.63147   0.76501   0.00000  Uiso   1.00
C1108  C     0.16586   0.60552   0.78995   0.00000  Uiso   1.00
C1109  C     0.10772   0.37897   0.68039   0.00000  Uiso   1.00
C1110  C     0.15461   0.40372   0.66944   0.00000  Uiso   1.00
C1111  C     0.19048   0.42085   0.82856   0.00000  Uiso   1.00
C1112  C     0.22727   0.40572   0.85289   0.00000  Uiso   1.00
C1113  C     0.13648   0.57582   0.67153   0.00000  Uiso   1.00
C1114  C     0.14546   0.52718   0.95419   0.00000  Uiso   1.00
C1115  C     0.15693   0.59033   0.62225   0.00000  Uiso   1.00
C1116  C     0.23892   0.47422   0.52611   0.00000  Uiso   1.00
C1117  C     0.09756   0.53352   0.97532   0.00000  Uiso   1.00
C1118  C     0.29076   0.35421   0.76029   0.00000  Uiso   1.00
C1119  C     0.04332   0.64567   0.73990   0.00000  Uiso   1.00
C1120  C     0.28917   0.64472   0.76333   0.00000  Uiso   1.00
Cl1121 Cl    0.27431   0.45072   0.55878   0.00000  Uiso   1.00
Cl1122 Cl    0.06284   0.55841   0.94284   0.00000  Uiso   1.00
Cl1123 Cl    0.09020   0.44767   0.82329   0.00000  Uiso   1.00
Cl1124 Cl    0.24184   0.55228   0.67593   0.00000  Uiso   1.00
Cu1125 Cu    0.04689   0.50001   0.75000   0.00000  Uiso   1.00
Cu1126 Cu    0.28645   0.49999   0.75000   0.00000  Uiso   1.00
H1127  H     0.11086   0.48118   0.61344   0.00000  Uiso   1.00
H1128  H     0.07700   0.62996   0.73303   0.00000  Uiso   1.00
H1129  H     0.22056   0.62344   0.72908   0.00000  Uiso   1.00
H1130  H     0.19886   0.66405   0.76693   0.00000  Uiso   1.00
H1131  H     0.15290   0.61497   0.82522   0.00000  Uiso   1.00
H1132  H     0.13665   0.60976   0.77300   0.00000  Uiso   1.00
H1133  H     0.17501   0.57256   0.79071   0.00000  Uiso   1.00
H1134  H     0.08273   0.39523   0.66359   0.00000  Uiso   1.00
H1135  H     0.11538   0.34807   0.66659   0.00000  Uiso   1.00
H1136  H     0.18015   0.38870   0.68629   0.00000  Uiso   1.00
H1137  H     0.17089   0.40561   0.63241   0.00000  Uiso   1.00
H1138  H     0.22018   0.51367   0.88648   0.00000  Uiso   1.00
H1139  H     0.14784   0.43532   0.68124   0.00000  Uiso   1.00
H1140  H     0.19477   0.40538   0.79641   0.00000  Uiso   1.00
H1141  H     0.15528   0.41140   0.85157   0.00000  Uiso   1.00
H1142  H     0.21960   0.41844   0.88683   0.00000  Uiso   1.00
H1143  H     0.22538   0.37163   0.85704   0.00000  Uiso   1.00
H1144  H     0.26407   0.41551   0.83379   0.00000  Uiso   1.00
H1145  H     0.15426   0.59364   0.69283   0.00000  Uiso   1.00
H1146  H     0.09789   0.58283   0.68018   0.00000  Uiso   1.00
H1147  H     0.13714   0.57511   0.60085   0.00000  Uiso   1.00
H1148  H     0.15323   0.62410   0.61827   0.00000  Uiso   1.00
H1149  H     0.30885   0.52570   0.60464   0.00000  Uiso   1.00
H1150  H     0.19546   0.58285   0.61050   0.00000  Uiso   1.00
H1151  H     0.02658   0.48067   0.89563   0.00000  Uiso   1.00
H1152  H     0.33078   0.46822   0.97634   0.00000  Uiso   1.00
H1153  H     0.00591   0.54076   0.52463   0.00000  Uiso   1.00
H1154  H     0.18048   0.47138   0.58280   0.00000  Uiso   1.00
H1155  H     0.15739   0.53903   0.91969   0.00000  Uiso   1.00
H1156  H     0.25806   0.37056   0.77006   0.00000  Uiso   1.00
N1157  N     0.11736   0.50001   0.74999   0.00000  Uiso   1.00
N1158  N     0.21597   0.49999   0.75001   0.00000  Uiso   1.00
O1159  O     0.03958   0.43989   0.75000   0.00000  Uiso   1.00
O1160  O     0.08844   0.37553   0.72763   0.00000  Uiso   1.00
O1161  O     0.19412   0.46416   0.82230   0.00000  Uiso   1.00
O1162  O     0.14124   0.53282   0.67599   0.00000  Uiso   1.00
O1163  O     0.29375   0.56011   0.75000   0.00000  Uiso   1.00
O1164  O     0.29372   0.43988   0.75001   0.00000  Uiso   1.00
O1165  O     0.03961   0.56012   0.75000   0.00000  Uiso   1.00
O1166  O     0.01852   0.50001   0.81492   0.00000  Uiso   1.00
O1167  O     0.31481   0.49999   0.68509   0.00000  Uiso   1.00
O1168  O     0.27267   0.50000   0.81492   0.00000  Uiso   1.00
O1169  O     0.06067   0.50000   0.68508   0.00000  Uiso   1.00
O1170  O     0.24710   0.62342   0.78585   0.00000  Uiso   1.00
C1171  C     0.33367   0.42085   0.74896   0.00000  Uiso   1.00
C1172  C     0.37789   0.35498   0.73727   0.00000  Uiso   1.00
C1173  C     0.66617   0.62378   0.75178   0.00000  Uiso   1.00
C1174  C     0.33436   0.37615   0.74800   0.00000  Uiso   1.00
C1175  C     0.51513   0.47860   0.78366   0.00000  Uiso   1.00
C1176  C     0.48510   0.52068   0.71604   0.00000  Uiso   1.00
C1177  C     0.46571   0.47822   0.78288   0.00000  Uiso   1.00
C1178  C     0.53417   0.52138   0.71697   0.00000  Uiso   1.00
C1179  C     0.63955   0.49980   0.83615   0.00000  Uiso   1.00
C1180  C     0.36049   0.50035   0.66386   0.00000  Uiso   1.00
C1181  C     0.62445   0.49776   0.88581   0.00000  Uiso   1.00
C1182  C     0.66643   0.57912   0.75114   0.00000  Uiso   1.00
C1183  C     0.37588   0.50366   0.61425   0.00000  Uiso   1.00
C1184  C     0.63887   0.47872   0.95796   0.00000  Uiso   1.00
C1185  C     0.36368   0.52807   0.54278   0.00000  Uiso   1.00
C1186  C     0.65588   0.48586   0.91146   0.00000  Uiso   1.00
C1187  C     0.34583   0.51925   0.58889   0.00000  Uiso   1.00
C1188  C     0.57661   0.50533   0.90758   0.00000  Uiso   1.00
C1189  C     0.42327   0.49462   0.59253   0.00000  Uiso   1.00
C1190  C     0.55871   0.49997   0.95477   0.00000  Uiso   1.00
C1191  C     0.44289   0.50398   0.54601   0.00000  Uiso   1.00
C1192  C     0.59020   0.48445   0.97990   0.00000  Uiso   1.00
C1193  C     0.52432   0.48036   0.54745   0.00000  Uiso   1.00
C1194  C     0.41224   0.52166   0.52107   0.00000  Uiso   1.00
C1195  C     0.50996   0.50798   0.97715   0.00000  Uiso   1.00
C1196  C     0.49217   0.49724   0.52404   0.00000  Uiso   1.00
C1197  C     0.54308   0.63147   0.76501   0.00000  Uiso   1.00
C1198  C     0.49919   0.60552   0.78995   0.00000  Uiso   1.00
C1199  C     0.44106   0.37897   0.68039   0.00000  Uiso   1.00
C1200  C     0.48795   0.40372   0.66944   0.00000  Uiso   1.00
C1201  C     0.52381   0.42085   0.82856   0.00000  Uiso   1.00
C1202  C     0.56060   0.40572   0.85289   0.00000  Uiso   1.00
C1203  C     0.46981   0.57582   0.67153   0.00000  Uiso   1.00
C1204  C     0.47879   0.52718   0.95419   0.00000  Uiso   1.00
C1205  C     0.49026   0.59033   0.62225   0.00000  Uiso   1.00
C1206  C     0.57225   0.47422   0.52611   0.00000  Uiso   1.00
C1207  C     0.43090   0.53352   0.97532   0.00000  Uiso   1.00
C1208  C     0.62410   0.35421   0.76029   0.00000  Uiso   1.00
C1209  C     0.37665   0.64567   0.73990   0.00000  Uiso   1.00
C1210  C     0.62250   0.64472   0.76333   0.00000  Uiso   1.00
Cl1211 Cl    0.60764   0.45072   0.55878   0.00000  Uiso   1.00
Cl1212 Cl    0.39618   0.55841   0.94284   0.00000  Uiso   1.00
Cl1213 Cl    0.42354   0.44767   0.82329   0.00000  Uiso   1.00
Cl1214 Cl    0.57517   0.55228   0.67593   0.00000  Uiso   1.00
Cu1215 Cu    0.38022   0.50001   0.75000   0.00000  Uiso   1.00
Cu1216 Cu    0.61978   0.49999   0.75000   0.00000  Uiso   1.00
H1217  H     0.44419   0.48118   0.61344   0.00000  Uiso   1.00
H1218  H     0.41033   0.62996   0.73303   0.00000  Uiso   1.00
H1219  H     0.55389   0.62344   0.72908   0.00000  Uiso   1.00
H1220  H     0.53219   0.66405   0.76693   0.00000  Uiso   1.00
H1221  H     0.48623   0.61497   0.82522   0.00000  Uiso   1.00
H1222  H     0.46999   0.60976   0.77300   0.00000  Uiso   1.00
H1223  H     0.50835   0.57256   0.79071   0.00000  Uiso   1.00
H1224  H     0.41606   0.39523   0.66359   0.00000  Uiso   1.00
H1225  H     0.44872   0.34807   0.66659   0.00000  Uiso   1.00
H1226  H     0.51348   0.38870   0.68629   0.00000  Uiso   1.00
H1227  H     0.50422   0.40561   0.63241   0.00000  Uiso   1.00
H1228  H     0.55352   0.51367   0.88648   0.00000  Uiso   1.00
H1229  H     0.48117   0.43532   0.68124   0.00000  Uiso   1.00
H1230  H     0.52811   0.40538   0.79641   0.00000  Uiso   1.00
H1231  H     0.48861   0.41140   0.85157   0.00000  Uiso   1.00
H1232  H     0.55293   0.41844   0.88683   0.00000  Uiso   1.00
H1233  H     0.55871   0.37163   0.85704   0.00000  Uiso   1.00
H1234  H     0.59740   0.41551   0.83379   0.00000  Uiso   1.00
H1235  H     0.48759   0.59364   0.69283   0.00000  Uiso   1.00
H1236  H     0.43122   0.58283   0.68018   0.00000  Uiso   1.00
H1237  H     0.47047   0.57511   0.60085   0.00000  Uiso   1.00
H1238  H     0.48657   0.62410   0.61827   0.00000  Uiso   1.00
H1239  H     0.64218   0.52570   0.60464   0.00000  Uiso   1.00
H1240  H     0.52879   0.58285   0.61050   0.00000  Uiso   1.00
H1241  H     0.35991   0.48067   0.89563   0.00000  Uiso   1.00
H1242  H     0.66411   0.46822   0.97634   0.00000  Uiso   1.00
H1243  H     0.33924   0.54076   0.52463   0.00000  Uiso   1.00
H1244  H     0.51381   0.47138   0.58280   0.00000  Uiso   1.00
H1245  H     0.49073   0.53903   0.91969   0.00000  Uiso   1.00
H1246  H     0.59140   0.37056   0.77006   0.00000  Uiso   1.00
N1247  N     0.45069   0.50001   0.74999   0.00000  Uiso   1.00
N1248  N     0.54931   0.49999   0.75001   0.00000  Uiso   1.00
O1249  O     0.37291   0.43989   0.75000   0.00000  Uiso   1.00
O1250  O     0.42178   0.37553   0.72763   0.00000  Uiso   1.00
O1251  O     0.52745   0.46416   0.82230   0.00000  Uiso   1.00
O1252  O     0.47457   0.53282   0.67599   0.00000  Uiso   1.00
O1253  O     0.62709   0.56011   0.75000   0.00000  Uiso   1.00
O1254  O     0.62706   0.43988   0.75001   0.00000  Uiso   1.00
O1255  O     0.37294   0.56012   0.75000   0.00000  Uiso   1.00
O1256  O     0.35186   0.50001   0.81492   0.00000  Uiso   1.00
O1257  O     0.64814   0.49999   0.68509   0.00000  Uiso   1.00
O1258  O     0.60600   0.50000   0.81492   0.00000  Uiso   1.00
O1259  O     0.39400   0.50000   0.68508   0.00000  Uiso   1.00
O1260  O     0.58044   0.62342   0.78585   0.00000  Uiso   1.00
C1261  C     0.66700   0.42085   0.74896   0.00000  Uiso   1.00
C1262  C     0.71122   0.35498   0.73727   0.00000  Uiso   1.00
C1263  C     0.99950   0.62378   0.75178   0.00000  Uiso   1.00
C1264  C     0.66769   0.37615   0.74800   0.00000  Uiso   1.00
C1265  C     0.84847   0.47860   0.78366   0.00000  Uiso   1.00
C1266  C     0.81843   0.52068   0.71604   0.00000  Uiso   1.00
C1267  C     0.79904   0.47822   0.78288   0.00000  Uiso   1.00
C1268  C     0.86750   0.52138   0.71697   0.00000  Uiso   1.00
C1269  C     0.97288   0.49980   0.83615   0.00000  Uiso   1.00
C1270  C     0.69382   0.50035   0.66386   0.00000  Uiso   1.00
C1271  C     0.95779   0.49776   0.88581   0.00000  Uiso   1.00
C1272  C     0.99976   0.57912   0.75114   0.00000  Uiso   1.00
C1273  C     0.70922   0.50366   0.61425   0.00000  Uiso   1.00
C1274  C     0.97220   0.47872   0.95796   0.00000  Uiso   1.00
C1275  C     0.69702   0.52807   0.54278   0.00000  Uiso   1.00
C1276  C     0.98921   0.48586   0.91146   0.00000  Uiso   1.00
C1277  C     0.67917   0.51925   0.58889   0.00000  Uiso   1.00
C1278  C     0.90995   0.50533   0.90758   0.00000  Uiso   1.00
C1279  C     0.75661   0.49462   0.59253   0.00000  Uiso   1.00
C1280  C     0.89204   0.49997   0.95477   0.00000  Uiso   1.00
C1281  C     0.77622   0.50398   0.54601   0.00000  Uiso   1.00
C1282  C     0.92353   0.48445   0.97990   0.00000  Uiso   1.00
C1283  C     0.85765   0.48036   0.54745   0.00000  Uiso   1.00
C1284  C     0.74558   0.52166   0.52107   0.00000  Uiso   1.00
C1285  C     0.84329   0.50798   0.97715   0.00000  Uiso   1.00
C1286  C     0.82550   0.49724   0.52404   0.00000  Uiso   1.00
C1287  C     0.87642   0.63147   0.76501   0.00000  Uiso   1.00
C1288  C     0.83252   0.60552   0.78995   0.00000  Uiso   1.00
C1289  C     0.77439   0.37897   0.68039   0.00000  Uiso   1.00
C1290  C     0.82128   0.40372   0.66944   0.00000  Uiso   1.00
C1291  C     0.85715   0.42085   0.82856   0.00000  Uiso   1.00
C1292  C     0.89393   0.40572   0.85289   0.00000  Uiso   1.00
C1293  C     0.80315   0.57582   0.67153   0.00000  Uiso   1.00
C1294  C     0.81213   0.52718   0.95419   0.00000  Uiso   1.00
C1295  C     0.82360   0.59033   0.62225   0.00000  Uiso   1.00
C1296  C     0.90559   0.47422   0.52611   0.00000  Uiso   1.00
C1297  C     0.76423   0.53352   0.97532   0.00000  Uiso   1.00
C1298  C     0.95743   0.35421   0.76029   0.00000  Uiso   1.00
C1299  C     0.70998   0.64567   0.73990   0.00000  Uiso   1.00
C1300  C     0.95583   0.64472   0.76333   0.00000  Uiso   1.00
Cl1301 Cl    0.94097   0.45072   0.55878   0.00000  Uiso   1.00
Cl1302 Cl    0.72951   0.55841   0.94284   0.00000  Uiso   1.00
Cl1303 Cl    0.75687   0.44767   0.82329   0.00000  Uiso   1.00
Cl1304 Cl    0.90850   0.55228   0.67593   0.00000  Uiso   1.00
Cu1305 Cu    0.71355   0.50001   0.75000   0.00000  Uiso   1.00
Cu1306 Cu    0.95311   0.49999   0.75000   0.00000  Uiso   1.00
H1307  H     0.77752   0.48118   0.61344   0.00000  Uiso   1.00
H1308  H     0.74367   0.62996   0.73303   0.00000  Uiso   1.00
H1309  H     0.88722   0.62344   0.72908   0.00000  Uiso   1.00
H1310  H     0.86552   0.66405   0.76693   0.00000  Uiso   1.00
H1311  H     0.81957   0.61497   0.82522   0.00000  Uiso   1.00
H1312  H     0.80332   0.60976   0.77300   0.00000  Uiso   1.00
H1313  H     0.84168   0.57256   0.79071   0.00000  Uiso   1.00
H1314  H     0.74939   0.39523   0.66359   0.00000  Uiso   1.00
H1315  H     0.78205   0.34807   0.66659   0.00000  Uiso   1.00
H1316  H     0.84682   0.38870   0.68629   0.00000  Uiso   1.00
H1317  H     0.83756   0.40561   0.63241   0.00000  Uiso   1.00
H1318  H     0.88685   0.51367   0.88648   0.00000  Uiso   1.00
H1319  H     0.81450   0.43532   0.68124   0.00000  Uiso   1.00
H1320  H     0.86144   0.40538   0.79641   0.00000  Uiso   1.00
H1321  H     0.82195   0.41140   0.85157   0.00000  Uiso   1.00
H1322  H     0.88627   0.41844   0.88683   0.00000  Uiso   1.00
H1323  H     0.89204   0.37163   0.85704   0.00000  Uiso   1.00
H1324  H     0.93074   0.41551   0.83379   0.00000  Uiso   1.00
H1325  H     0.82092   0.59364   0.69283   0.00000  Uiso   1.00
H1326  H     0.76456   0.58283   0.68018   0.00000  Uiso   1.00
H1327  H     0.80381   0.57511   0.60085   0.00000  Uiso   1.00
H1328  H     0.81990   0.62410   0.61827   0.00000  Uiso   1.00
H1329  H     0.97551   0.52570   0.60464   0.00000  Uiso   1.00
H1330  H     0.86213   0.58285   0.61050   0.00000  Uiso   1.00
H1331  H     0.69324   0.48067   0.89563   0.00000  Uiso   1.00
H1332  H     0.99744   0.46822   0.97634   0.00000  Uiso   1.00
H1333  H     0.67257   0.54076   0.52463   0.00000  Uiso   1.00
H1334  H     0.84715   0.47138   0.58280   0.00000  Uiso   1.00
H1335  H     0.82406   0.53903   0.91969   0.00000  Uiso   1.00
H1336  H     0.92473   0.37056   0.77006   0.00000  Uiso   1.00
N1337  N     0.78403   0.50001   0.74999   0.00000  Uiso   1.00
N1338  N     0.88264   0.49999   0.75001   0.00000  Uiso   1.00
O1339  O     0.70625   0.43989   0.75000   0.00000  Uiso   1.00
O1340  O     0.75511   0.37553   0.72763   0.00000  Uiso   1.00
O1341  O     0.86078   0.46416   0.82230   0.00000  Uiso   1.00
O1342  O     0.80791   0.53282   0.67599   0.00000  Uiso   1.00
O1343  O     0.96042   0.56011   0.75000   0.00000  Uiso   1.00
O1344  O     0.96039   0.43988   0.75001   0.00000  Uiso   1.00
O1345  O     0.70628   0.56012   0.75000   0.00000  Uiso   1.00
O1346  O     0.68519   0.50001   0.81492   0.00000  Uiso   1.00
O1347  O     0.98148   0.49999   0.68509   0.00000  Uiso   1.00
O1348  O     0.93933   0.50000   0.81492   0.00000  Uiso   1.00
O1349  O     0.72733   0.50000   0.68508   0.00000  Uiso   1.00
O1350  O     0.91377   0.62342   0.78585   0.00000  Uiso   1.00
C1351  C     0.00034   0.75419   0.74896   0.00000  Uiso   1.00
C1352  C     0.04455   0.68831   0.73727   0.00000  Uiso   1.00
C1353  C     0.33284   0.95711   0.75178   0.00000  Uiso   1.00
C1354  C     0.00102   0.70948   0.74800   0.00000  Uiso   1.00
C1355  C     0.18180   0.81194   0.78366   0.00000  Uiso   1.00
C1356  C     0.15177   0.85401   0.71604   0.00000  Uiso   1.00
C1357  C     0.13237   0.81155   0.78288   0.00000  Uiso   1.00
C1358  C     0.20084   0.85471   0.71697   0.00000  Uiso   1.00
C1359  C     0.30621   0.83313   0.83615   0.00000  Uiso   1.00
C1360  C     0.02715   0.83368   0.66386   0.00000  Uiso   1.00
C1361  C     0.29112   0.83110   0.88581   0.00000  Uiso   1.00
C1362  C     0.33310   0.91245   0.75114   0.00000  Uiso   1.00
C1363  C     0.04255   0.83700   0.61425   0.00000  Uiso   1.00
C1364  C     0.30553   0.81205   0.95796   0.00000  Uiso   1.00
C1365  C     0.03035   0.86141   0.54278   0.00000  Uiso   1.00
C1366  C     0.32254   0.81919   0.91146   0.00000  Uiso   1.00
C1367  C     0.01250   0.85259   0.58889   0.00000  Uiso   1.00
C1368  C     0.24328   0.83866   0.90758   0.00000  Uiso   1.00
C1369  C     0.08994   0.82796   0.59253   0.00000  Uiso   1.00
C1370  C     0.22537   0.83330   0.95477   0.00000  Uiso   1.00
C1371  C     0.10956   0.83731   0.54601   0.00000  Uiso   1.00
C1372  C     0.25687   0.81778   0.97990   0.00000  Uiso   1.00
C1373  C     0.19099   0.81369   0.54745   0.00000  Uiso   1.00
C1374  C     0.07891   0.85499   0.52107   0.00000  Uiso   1.00
C1375  C     0.17663   0.84131   0.97715   0.00000  Uiso   1.00
C1376  C     0.15883   0.83057   0.52404   0.00000  Uiso   1.00
C1377  C     0.20975   0.96480   0.76501   0.00000  Uiso   1.00
C1378  C     0.16586   0.93886   0.78995   0.00000  Uiso   1.00
C1379  C     0.10772   0.71230   0.68039   0.00000  Uiso   1.00
C1380  C     0.15461   0.73706   0.66944   0.00000  Uiso   1.00
C1381  C     0.19048   0.75418   0.82856   0.00000  Uiso   1.00
C1382  C     0.22727   0.73905   0.85289   0.00000  Uiso   1.00
C1383  C     0.13648   0.90916   0.67153   0.00000  Uiso   1.00
C1384  C     0.14546   0.86051   0.95419   0.00000  Uiso   1.00
C1385  C     0.15693   0.92366   0.62225   0.00000  Uiso   1.00
C1386  C     0.23892   0.80755   0.52611   0.00000  Uiso   1.00
C1387  C     0.09756   0.86686   0.97532   0.00000  Uiso   1.00
C1388  C     0.29076   0.68754   0.76029   0.00000  Uiso   1.00
C1389  C     0.04332   0.97901   0.73990   0.00000  Uiso   1.00
C1390  C     0.28917   0.97805   0.76333   0.00000  Uiso   1.00
Cl1391 Cl    0.27431   0.78405   0.55878   0.00000  Uiso   1.00
Cl1392 Cl    0.06284   0.89174   0.94284   0.00000  Uiso   1.00
Cl1393 Cl    0.09020   0.78100   0.82329   0.00000  Uiso   1.00
Cl1394 Cl    0.24184   0.88561   0.67593   0.00000  Uiso   1.00
Cu1395 Cu    0.04689   0.83334   0.75000   0.00000  Uiso   1.00
Cu1396 Cu    0.28645   0.83333   0.75000   0.00000  Uiso   1.00
H1397  H     0.11086   0.81452   0.61344   0.00000  Uiso   1.00
H1398  H     0.07700   0.96329   0.73303   0.00000  Uiso   1.00
H1399  H     0.22056   0.95678   0.72908   0.00000  Uiso   1.00
H1400  H     0.19886   0.99739   0.76693   0.00000  Uiso   1.00
H1401  H     0.15290   0.94831   0.82522   0.00000  Uiso   1.00
H1402  H     0.13665   0.94309   0.77300   0.00000  Uiso   1.00
H1403  H     0.17501   0.90589   0.79071   0.00000  Uiso   1.00
H1404  H     0.08273   0.72856   0.66359   0.00000  Uiso   1.00
H1405  H     0.11538   0.68141   0.66659   0.00000  Uiso   1.00
H1406  H     0.18015   0.72203   0.68629   0.00000  Uiso   1.00
H1407  H     0.17089   0.73894   0.63241   0.00000  Uiso   1.00
H1408  H     0.22018   0.84700   0.88648   0.00000  Uiso   1.00
H1409  H     0.14784   0.76865   0.68124   0.00000  Uiso   1.00
H1410  H     0.19477   0.73871   0.79641   0.00000  Uiso   1.00
H1411  H     0.15528   0.74473   0.85157   0.00000  Uiso   1.00
H1412  H     0.21960   0.75177   0.88683   0.00000  Uiso   1.00
H1413  H     0.22538   0.70497   0.85704   0.00000  Uiso   1.00
H1414  H     0.26407   0.74884   0.83379   0.00000  Uiso   1.00
H1415  H     0.15426   0.92698   0.69283   0.00000  Uiso   1.00
H1416  H     0.09789   0.91616   0.68018   0.00000  Uiso   1.00
H1417  H     0.13714   0.90845   0.60085   0.00000  Uiso   1.00
H1418  H     0.15323   0.95743   0.61827   0.00000  Uiso   1.00
H1419  H     0.30885   0.85903   0.60464   0.00000  Uiso   1.00
H1420  H     0.19546   0.91618   0.61050   0.00000  Uiso   1.00
H1421  H     0.02658   0.81400   0.89563   0.00000  Uiso   1.00
H1422  H     0.33078   0.80155   0.97634   0.00000  Uiso   1.00
H1423  H     0.00591   0.87409   0.52463   0.00000  Uiso   1.00
H1424  H     0.18048   0.80471   0.58280   0.00000  Uiso   1.00
H1425  H     0.15739   0.87237   0.91969   0.00000  Uiso   1.00
H1426  H     0.25806   0.70390   0.77006   0.00000  Uiso   1.00
N1427  N     0.11736   0.83334   0.74999   0.00000  Uiso   1.00
N1428  N     0.21597   0.83332   0.75001   0.00000  Uiso   1.00
O1429  O     0.03958   0.77322   0.75000   0.00000  Uiso   1.00
O1430  O     0.08844   0.70887   0.72763   0.00000  Uiso   1.00
O1431  O     0.19412   0.79749   0.82230   0.00000  Uiso   1.00
O1432  O     0.14124   0.86615   0.67599   0.00000  Uiso   1.00
O1433  O     0.29375   0.89345   0.75000   0.00000  Uiso   1.00
O1434  O     0.29372   0.77321   0.75001   0.00000  Uiso   1.00
O1435  O     0.03961   0.89346   0.75000   0.00000  Uiso   1.00
O1436  O     0.01852   0.83334   0.81492   0.00000  Uiso   1.00
O1437  O     0.31481   0.83332   0.68509   0.00000  Uiso   1.00
O1438  O     0.27267   0.83333   0.81492   0.00000  Uiso   1.00
O1439  O     0.06067   0.83333   0.68508   0.00000  Uiso   1.00
O1440  O     0.24710   0.95675   0.78585   0.00000  Uiso   1.00
C1441  C     0.33367   0.75419   0.74896   0.00000  Uiso   1.00
C1442  C     0.37789   0.68831   0.73727   0.00000  Uiso   1.00
C1443  C     0.66617   0.95711   0.75178   0.00000  Uiso   1.00
C1444  C     0.33436   0.70948   0.74800   0.00000  Uiso   1.00
C1445  C     0.51513   0.81194   0.78366   0.00000  Uiso   1.00
C1446  C     0.48510   0.85401   0.71604   0.00000  Uiso   1.00
C1447  C     0.46571   0.81155   0.78288   0.00000  Uiso   1.00
C1448  C     0.53417   0.85471   0.71697   0.00000  Uiso   1.00
C1449  C     0.63955   0.83313   0.83615   0.00000  Uiso   1.00
C1450  C     0.36049   0.83368   0.66386   0.00000  Uiso   1.00
C1451  C     0.62445   0.83110   0.88581   0.00000  Uiso   1.00
C1452  C     0.66643   0.91245   0.75114   0.00000  Uiso   1.00
C1453  C     0.37588   0.83700   0.61425   0.00000  Uiso   1.00
C1454  C     0.63887   0.81205   0.95796   0.00000  Uiso   1.00
C1455  C     0.36368   0.86141   0.54278   0.00000  Uiso   1.00
C1456  C     0.65588   0.81919   0.91146   0.00000  Uiso   1.00
C1457  C     0.34583   0.85259   0.58889   0.00000  Uiso   1.00
C1458  C     0.57661   0.83866   0.90758   0.00000  Uiso   1.00
C1459  C     0.42327   0.82796   0.59253   0.00000  Uiso   1.00
C1460  C     0.55871   0.83330   0.95477   0.00000  Uiso   1.00
C1461  C     0.44289   0.83731   0.54601   0.00000  Uiso   1.00
C1462  C     0.59020   0.81778   0.97990   0.00000  Uiso   1.00
C1463  C     0.52432   0.81369   0.54745   0.00000  Uiso   1.00
C1464  C     0.41224   0.85499   0.52107   0.00000  Uiso   1.00
C1465  C     0.50996   0.84131   0.97715   0.00000  Uiso   1.00
C1466  C     0.49217   0.83057   0.52404   0.00000  Uiso   1.00
C1467  C     0.54308   0.96480   0.76501   0.00000  Uiso   1.00
C1468  C     0.49919   0.93886   0.78995   0.00000  Uiso   1.00
C1469  C     0.44106   0.71230   0.68039   0.00000  Uiso   1.00
C1470  C     0.48795   0.73706   0.66944   0.00000  Uiso   1.00
C1471  C     0.52381   0.75418   0.82856   0.00000  Uiso   1.00
C1472  C     0.56060   0.73905   0.85289   0.00000  Uiso   1.00
C1473  C     0.46981   0.90916   0.67153   0.00000  Uiso   1.00
C1474  C     0.47879   0.86051   0.95419   0.00000  Uiso   1.00
C1475  C     0.49026   0.92366   0.62225   0.00000  Uiso   1.00
C1476  C     0.57225   0.80755   0.52611   0.00000  Uiso   1.00
C1477  C     0.43090   0.86686   0.97532   0.00000  Uiso   1.00
C1478  C     0.62410   0.68754   0.76029   0.00000  Uiso   1.00
C1479  C     0.37665   0.97901   0.73990   0.00000  Uiso   1.00
C1480  C     0.62250   0.97805   0.76333   0.00000  Uiso   1.00
Cl1481 Cl    0.60764   0.78405   0.55878   0.00000  Uiso   1.00
Cl1482 Cl    0.39618   0.89174   0.94284   0.00000  Uiso   1.00
Cl1483 Cl    0.42354   0.78100   0.82329   0.00000  Uiso   1.00
Cl1484 Cl    0.57517   0.88561   0.67593   0.00000  Uiso   1.00
Cu1485 Cu    0.38022   0.83334   0.75000   0.00000  Uiso   1.00
Cu1486 Cu    0.61978   0.83333   0.75000   0.00000  Uiso   1.00
H1487  H     0.44419   0.81452   0.61344   0.00000  Uiso   1.00
H1488  H     0.41033   0.96329   0.73303   0.00000  Uiso   1.00
H1489  H     0.55389   0.95678   0.72908   0.00000  Uiso   1.00
H1490  H     0.53219   0.99739   0.76693   0.00000  Uiso   1.00
H1491  H     0.48623   0.94831   0.82522   0.00000  Uiso   1.00
H1492  H     0.46999   0.94309   0.77300   0.00000  Uiso   1.00
H1493  H     0.50835   0.90589   0.79071   0.00000  Uiso   1.00
H1494  H     0.41606   0.72856   0.66359   0.00000  Uiso   1.00
H1495  H     0.44872   0.68141   0.66659   0.00000  Uiso   1.00
H1496  H     0.51348   0.72203   0.68629   0.00000  Uiso   1.00
H1497  H     0.50422   0.73894   0.63241   0.00000  Uiso   1.00
H1498  H     0.55352   0.84700   0.88648   0.00000  Uiso   1.00
H1499  H     0.48117   0.76865   0.68124   0.00000  Uiso   1.00
H1500  H     0.52811   0.73871   0.79641   0.00000  Uiso   1.00
H1501  H     0.48861   0.74473   0.85157   0.00000  Uiso   1.00
H1502  H     0.55293   0.75177   0.88683   0.00000  Uiso   1.00
H1503  H     0.55871   0.70497   0.85704   0.00000  Uiso   1.00
H1504  H     0.59740   0.74884   0.83379   0.00000  Uiso   1.00
H1505  H     0.48759   0.92698   0.69283   0.00000  Uiso   1.00
H1506  H     0.43122   0.91616   0.68018   0.00000  Uiso   1.00
H1507  H     0.47047   0.90845   0.60085   0.00000  Uiso   1.00
H1508  H     0.48657   0.95743   0.61827   0.00000  Uiso   1.00
H1509  H     0.64218   0.85903   0.60464   0.00000  Uiso   1.00
H1510  H     0.52879   0.91618   0.61050   0.00000  Uiso   1.00
H1511  H     0.35991   0.81400   0.89563   0.00000  Uiso   1.00
H1512  H     0.66411   0.80155   0.97634   0.00000  Uiso   1.00
H1513  H     0.33924   0.87409   0.52463   0.00000  Uiso   1.00
H1514  H     0.51381   0.80471   0.58280   0.00000  Uiso   1.00
H1515  H     0.49073   0.87237   0.91969   0.00000  Uiso   1.00
H1516  H     0.59140   0.70390   0.77006   0.00000  Uiso   1.00
N1517  N     0.45069   0.83334   0.74999   0.00000  Uiso   1.00
N1518  N     0.54931   0.83332   0.75001   0.00000  Uiso   1.00
O1519  O     0.37291   0.77322   0.75000   0.00000  Uiso   1.00
O1520  O     0.42178   0.70887   0.72763   0.00000  Uiso   1.00
O1521  O     0.52745   0.79749   0.82230   0.00000  Uiso   1.00
O1522  O     0.47457   0.86615   0.67599   0.00000  Uiso   1.00
O1523  O     0.62709   0.89345   0.75000   0.00000  Uiso   1.00
O1524  O     0.62706   0.77321   0.75001   0.00000  Uiso   1.00
O1525  O     0.37294   0.89346   0.75000   0.00000  Uiso   1.00
O1526  O     0.35186   0.83334   0.81492   0.00000  Uiso   1.00
O1527  O     0.64814   0.83332   0.68509   0.00000  Uiso   1.00
O1528  O     0.60600   0.83333   0.81492   0.00000  Uiso   1.00
O1529  O     0.39400   0.83333   0.68508   0.00000  Uiso   1.00
O1530  O     0.58044   0.95675   0.78585   0.00000  Uiso   1.00
C1531  C     0.66700   0.75419   0.74896   0.00000  Uiso   1.00
C1532  C     0.71122   0.68831   0.73727   0.00000  Uiso   1.00
C1533  C     0.99950   0.95711   0.75178   0.00000  Uiso   1.00
C1534  C     0.66769   0.70948   0.74800   0.00000  Uiso   1.00
C1535  C     0.84847   0.81194   0.78366   0.00000  Uiso   1.00
C1536  C     0.81843   0.85401   0.71604   0.00000  Uiso   1.00
C1537  C     0.79904   0.81155   0.78288   0.00000  Uiso   1.00
C1538  C     0.86750   0.85471   0.71697   0.00000  Uiso   1.00
C1539  C     0.97288   0.83313   0.83615   0.00000  Uiso   1.00
C1540  C     0.69382   0.83368   0.66386   0.00000  Uiso   1.00
C1541  C     0.95779   0.83110   0.88581   0.00000  Uiso   1.00
C1542  C     0.99976   0.91245   0.75114   0.00000  Uiso   1.00
C1543  C     0.70922   0.83700   0.61425   0.00000  Uiso   1.00
C1544  C     0.97220   0.81205   0.95796   0.00000  Uiso   1.00
C1545  C     0.69702   0.86141   0.54278   0.00000  Uiso   1.00
C1546  C     0.98921   0.81919   0.91146   0.00000  Uiso   1.00
C1547  C     0.67917   0.85259   0.58889   0.00000  Uiso   1.00
C1548  C     0.90995   0.83866   0.90758   0.00000  Uiso   1.00
C1549  C     0.75661   0.82796   0.59253   0.00000  Uiso   1.00
C1550  C     0.89204   0.83330   0.95477   0.00000  Uiso   1.00
C1551  C     0.77622   0.83731   0.54601   0.00000  Uiso   1.00
C1552  C     0.92353   0.81778   0.97990   0.00000  Uiso   1.00
C1553  C     0.85765   0.81369   0.54745   0.00000  Uiso   1.00
C1554  C     0.74558   0.85499   0.52107   0.00000  Uiso   1.00
C1555  C     0.84329   0.84131   0.97715   0.00000  Uiso   1.00
C1556  C     0.82550   0.83057   0.52404   0.00000  Uiso   1.00
C1557  C     0.87642   0.96480   0.76501   0.00000  Uiso   1.00
C1558  C     0.83252   0.93886   0.78995   0.00000  Uiso   1.00
C1559  C     0.77439   0.71230   0.68039   0.00000  Uiso   1.00
C1560  C     0.82128   0.73706   0.66944   0.00000  Uiso   1.00
C1561  C     0.85715   0.75418   0.82856   0.00000  Uiso   1.00
C1562  C     0.89393   0.73905   0.85289   0.00000  Uiso   1.00
C1563  C     0.80315   0.90916   0.67153   0.00000  Uiso   1.00
C1564  C     0.81213   0.86051   0.95419   0.00000  Uiso   1.00
C1565  C     0.82360   0.92366   0.62225   0.00000  Uiso   1.00
C1566  C     0.90559   0.80755   0.52611   0.00000  Uiso   1.00
C1567  C     0.76423   0.86686   0.97532   0.00000  Uiso   1.00
C1568  C     0.95743   0.68754   0.76029   0.00000  Uiso   1.00
C1569  C     0.70998   0.97901   0.73990   0.00000  Uiso   1.00
C1570  C     0.95583   0.97805   0.76333   0.00000  Uiso   1.00
Cl1571 Cl    0.94097   0.78405   0.55878   0.00000  Uiso   1.00
Cl1572 Cl    0.72951   0.89174   0.94284   0.00000  Uiso   1.00
Cl1573 Cl    0.75687   0.78100   0.82329   0.00000  Uiso   1.00
Cl1574 Cl    0.90850   0.88561   0.67593   0.00000  Uiso   1.00
Cu1575 Cu    0.71355   0.83334   0.75000   0.00000  Uiso   1.00
Cu1576 Cu    0.95311   0.83333   0.75000   0.00000  Uiso   1.00
H1577  H     0.77752   0.81452   0.61344   0.00000  Uiso   1.00
H1578  H     0.74367   0.96329   0.73303   0.00000  Uiso   1.00
H1579  H     0.88722   0.95678   0.72908   0.00000  Uiso   1.00
H1580  H     0.86552   0.99739   0.76693   0.00000  Uiso   1.00
H1581  H     0.81957   0.94831   0.82522   0.00000  Uiso   1.00
H1582  H     0.80332   0.94309   0.77300   0.00000  Uiso   1.00
H1583  H     0.84168   0.90589   0.79071   0.00000  Uiso   1.00
H1584  H     0.74939   0.72856   0.66359   0.00000  Uiso   1.00
H1585  H     0.78205   0.68141   0.66659   0.00000  Uiso   1.00
H1586  H     0.84682   0.72203   0.68629   0.00000  Uiso   1.00
H1587  H     0.83756   0.73894   0.63241   0.00000  Uiso   1.00
H1588  H     0.88685   0.84700   0.88648   0.00000  Uiso   1.00
H1589  H     0.81450   0.76865   0.68124   0.00000  Uiso   1.00
H1590  H     0.86144   0.73871   0.79641   0.00000  Uiso   1.00
H1591  H     0.82195   0.74473   0.85157   0.00000  Uiso   1.00
H1592  H     0.88627   0.75177   0.88683   0.00000  Uiso   1.00
H1593  H     0.89204   0.70497   0.85704   0.00000  Uiso   1.00
H1594  H     0.93074   0.74884   0.83379   0.00000  Uiso   1.00
H1595  H     0.82092   0.92698   0.69283   0.00000  Uiso   1.00
H1596  H     0.76456   0.91616   0.68018   0.00000  Uiso   1.00
H1597  H     0.80381   0.90845   0.60085   0.00000  Uiso   1.00
H1598  H     0.81990   0.95743   0.61827   0.00000  Uiso   1.00
H1599  H     0.97551   0.85903   0.60464   0.00000  Uiso   1.00
H1600  H     0.86213   0.91618   0.61050   0.00000  Uiso   1.00
H1601  H     0.69324   0.81400   0.89563   0.00000  Uiso   1.00
H1602  H     0.99744   0.80155   0.97634   0.00000  Uiso   1.00
H1603  H     0.67257   0.87409   0.52463   0.00000  Uiso   1.00
H1604  H     0.84715   0.80471   0.58280   0.00000  Uiso   1.00
H1605  H     0.82406   0.87237   0.91969   0.00000  Uiso   1.00
H1606  H     0.92473   0.70390   0.77006   0.00000  Uiso   1.00
N1607  N     0.78403   0.83334   0.74999   0.00000  Uiso   1.00
N1608  N     0.88264   0.83332   0.75001   0.00000  Uiso   1.00
O1609  O     0.70625   0.77322   0.75000   0.00000  Uiso   1.00
O1610  O     0.75511   0.70887   0.72763   0.00000  Uiso   1.00
O1611  O     0.86078   0.79749   0.82230   0.00000  Uiso   1.00
O1612  O     0.80791   0.86615   0.67599   0.00000  Uiso   1.00
O1613  O     0.96042   0.89345   0.75000   0.00000  Uiso   1.00
O1614  O     0.96039   0.77321   0.75001   0.00000  Uiso   1.00
O1615  O     0.70628   0.89346   0.75000   0.00000  Uiso   1.00
O1616  O     0.68519   0.83334   0.81492   0.00000  Uiso   1.00
O1617  O     0.98148   0.83332   0.68509   0.00000  Uiso   1.00
O1618  O     0.93933   0.83333   0.81492   0.00000  Uiso   1.00
O1619  O     0.72733   0.83333   0.68508   0.00000  Uiso   1.00
O1620  O     0.91377   0.95675   0.78585   0.00000  Uiso   1.00
loop_
_geom_bond_atom_site_label_1
_geom_bond_atom_site_label_2
_geom_bond_distance
_geom_bond_site_symmetry_2
_ccdc_geom_bond_type
C1     O79     1.297   .     A
C1     C4      1.458   .     S
C1     O264    1.308   1_455 S
C2     C4      1.408   .     A
C2     O80     1.383   .     S
C2     C579    1.387   1_545 S
C3     C12     1.456   .     S
C3     C40     1.409   .     A
C3     C129    1.400   .     S
C4     C218    1.396   1_455 S
C5     O81     1.389   .     S
C5     C7      1.434   .     A
C5     N78     1.382   .     A
C6     O82     1.385   .     S
C6     N77     1.380   .     A
C6     C8      1.426   .     A
C7     Cl43    1.754   .     S
C7     N77     1.371   .     A
C8     N78     1.370   .     A
C8     Cl44    1.753   .     S
C9     O88     1.304   .     A
C9     C11     1.472   .     S
C9     O176    1.308   .     S
C10    O89     1.302   .     A
C10    C13     1.471   .     S
C10    O267    1.309   1_455 S
C11    C18     1.397   .     A
C11    C16     1.396   .     A
C12    O83     1.300   .     A
C12    O175    1.304   .     S
C13    C19     1.397   .     A
C13    C17     1.394   .     A
C14    C16     1.391   .     A
C14    H72     1.082   .     S
C14    C22     1.408   .     A
C15    C24     1.408   .     A
C15    H73     1.082   .     S
C15    C17     1.390   .     A
C16    H161    1.079   .     S
C17    H249    1.078   1_455 S
C18    H58     1.074   .     S
C18    C20     1.408   .     A
C19    C21     1.410   .     A
C19    H47     1.073   .     S
C20    C25     1.428   .     A
C20    C22     1.421   .     A
C21    C26     1.430   .     A
C21    C24     1.423   .     A
C22    C846    1.401   .     S
C23    C26     1.416   .     A
C23    H74     1.073   .     S
C23    C36     1.388   .     A
C24    C847    1.401   1_554 S
C25    C34     1.414   .     A
C25    C836    1.422   .     S
C26    C835    1.422   1_554 S
C27    O90     1.413   .     S
C27    H50     1.110   .     S
C27    C28     1.522   .     S
C27    H49     1.112   .     S
C28    H51     1.111   .     S
C28    H53     1.109   .     S
C28    H52     1.109   .     S
C29    H55     1.113   .     S
C29    C30     1.521   .     S
C29    O80     1.411   .     S
C29    H54     1.115   .     S
C30    H57     1.110   .     S
C30    H56     1.111   .     S
C30    H59     1.110   .     S
C31    H61     1.106   .     S
C31    H60     1.111   .     S
C31    C32     1.524   .     S
C31    O81     1.414   .     S
C32    H64     1.106   .     S
C32    H63     1.111   .     S
C32    H62     1.111   .     S
C33    H65     1.114   .     S
C33    O82     1.412   .     S
C33    H66     1.104   .     S
C33    C35     1.524   .     S
C34    C37     1.387   .     A
C34    H75     1.076   .     S
C35    H67     1.111   .     S
C35    H70     1.109   .     S
C35    H68     1.110   .     S
C36    Cl41    1.765   .     S
C36    C832    1.401   1_554 S
C37    Cl42    1.766   .     S
C37    C834    1.401   .     S
C38    H76     1.068   .     S
C38    C94     1.396   .     S
C38    C580    1.393   1_545 S
C39    H48     1.079   .     S
C39    C183    1.400   1_455 S
C39    C272    1.387   .     S
C40    O90     1.390   .     S
C40    C308    1.393   .     S
Cu45   O85     1.971   .     S
Cu45   O89     1.931   .     S
Cu45   O79     1.968   .     S
Cu45   O86     1.948   .     S
Cu45   N77     2.036   .     S
Cu45   Cu226   2.709   1_455 S
Cu46   O88     1.931   .     S
Cu46   N78     2.036   .     S
Cu46   O84     1.971   .     S
Cu46   O87     1.948   .     S
Cu46   O83     1.968   .     S
Cu46   Cu135   2.709   .     S
H69    C107    1.078   .     S
H71    C196    1.079   1_455 S
O84    C91     1.308   .     S
O85    C192    1.304   1_455 S
O86    C189    1.308   1_455 S
O87    C100    1.309   .     S
C91    O169    1.297   .     A
C91    C94     1.458   .     S
C92    C94     1.408   .     A
C92    O170    1.383   .     S
C92    C669    1.387   1_545 S
C93    C102    1.456   .     S
C93    C130    1.409   .     A
C93    C219    1.400   .     S
C95    O171    1.389   .     S
C95    C97     1.434   .     A
C95    N168    1.382   .     A
C96    O172    1.385   .     S
C96    N167    1.380   .     A
C96    C98     1.426   .     A
C97    Cl133   1.754   .     S
C97    N167    1.371   .     A
C98    N168    1.370   .     A
C98    Cl134   1.753   .     S
C99    O178    1.304   .     A
C99    C101    1.472   .     S
C99    O266    1.308   .     S
C100   O179    1.302   .     A
C100   C103    1.471   .     S
C101   C108    1.397   .     A
C101   C106    1.396   .     A
C102   O173    1.300   .     A
C102   O265    1.304   .     S
C103   C109    1.397   .     A
C103   C107    1.394   .     A
C104   C106    1.391   .     A
C104   H162    1.082   .     S
C104   C112    1.408   .     A
C105   C114    1.408   .     A
C105   H163    1.082   .     S
C105   C107    1.390   .     A
C106   H251    1.079   .     S
C108   H148    1.074   .     S
C108   C110    1.408   .     A
C109   C111    1.410   .     A
C109   H137    1.073   .     S
C110   C115    1.428   .     A
C110   C112    1.421   .     A
C111   C116    1.430   .     A
C111   C114    1.423   .     A
C112   C936    1.401   .     S
C113   C116    1.416   .     A
C113   H164    1.073   .     S
C113   C126    1.388   .     A
C114   C937    1.401   1_554 S
C115   C124    1.414   .     A
C115   C926    1.422   .     S
C116   C925    1.422   1_554 S
C117   O180    1.413   .     S
C117   H140    1.110   .     S
C117   C118    1.522   .     S
C117   H139    1.112   .     S
C118   H141    1.111   .     S
C118   H143    1.109   .     S
C118   H142    1.109   .     S
C119   H145    1.113   .     S
C119   C120    1.521   .     S
C119   O170    1.411   .     S
C119   H144    1.115   .     S
C120   H147    1.110   .     S
C120   H146    1.111   .     S
C120   H149    1.110   .     S
C121   H151    1.106   .     S
C121   H150    1.111   .     S
C121   C122    1.524   .     S
C121   O171    1.414   .     S
C122   H154    1.106   .     S
C122   H153    1.111   .     S
C122   H152    1.111   .     S
C123   H155    1.114   .     S
C123   O172    1.412   .     S
C123   H156    1.104   .     S
C123   C125    1.524   .     S
C124   C127    1.387   .     A
C124   H165    1.076   .     S
C125   H157    1.111   .     S
C125   H160    1.109   .     S
C125   H158    1.110   .     S
C126   Cl131   1.765   .     S
C126   C922    1.401   1_554 S
C127   Cl132   1.766   .     S
C127   C924    1.401   .     S
C128   H166    1.068   .     S
C128   C184    1.396   .     S
C128   C670    1.393   1_545 S
C129   H138    1.079   .     S
C129   C362    1.387   .     S
C130   O180    1.390   .     S
C130   C398    1.393   .     S
Cu135  O175    1.971   .     S
Cu135  O179    1.931   .     S
Cu135  O169    1.968   .     S
Cu135  O176    1.948   .     S
Cu135  N167    2.036   .     S
Cu136  O178    1.931   .     S
Cu136  N168    2.036   .     S
Cu136  O174    1.971   .     S
Cu136  O177    1.948   .     S
Cu136  O173    1.968   .     S
Cu136  Cu225   2.709   .     S
H159   C197    1.078   .     S
O174   C181    1.308   .     S
O177   C190    1.309   .     S
C181   O259    1.297   .     A
C181   C184    1.458   .     S
C182   C184    1.408   .     A
C182   O260    1.383   .     S
C182   C759    1.387   1_545 S
C183   C192    1.456   .     S
C183   C220    1.409   .     A
C183   C39     1.400   1_655 S
C185   O261    1.389   .     S
C185   C187    1.434   .     A
C185   N258    1.382   .     A
C186   O262    1.385   .     S
C186   N257    1.380   .     A
C186   C188    1.426   .     A
C187   Cl223   1.754   .     S
C187   N257    1.371   .     A
C188   N258    1.370   .     A
C188   Cl224   1.753   .     S
C189   O268    1.304   .     A
C189   C191    1.472   .     S
C189   O86     1.308   1_655 S
C190   O269    1.302   .     A
C190   C193    1.471   .     S
C191   C198    1.397   .     A
C191   C196    1.396   .     A
C192   O263    1.300   .     A
C192   O85     1.304   1_655 S
C193   C199    1.397   .     A
C193   C197    1.394   .     A
C194   C196    1.391   .     A
C194   H252    1.082   .     S
C194   C202    1.408   .     A
C195   C204    1.408   .     A
C195   H253    1.082   .     S
C195   C197    1.390   .     A
C196   H71     1.079   1_655 S
C198   H238    1.074   .     S
C198   C200    1.408   .     A
C199   C201    1.410   .     A
C199   H227    1.073   .     S
C200   C205    1.428   .     A
C200   C202    1.421   .     A
C201   C206    1.430   .     A
C201   C204    1.423   .     A
C202   C1026   1.401   .     S
C203   C206    1.416   .     A
C203   H254    1.073   .     S
C203   C216    1.388   .     A
C204   C1027   1.401   1_554 S
C205   C214    1.414   .     A
C205   C1016   1.422   .     S
C206   C1015   1.422   1_554 S
C207   O270    1.413   .     S
C207   H230    1.110   .     S
C207   C208    1.522   .     S
C207   H229    1.112   .     S
C208   H231    1.111   .     S
C208   H233    1.109   .     S
C208   H232    1.109   .     S
C209   H235    1.113   .     S
C209   C210    1.521   .     S
C209   O260    1.411   .     S
C209   H234    1.115   .     S
C210   H237    1.110   .     S
C210   H236    1.111   .     S
C210   H239    1.110   .     S
C211   H241    1.106   .     S
C211   H240    1.111   .     S
C211   C212    1.524   .     S
C211   O261    1.414   .     S
C212   H244    1.106   .     S
C212   H243    1.111   .     S
C212   H242    1.111   .     S
C213   H245    1.114   .     S
C213   O262    1.412   .     S
C213   H246    1.104   .     S
C213   C215    1.524   .     S
C214   C217    1.387   .     A
C214   H255    1.076   .     S
C215   H247    1.111   .     S
C215   H250    1.109   .     S
C215   H248    1.110   .     S
C216   Cl221   1.765   .     S
C216   C1012   1.401   1_554 S
C217   Cl222   1.766   .     S
C217   C1014   1.401   .     S
C218   H256    1.068   .     S
C218   C4      1.396   1_655 S
C218   C760    1.393   1_545 S
C219   H228    1.079   .     S
C219   C452    1.387   .     S
C220   O270    1.390   .     S
C220   C488    1.393   .     S
Cu225  O265    1.971   .     S
Cu225  O269    1.931   .     S
Cu225  O259    1.968   .     S
Cu225  O266    1.948   .     S
Cu225  N257    2.036   .     S
Cu226  O268    1.931   .     S
Cu226  N258    2.036   .     S
Cu226  O264    1.971   .     S
Cu226  O267    1.948   .     S
Cu226  O263    1.968   .     S
Cu226  Cu45    2.709   1_655 S
H249   C17     1.078   1_655 S
O264   C1      1.308   1_655 S
O267   C10     1.309   1_655 S
C271   O349    1.297   .     A
C271   C274    1.458   .     S
C271   O534    1.308   1_455 S
C272   C274    1.408   .     A
C272   O350    1.383   .     S
C273   C282    1.456   .     S
C273   C310    1.409   .     A
C273   C399    1.400   .     S
C274   C488    1.396   1_455 S
C275   O351    1.389   .     S
C275   C277    1.434   .     A
C275   N348    1.382   .     A
C276   O352    1.385   .     S
C276   N347    1.380   .     A
C276   C278    1.426   .     A
C277   Cl313   1.754   .     S
C277   N347    1.371   .     A
C278   N348    1.370   .     A
C278   Cl314   1.753   .     S
C279   O358    1.304   .     A
C279   C281    1.472   .     S
C279   O446    1.308   .     S
C280   O359    1.302   .     A
C280   C283    1.471   .     S
C280   O537    1.309   1_455 S
C281   C288    1.397   .     A
C281   C286    1.396   .     A
C282   O353    1.300   .     A
C282   O445    1.304   .     S
C283   C289    1.397   .     A
C283   C287    1.394   .     A
C284   C286    1.391   .     A
C284   H342    1.082   .     S
C284   C292    1.408   .     A
C285   C294    1.408   .     A
C285   H343    1.082   .     S
C285   C287    1.390   .     A
C286   H431    1.079   .     S
C287   H519    1.078   1_455 S
C288   H328    1.074   .     S
C288   C290    1.408   .     A
C289   C291    1.410   .     A
C289   H317    1.073   .     S
C290   C295    1.428   .     A
C290   C292    1.421   .     A
C291   C296    1.430   .     A
C291   C294    1.423   .     A
C292   C1116   1.401   .     S
C293   C296    1.416   .     A
C293   H344    1.073   .     S
C293   C306    1.388   .     A
C294   C1117   1.401   1_554 S
C295   C304    1.414   .     A
C295   C1106   1.422   .     S
C296   C1105   1.422   1_554 S
C297   O360    1.413   .     S
C297   H320    1.110   .     S
C297   C298    1.522   .     S
C297   H319    1.112   .     S
C298   H321    1.111   .     S
C298   H323    1.109   .     S
C298   H322    1.109   .     S
C299   H325    1.113   .     S
C299   C300    1.521   .     S
C299   O350    1.411   .     S
C299   H324    1.115   .     S
C300   H327    1.110   .     S
C300   H326    1.111   .     S
C300   H329    1.110   .     S
C301   H331    1.106   .     S
C301   H330    1.111   .     S
C301   C302    1.524   .     S
C301   O351    1.414   .     S
C302   H334    1.106   .     S
C302   H333    1.111   .     S
C302   H332    1.111   .     S
C303   H335    1.114   .     S
C303   O352    1.412   .     S
C303   H336    1.104   .     S
C303   C305    1.524   .     S
C304   C307    1.387   .     A
C304   H345    1.076   .     S
C305   H337    1.111   .     S
C305   H340    1.109   .     S
C305   H338    1.110   .     S
C306   Cl311   1.765   .     S
C306   C1102   1.401   1_554 S
C307   Cl312   1.766   .     S
C307   C1104   1.401   .     S
C308   H346    1.068   .     S
C308   C364    1.396   .     S
C309   H318    1.079   .     S
C309   C453    1.400   1_455 S
C309   C542    1.387   .     S
C310   O360    1.390   .     S
C310   C578    1.393   .     S
Cu315  O355    1.971   .     S
Cu315  O359    1.931   .     S
Cu315  O349    1.968   .     S
Cu315  O356    1.948   .     S
Cu315  N347    2.036   .     S
Cu315  Cu496   2.709   1_455 S
Cu316  O358    1.931   .     S
Cu316  N348    2.036   .     S
Cu316  O354    1.971   .     S
Cu316  O357    1.948   .     S
Cu316  O353    1.968   .     S
Cu316  Cu405   2.709   .     S
H339   C377    1.078   .     S
H341   C466    1.079   1_455 S
O354   C361    1.308   .     S
O355   C462    1.304   1_455 S
O356   C459    1.308   1_455 S
O357   C370    1.309   .     S
C361   O439    1.297   .     A
C361   C364    1.458   .     S
C362   C364    1.408   .     A
C362   O440    1.383   .     S
C363   C372    1.456   .     S
C363   C400    1.409   .     A
C363   C489    1.400   .     S
C365   O441    1.389   .     S
C365   C367    1.434   .     A
C365   N438    1.382   .     A
C366   O442    1.385   .     S
C366   N437    1.380   .     A
C366   C368    1.426   .     A
C367   Cl403   1.754   .     S
C367   N437    1.371   .     A
C368   N438    1.370   .     A
C368   Cl404   1.753   .     S
C369   O448    1.304   .     A
C369   C371    1.472   .     S
C369   O536    1.308   .     S
C370   O449    1.302   .     A
C370   C373    1.471   .     S
C371   C378    1.397   .     A
C371   C376    1.396   .     A
C372   O443    1.300   .     A
C372   O535    1.304   .     S
C373   C379    1.397   .     A
C373   C377    1.394   .     A
C374   C376    1.391   .     A
C374   H432    1.082   .     S
C374   C382    1.408   .     A
C375   C384    1.408   .     A
C375   H433    1.082   .     S
C375   C377    1.390   .     A
C376   H521    1.079   .     S
C378   H418    1.074   .     S
C378   C380    1.408   .     A
C379   C381    1.410   .     A
C379   H407    1.073   .     S
C380   C385    1.428   .     A
C380   C382    1.421   .     A
C381   C386    1.430   .     A
C381   C384    1.423   .     A
C382   C1206   1.401   .     S
C383   C386    1.416   .     A
C383   H434    1.073   .     S
C383   C396    1.388   .     A
C384   C1207   1.401   1_554 S
C385   C394    1.414   .     A
C385   C1196   1.422   .     S
C386   C1195   1.422   1_554 S
C387   O450    1.413   .     S
C387   H410    1.110   .     S
C387   C388    1.522   .     S
C387   H409    1.112   .     S
C388   H411    1.111   .     S
C388   H413    1.109   .     S
C388   H412    1.109   .     S
C389   H415    1.113   .     S
C389   C390    1.521   .     S
C389   O440    1.411   .     S
C389   H414    1.115   .     S
C390   H417    1.110   .     S
C390   H416    1.111   .     S
C390   H419    1.110   .     S
C391   H421    1.106   .     S
C391   H420    1.111   .     S
C391   C392    1.524   .     S
C391   O441    1.414   .     S
C392   H424    1.106   .     S
C392   H423    1.111   .     S
C392   H422    1.111   .     S
C393   H425    1.114   .     S
C393   O442    1.412   .     S
C393   H426    1.104   .     S
C393   C395    1.524   .     S
C394   C397    1.387   .     A
C394   H435    1.076   .     S
C395   H427    1.111   .     S
C395   H430    1.109   .     S
C395   H428    1.110   .     S
C396   Cl401   1.765   .     S
C396   C1192   1.401   1_554 S
C397   Cl402   1.766   .     S
C397   C1194   1.401   .     S
C398   H436    1.068   .     S
C398   C454    1.396   .     S
C399   H408    1.079   .     S
C399   C632    1.387   .     S
C400   O450    1.390   .     S
C400   C668    1.393   .     S
Cu405  O445    1.971   .     S
Cu405  O449    1.931   .     S
Cu405  O439    1.968   .     S
Cu405  O446    1.948   .     S
Cu405  N437    2.036   .     S
Cu406  O448    1.931   .     S
Cu406  N438    2.036   .     S
Cu406  O444    1.971   .     S
Cu406  O447    1.948   .     S
Cu406  O443    1.968   .     S
Cu406  Cu495   2.709   .     S
H429   C467    1.078   .     S
O444   C451    1.308   .     S
O447   C460    1.309   .     S
C451   O529    1.297   .     A
C451   C454    1.458   .     S
C452   C454    1.408   .     A
C452   O530    1.383   .     S
C453   C462    1.456   .     S
C453   C490    1.409   .     A
C453   C309    1.400   1_655 S
C455   O531    1.389   .     S
C455   C457    1.434   .     A
C455   N528    1.382   .     A
C456   O532    1.385   .     S
C456   N527    1.380   .     A
C456   C458    1.426   .     A
C457   Cl493   1.754   .     S
C457   N527    1.371   .     A
C458   N528    1.370   .     A
C458   Cl494   1.753   .     S
C459   O538    1.304   .     A
C459   C461    1.472   .     S
C459   O356    1.308   1_655 S
C460   O539    1.302   .     A
C460   C463    1.471   .     S
C461   C468    1.397   .     A
C461   C466    1.396   .     A
C462   O533    1.300   .     A
C462   O355    1.304   1_655 S
C463   C469    1.397   .     A
C463   C467    1.394   .     A
C464   C466    1.391   .     A
C464   H522    1.082   .     S
C464   C472    1.408   .     A
C465   C474    1.408   .     A
C465   H523    1.082   .     S
C465   C467    1.390   .     A
C466   H341    1.079   1_655 S
C468   H508    1.074   .     S
C468   C470    1.408   .     A
C469   C471    1.410   .     A
C469   H497    1.073   .     S
C470   C475    1.428   .     A
C470   C472    1.421   .     A
C471   C476    1.430   .     A
C471   C474    1.423   .     A
C472   C1296   1.401   .     S
C473   C476    1.416   .     A
C473   H524    1.073   .     S
C473   C486    1.388   .     A
C474   C1297   1.401   1_554 S
C475   C484    1.414   .     A
C475   C1286   1.422   .     S
C476   C1285   1.422   1_554 S
C477   O540    1.413   .     S
C477   H500    1.110   .     S
C477   C478    1.522   .     S
C477   H499    1.112   .     S
C478   H501    1.111   .     S
C478   H503    1.109   .     S
C478   H502    1.109   .     S
C479   H505    1.113   .     S
C479   C480    1.521   .     S
C479   O530    1.411   .     S
C479   H504    1.115   .     S
C480   H507    1.110   .     S
C480   H506    1.111   .     S
C480   H509    1.110   .     S
C481   H511    1.106   .     S
C481   H510    1.111   .     S
C481   C482    1.524   .     S
C481   O531    1.414   .     S
C482   H514    1.106   .     S
C482   H513    1.111   .     S
C482   H512    1.111   .     S
C483   H515    1.114   .     S
C483   O532    1.412   .     S
C483   H516    1.104   .     S
C483   C485    1.524   .     S
C484   C487    1.387   .     A
C484   H525    1.076   .     S
C485   H517    1.111   .     S
C485   H520    1.109   .     S
C485   H518    1.110   .     S
C486   Cl491   1.765   .     S
C486   C1282   1.401   1_554 S
C487   Cl492   1.766   .     S
C487   C1284   1.401   .     S
C488   H526    1.068   .     S
C488   C274    1.396   1_655 S
C489   H498    1.079   .     S
C489   C722    1.387   .     S
C490   O540    1.390   .     S
C490   C758    1.393   .     S
Cu495  O535    1.971   .     S
Cu495  O539    1.931   .     S
Cu495  O529    1.968   .     S
Cu495  O536    1.948   .     S
Cu495  N527    2.036   .     S
Cu496  O538    1.931   .     S
Cu496  N528    2.036   .     S
Cu496  O534    1.971   .     S
Cu496  O537    1.948   .     S
Cu496  O533    1.968   .     S
Cu496  Cu315   2.709   1_655 S
H519   C287    1.078   1_655 S
O534   C271    1.308   1_655 S
O537   C280    1.309   1_655 S
C541   O619    1.297   .     A
C541   C544    1.458   .     S
C541   O804    1.308   1_455 S
C542   C544    1.408   .     A
C542   O620    1.383   .     S
C543   C552    1.456   .     S
C543   C580    1.409   .     A
C543   C669    1.400   .     S
C544   C758    1.396   1_455 S
C545   O621    1.389   .     S
C545   C547    1.434   .     A
C545   N618    1.382   .     A
C546   O622    1.385   .     S
C546   N617    1.380   .     A
C546   C548    1.426   .     A
C547   Cl583   1.754   .     S
C547   N617    1.371   .     A
C548   N618    1.370   .     A
C548   Cl584   1.753   .     S
C549   O628    1.304   .     A
C549   C551    1.472   .     S
C549   O716    1.308   .     S
C550   O629    1.302   .     A
C550   C553    1.471   .     S
C550   O807    1.309   1_455 S
C551   C558    1.397   .     A
C551   C556    1.396   .     A
C552   O623    1.300   .     A
C552   O715    1.304   .     S
C553   C559    1.397   .     A
C553   C557    1.394   .     A
C554   C556    1.391   .     A
C554   H612    1.082   .     S
C554   C562    1.408   .     A
C555   C564    1.408   .     A
C555   H613    1.082   .     S
C555   C557    1.390   .     A
C556   H701    1.079   .     S
C557   H789    1.078   1_455 S
C558   H598    1.074   .     S
C558   C560    1.408   .     A
C559   C561    1.410   .     A
C559   H587    1.073   .     S
C560   C565    1.428   .     A
C560   C562    1.421   .     A
C561   C566    1.430   .     A
C561   C564    1.423   .     A
C562   C1386   1.401   .     S
C563   C566    1.416   .     A
C563   H614    1.073   .     S
C563   C576    1.388   .     A
C564   C1387   1.401   1_554 S
C565   C574    1.414   .     A
C565   C1376   1.422   .     S
C566   C1375   1.422   1_554 S
C567   O630    1.413   .     S
C567   H590    1.110   .     S
C567   C568    1.522   .     S
C567   H589    1.112   .     S
C568   H591    1.111   .     S
C568   H593    1.109   .     S
C568   H592    1.109   .     S
C569   H595    1.113   .     S
C569   C570    1.521   .     S
C569   O620    1.411   .     S
C569   H594    1.115   .     S
C570   H597    1.110   .     S
C570   H596    1.111   .     S
C570   H599    1.110   .     S
C571   H601    1.106   .     S
C571   H600    1.111   .     S
C571   C572    1.524   .     S
C571   O621    1.414   .     S
C572   H604    1.106   .     S
C572   H603    1.111   .     S
C572   H602    1.111   .     S
C573   H605    1.114   .     S
C573   O622    1.412   .     S
C573   H606    1.104   .     S
C573   C575    1.524   .     S
C574   C577    1.387   .     A
C574   H615    1.076   .     S
C575   H607    1.111   .     S
C575   H610    1.109   .     S
C575   H608    1.110   .     S
C576   Cl581   1.765   .     S
C576   C1372   1.401   1_554 S
C577   Cl582   1.766   .     S
C577   C1374   1.401   .     S
C578   H616    1.068   .     S
C578   C634    1.396   .     S
C579   H588    1.079   .     S
C579   C723    1.400   1_455 S
C579   C2      1.387   1_565 S
C580   O630    1.390   .     S
C580   C38     1.393   1_565 S
Cu585  O625    1.971   .     S
Cu585  O629    1.931   .     S
Cu585  O619    1.968   .     S
Cu585  O626    1.948   .     S
Cu585  N617    2.036   .     S
Cu585  Cu766   2.709   1_455 S
Cu586  O628    1.931   .     S
Cu586  N618    2.036   .     S
Cu586  O624    1.971   .     S
Cu586  O627    1.948   .     S
Cu586  O623    1.968   .     S
Cu586  Cu675   2.709   .     S
H609   C647    1.078   .     S
H611   C736    1.079   1_455 S
O624   C631    1.308   .     S
O625   C732    1.304   1_455 S
O626   C729    1.308   1_455 S
O627   C640    1.309   .     S
C631   O709    1.297   .     A
C631   C634    1.458   .     S
C632   C634    1.408   .     A
C632   O710    1.383   .     S
C633   C642    1.456   .     S
C633   C670    1.409   .     A
C633   C759    1.400   .     S
C635   O711    1.389   .     S
C635   C637    1.434   .     A
C635   N708    1.382   .     A
C636   O712    1.385   .     S
C636   N707    1.380   .     A
C636   C638    1.426   .     A
C637   Cl673   1.754   .     S
C637   N707    1.371   .     A
C638   N708    1.370   .     A
C638   Cl674   1.753   .     S
C639   O718    1.304   .     A
C639   C641    1.472   .     S
C639   O806    1.308   .     S
C640   O719    1.302   .     A
C640   C643    1.471   .     S
C641   C648    1.397   .     A
C641   C646    1.396   .     A
C642   O713    1.300   .     A
C642   O805    1.304   .     S
C643   C649    1.397   .     A
C643   C647    1.394   .     A
C644   C646    1.391   .     A
C644   H702    1.082   .     S
C644   C652    1.408   .     A
C645   C654    1.408   .     A
C645   H703    1.082   .     S
C645   C647    1.390   .     A
C646   H791    1.079   .     S
C648   H688    1.074   .     S
C648   C650    1.408   .     A
C649   C651    1.410   .     A
C649   H677    1.073   .     S
C650   C655    1.428   .     A
C650   C652    1.421   .     A
C651   C656    1.430   .     A
C651   C654    1.423   .     A
C652   C1476   1.401   .     S
C653   C656    1.416   .     A
C653   H704    1.073   .     S
C653   C666    1.388   .     A
C654   C1477   1.401   1_554 S
C655   C664    1.414   .     A
C655   C1466   1.422   .     S
C656   C1465   1.422   1_554 S
C657   O720    1.413   .     S
C657   H680    1.110   .     S
C657   C658    1.522   .     S
C657   H679    1.112   .     S
C658   H681    1.111   .     S
C658   H683    1.109   .     S
C658   H682    1.109   .     S
C659   H685    1.113   .     S
C659   C660    1.521   .     S
C659   O710    1.411   .     S
C659   H684    1.115   .     S
C660   H687    1.110   .     S
C660   H686    1.111   .     S
C660   H689    1.110   .     S
C661   H691    1.106   .     S
C661   H690    1.111   .     S
C661   C662    1.524   .     S
C661   O711    1.414   .     S
C662   H694    1.106   .     S
C662   H693    1.111   .     S
C662   H692    1.111   .     S
C663   H695    1.114   .     S
C663   O712    1.412   .     S
C663   H696    1.104   .     S
C663   C665    1.524   .     S
C664   C667    1.387   .     A
C664   H705    1.076   .     S
C665   H697    1.111   .     S
C665   H700    1.109   .     S
C665   H698    1.110   .     S
C666   Cl671   1.765   .     S
C666   C1462   1.401   1_554 S
C667   Cl672   1.766   .     S
C667   C1464   1.401   .     S
C668   H706    1.068   .     S
C668   C724    1.396   .     S
C669   H678    1.079   .     S
C669   C92     1.387   1_565 S
C670   O720    1.390   .     S
C670   C128    1.393   1_565 S
Cu675  O715    1.971   .     S
Cu675  O719    1.931   .     S
Cu675  O709    1.968   .     S
Cu675  O716    1.948   .     S
Cu675  N707    2.036   .     S
Cu676  O718    1.931   .     S
Cu676  N708    2.036   .     S
Cu676  O714    1.971   .     S
Cu676  O717    1.948   .     S
Cu676  O713    1.968   .     S
Cu676  Cu765   2.709   .     S
H699   C737    1.078   .     S
O714   C721    1.308   .     S
O717   C730    1.309   .     S
C721   O799    1.297   .     A
C721   C724    1.458   .     S
C722   C724    1.408   .     A
C722   O800    1.383   .     S
C723   C732    1.456   .     S
C723   C760    1.409   .     A
C723   C579    1.400   1_655 S
C725   O801    1.389   .     S
C725   C727    1.434   .     A
C725   N798    1.382   .     A
C726   O802    1.385   .     S
C726   N797    1.380   .     A
C726   C728    1.426   .     A
C727   Cl763   1.754   .     S
C727   N797    1.371   .     A
C728   N798    1.370   .     A
C728   Cl764   1.753   .     S
C729   O808    1.304   .     A
C729   C731    1.472   .     S
C729   O626    1.308   1_655 S
C730   O809    1.302   .     A
C730   C733    1.471   .     S
C731   C738    1.397   .     A
C731   C736    1.396   .     A
C732   O803    1.300   .     A
C732   O625    1.304   1_655 S
C733   C739    1.397   .     A
C733   C737    1.394   .     A
C734   C736    1.391   .     A
C734   H792    1.082   .     S
C734   C742    1.408   .     A
C735   C744    1.408   .     A
C735   H793    1.082   .     S
C735   C737    1.390   .     A
C736   H611    1.079   1_655 S
C738   H778    1.074   .     S
C738   C740    1.408   .     A
C739   C741    1.410   .     A
C739   H767    1.073   .     S
C740   C745    1.428   .     A
C740   C742    1.421   .     A
C741   C746    1.430   .     A
C741   C744    1.423   .     A
C742   C1566   1.401   .     S
C743   C746    1.416   .     A
C743   H794    1.073   .     S
C743   C756    1.388   .     A
C744   C1567   1.401   1_554 S
C745   C754    1.414   .     A
C745   C1556   1.422   .     S
C746   C1555   1.422   1_554 S
C747   O810    1.413   .     S
C747   H770    1.110   .     S
C747   C748    1.522   .     S
C747   H769    1.112   .     S
C748   H771    1.111   .     S
C748   H773    1.109   .     S
C748   H772    1.109   .     S
C749   H775    1.113   .     S
C749   C750    1.521   .     S
C749   O800    1.411   .     S
C749   H774    1.115   .     S
C750   H777    1.110   .     S
C750   H776    1.111   .     S
C750   H779    1.110   .     S
C751   H781    1.106   .     S
C751   H780    1.111   .     S
C751   C752    1.524   .     S
C751   O801    1.414   .     S
C752   H784    1.106   .     S
C752   H783    1.111   .     S
C752   H782    1.111   .     S
C753   H785    1.114   .     S
C753   O802    1.412   .     S
C753   H786    1.104   .     S
C753   C755    1.524   .     S
C754   C757    1.387   .     A
C754   H795    1.076   .     S
C755   H787    1.111   .     S
C755   H790    1.109   .     S
C755   H788    1.110   .     S
C756   Cl761   1.765   .     S
C756   C1552   1.401   1_554 S
C757   Cl762   1.766   .     S
C757   C1554   1.401   .     S
C758   H796    1.068   .     S
C758   C544    1.396   1_655 S
C759   H768    1.079   .     S
C759   C182    1.387   1_565 S
C760   O810    1.390   .     S
C760   C218    1.393   1_565 S
Cu765  O805    1.971   .     S
Cu765  O809    1.931   .     S
Cu765  O799    1.968   .     S
Cu765  O806    1.948   .     S
Cu765  N797    2.036   .     S
Cu766  O808    1.931   .     S
Cu766  N798    2.036   .     S
Cu766  O804    1.971   .     S
Cu766  O807    1.948   .     S
Cu766  O803    1.968   .     S
Cu766  Cu585   2.709   1_655 S
H789   C557    1.078   1_655 S
O804   C541    1.308   1_655 S
O807   C550    1.309   1_655 S
C811   O889    1.297   .     A
C811   C814    1.458   .     S
C811   O1074   1.308   1_455 S
C812   C814    1.408   .     A
C812   O890    1.383   .     S
C812   C1389   1.387   1_545 S
C813   C822    1.456   .     S
C813   C850    1.409   .     A
C813   C939    1.400   .     S
C814   C1028   1.396   1_455 S
C815   O891    1.389   .     S
C815   C817    1.434   .     A
C815   N888    1.382   .     A
C816   O892    1.385   .     S
C816   N887    1.380   .     A
C816   C818    1.426   .     A
C817   Cl853   1.754   .     S
C817   N887    1.371   .     A
C818   N888    1.370   .     A
C818   Cl854   1.753   .     S
C819   O898    1.304   .     A
C819   C821    1.472   .     S
C819   O986    1.308   .     S
C820   O899    1.302   .     A
C820   C823    1.471   .     S
C820   O1077   1.309   1_455 S
C821   C828    1.397   .     A
C821   C826    1.396   .     A
C822   O893    1.300   .     A
C822   O985    1.304   .     S
C823   C829    1.397   .     A
C823   C827    1.394   .     A
C824   C826    1.391   .     A
C824   H882    1.082   .     S
C824   C832    1.408   .     A
C825   C834    1.408   .     A
C825   H883    1.082   .     S
C825   C827    1.390   .     A
C826   H971    1.079   .     S
C827   H1059   1.078   1_455 S
C828   H868    1.074   .     S
C828   C830    1.408   .     A
C829   C831    1.410   .     A
C829   H857    1.073   .     S
C830   C835    1.428   .     A
C830   C832    1.421   .     A
C831   C836    1.430   .     A
C831   C834    1.423   .     A
C832   C36     1.401   1_556 S
C833   C836    1.416   .     A
C833   H884    1.073   .     S
C833   C846    1.388   .     A
C835   C844    1.414   .     A
C835   C26     1.422   1_556 S
C837   O900    1.413   .     S
C837   H860    1.110   .     S
C837   C838    1.522   .     S
C837   H859    1.112   .     S
C838   H861    1.111   .     S
C838   H863    1.109   .     S
C838   H862    1.109   .     S
C839   H865    1.113   .     S
C839   C840    1.521   .     S
C839   O890    1.411   .     S
C839   H864    1.115   .     S
C840   H867    1.110   .     S
C840   H866    1.111   .     S
C840   H869    1.110   .     S
C841   H871    1.106   .     S
C841   H870    1.111   .     S
C841   C842    1.524   .     S
C841   O891    1.414   .     S
C842   H874    1.106   .     S
C842   H873    1.111   .     S
C842   H872    1.111   .     S
C843   H875    1.114   .     S
C843   O892    1.412   .     S
C843   H876    1.104   .     S
C843   C845    1.524   .     S
C844   C847    1.387   .     A
C844   H885    1.076   .     S
C845   H877    1.111   .     S
C845   H880    1.109   .     S
C845   H878    1.110   .     S
C846   Cl851   1.765   .     S
C847   Cl852   1.766   .     S
C847   C24     1.401   1_556 S
C848   H886    1.068   .     S
C848   C904    1.396   .     S
C848   C1390   1.393   1_545 S
C849   H858    1.079   .     S
C849   C993    1.400   1_455 S
C849   C1082   1.387   .     S
C850   O900    1.390   .     S
C850   C1118   1.393   .     S
Cu855  O895    1.971   .     S
Cu855  O899    1.931   .     S
Cu855  O889    1.968   .     S
Cu855  O896    1.948   .     S
Cu855  N887    2.036   .     S
Cu855  Cu1036  2.709   1_455 S
Cu856  O898    1.931   .     S
Cu856  N888    2.036   .     S
Cu856  O894    1.971   .     S
Cu856  O897    1.948   .     S
Cu856  O893    1.968   .     S
Cu856  Cu945   2.709   .     S
H879   C917    1.078   .     S
H881   C1006   1.079   1_455 S
O894   C901    1.308   .     S
O895   C1002   1.304   1_455 S
O896   C999    1.308   1_455 S
O897   C910    1.309   .     S
C901   O979    1.297   .     A
C901   C904    1.458   .     S
C902   C904    1.408   .     A
C902   O980    1.383   .     S
C902   C1479   1.387   1_545 S
C903   C912    1.456   .     S
C903   C940    1.409   .     A
C903   C1029   1.400   .     S
C905   O981    1.389   .     S
C905   C907    1.434   .     A
C905   N978    1.382   .     A
C906   O982    1.385   .     S
C906   N977    1.380   .     A
C906   C908    1.426   .     A
C907   Cl943   1.754   .     S
C907   N977    1.371   .     A
C908   N978    1.370   .     A
C908   Cl944   1.753   .     S
C909   O988    1.304   .     A
C909   C911    1.472   .     S
C909   O1076   1.308   .     S
C910   O989    1.302   .     A
C910   C913    1.471   .     S
C911   C918    1.397   .     A
C911   C916    1.396   .     A
C912   O983    1.300   .     A
C912   O1075   1.304   .     S
C913   C919    1.397   .     A
C913   C917    1.394   .     A
C914   C916    1.391   .     A
C914   H972    1.082   .     S
C914   C922    1.408   .     A
C915   C924    1.408   .     A
C915   H973    1.082   .     S
C915   C917    1.390   .     A
C916   H1061   1.079   .     S
C918   H958    1.074   .     S
C918   C920    1.408   .     A
C919   C921    1.410   .     A
C919   H947    1.073   .     S
C920   C925    1.428   .     A
C920   C922    1.421   .     A
C921   C926    1.430   .     A
C921   C924    1.423   .     A
C922   C126    1.401   1_556 S
C923   C926    1.416   .     A
C923   H974    1.073   .     S
C923   C936    1.388   .     A
C925   C934    1.414   .     A
C925   C116    1.422   1_556 S
C927   O990    1.413   .     S
C927   H950    1.110   .     S
C927   C928    1.522   .     S
C927   H949    1.112   .     S
C928   H951    1.111   .     S
C928   H953    1.109   .     S
C928   H952    1.109   .     S
C929   H955    1.113   .     S
C929   C930    1.521   .     S
C929   O980    1.411   .     S
C929   H954    1.115   .     S
C930   H957    1.110   .     S
C930   H956    1.111   .     S
C930   H959    1.110   .     S
C931   H961    1.106   .     S
C931   H960    1.111   .     S
C931   C932    1.524   .     S
C931   O981    1.414   .     S
C932   H964    1.106   .     S
C932   H963    1.111   .     S
C932   H962    1.111   .     S
C933   H965    1.114   .     S
C933   O982    1.412   .     S
C933   H966    1.104   .     S
C933   C935    1.524   .     S
C934   C937    1.387   .     A
C934   H975    1.076   .     S
C935   H967    1.111   .     S
C935   H970    1.109   .     S
C935   H968    1.110   .     S
C936   Cl941   1.765   .     S
C937   Cl942   1.766   .     S
C937   C114    1.401   1_556 S
C938   H976    1.068   .     S
C938   C994    1.396   .     S
C938   C1480   1.393   1_545 S
C939   H948    1.079   .     S
C939   C1172   1.387   .     S
C940   O990    1.390   .     S
C940   C1208   1.393   .     S
Cu945  O985    1.971   .     S
Cu945  O989    1.931   .     S
Cu945  O979    1.968   .     S
Cu945  O986    1.948   .     S
Cu945  N977    2.036   .     S
Cu946  O988    1.931   .     S
Cu946  N978    2.036   .     S
Cu946  O984    1.971   .     S
Cu946  O987    1.948   .     S
Cu946  O983    1.968   .     S
Cu946  Cu1035  2.709   .     S
H969   C1007   1.078   .     S
O984   C991    1.308   .     S
O987   C1000   1.309   .     S
C991   O1069   1.297   .     A
C991   C994    1.458   .     S
C992   C994    1.408   .     A
C992   O1070   1.383   .     S
C992   C1569   1.387   1_545 S
C993   C1002   1.456   .     S
C993   C1030   1.409   .     A
C993   C849    1.400   1_655 S
C995   O1071   1.389   .     S
C995   C997    1.434   .     A
C995   N1068   1.382   .     A
C996   O1072   1.385   .     S
C996   N1067   1.380   .     A
C996   C998    1.426   .     A
C997   Cl1033  1.754   .     S
C997   N1067   1.371   .     A
C998   N1068   1.370   .     A
C998   Cl1034  1.753   .     S
C999   O1078   1.304   .     A
C999   C1001   1.472   .     S
C999   O896    1.308   1_655 S
C1000  O1079   1.302   .     A
C1000  C1003   1.471   .     S
C1001  C1008   1.397   .     A
C1001  C1006   1.396   .     A
C1002  O1073   1.300   .     A
C1002  O895    1.304   1_655 S
C1003  C1009   1.397   .     A
C1003  C1007   1.394   .     A
C1004  C1006   1.391   .     A
C1004  H1062   1.082   .     S
C1004  C1012   1.408   .     A
C1005  C1014   1.408   .     A
C1005  H1063   1.082   .     S
C1005  C1007   1.390   .     A
C1006  H881    1.079   1_655 S
C1008  H1048   1.074   .     S
C1008  C1010   1.408   .     A
C1009  C1011   1.410   .     A
C1009  H1037   1.073   .     S
C1010  C1015   1.428   .     A
C1010  C1012   1.421   .     A
C1011  C1016   1.430   .     A
C1011  C1014   1.423   .     A
C1012  C216    1.401   1_556 S
C1013  C1016   1.416   .     A
C1013  H1064   1.073   .     S
C1013  C1026   1.388   .     A
C1015  C1024   1.414   .     A
C1015  C206    1.422   1_556 S
C1017  O1080   1.413   .     S
C1017  H1040   1.110   .     S
C1017  C1018   1.522   .     S
C1017  H1039   1.112   .     S
C1018  H1041   1.111   .     S
C1018  H1043   1.109   .     S
C1018  H1042   1.109   .     S
C1019  H1045   1.113   .     S
C1019  C1020   1.521   .     S
C1019  O1070   1.411   .     S
C1019  H1044   1.115   .     S
C1020  H1047   1.110   .     S
C1020  H1046   1.111   .     S
C1020  H1049   1.110   .     S
C1021  H1051   1.106   .     S
C1021  H1050   1.111   .     S
C1021  C1022   1.524   .     S
C1021  O1071   1.414   .     S
C1022  H1054   1.106   .     S
C1022  H1053   1.111   .     S
C1022  H1052   1.111   .     S
C1023  H1055   1.114   .     S
C1023  O1072   1.412   .     S
C1023  H1056   1.104   .     S
C1023  C1025   1.524   .     S
C1024  C1027   1.387   .     A
C1024  H1065   1.076   .     S
C1025  H1057   1.111   .     S
C1025  H1060   1.109   .     S
C1025  H1058   1.110   .     S
C1026  Cl1031  1.765   .     S
C1027  Cl1032  1.766   .     S
C1027  C204    1.401   1_556 S
C1028  H1066   1.068   .     S
C1028  C814    1.396   1_655 S
C1028  C1570   1.393   1_545 S
C1029  H1038   1.079   .     S
C1029  C1262   1.387   .     S
C1030  O1080   1.390   .     S
C1030  C1298   1.393   .     S
Cu1035 O1075   1.971   .     S
Cu1035 O1079   1.931   .     S
Cu1035 O1069   1.968   .     S
Cu1035 O1076   1.948   .     S
Cu1035 N1067   2.036   .     S
Cu1036 O1078   1.931   .     S
Cu1036 N1068   2.036   .     S
Cu1036 O1074   1.971   .     S
Cu1036 O1077   1.948   .     S
Cu1036 O1073   1.968   .     S
Cu1036 Cu855   2.709   1_655 S
H1059  C827    1.078   1_655 S
O1074  C811    1.308   1_655 S
O1077  C820    1.309   1_655 S
C1081  O1159   1.297   .     A
C1081  C1084   1.458   .     S
C1081  O1344   1.308   1_455 S
C1082  C1084   1.408   .     A
C1082  O1160   1.383   .     S
C1083  C1092   1.456   .     S
C1083  C1120   1.409   .     A
C1083  C1209   1.400   .     S
C1084  C1298   1.396   1_455 S
C1085  O1161   1.389   .     S
C1085  C1087   1.434   .     A
C1085  N1158   1.382   .     A
C1086  O1162   1.385   .     S
C1086  N1157   1.380   .     A
C1086  C1088   1.426   .     A
C1087  Cl1123  1.754   .     S
C1087  N1157   1.371   .     A
C1088  N1158   1.370   .     A
C1088  Cl1124  1.753   .     S
C1089  O1168   1.304   .     A
C1089  C1091   1.472   .     S
C1089  O1256   1.308   .     S
C1090  O1169   1.302   .     A
C1090  C1093   1.471   .     S
C1090  O1347   1.309   1_455 S
C1091  C1098   1.397   .     A
C1091  C1096   1.396   .     A
C1092  O1163   1.300   .     A
C1092  O1255   1.304   .     S
C1093  C1099   1.397   .     A
C1093  C1097   1.394   .     A
C1094  C1096   1.391   .     A
C1094  H1152   1.082   .     S
C1094  C1102   1.408   .     A
C1095  C1104   1.408   .     A
C1095  H1153   1.082   .     S
C1095  C1097   1.390   .     A
C1096  H1241   1.079   .     S
C1097  H1329   1.078   1_455 S
C1098  H1138   1.074   .     S
C1098  C1100   1.408   .     A
C1099  C1101   1.410   .     A
C1099  H1127   1.073   .     S
C1100  C1105   1.428   .     A
C1100  C1102   1.421   .     A
C1101  C1106   1.430   .     A
C1101  C1104   1.423   .     A
C1102  C306    1.401   1_556 S
C1103  C1106   1.416   .     A
C1103  H1154   1.073   .     S
C1103  C1116   1.388   .     A
C1105  C1114   1.414   .     A
C1105  C296    1.422   1_556 S
C1107  O1170   1.413   .     S
C1107  H1130   1.110   .     S
C1107  C1108   1.522   .     S
C1107  H1129   1.112   .     S
C1108  H1131   1.111   .     S
C1108  H1133   1.109   .     S
C1108  H1132   1.109   .     S
C1109  H1135   1.113   .     S
C1109  C1110   1.521   .     S
C1109  O1160   1.411   .     S
C1109  H1134   1.115   .     S
C1110  H1137   1.110   .     S
C1110  H1136   1.111   .     S
C1110  H1139   1.110   .     S
C1111  H1141   1.106   .     S
C1111  H1140   1.111   .     S
C1111  C1112   1.524   .     S
C1111  O1161   1.414   .     S
C1112  H1144   1.106   .     S
C1112  H1143   1.111   .     S
C1112  H1142   1.111   .     S
C1113  H1145   1.114   .     S
C1113  O1162   1.412   .     S
C1113  H1146   1.104   .     S
C1113  C1115   1.524   .     S
C1114  C1117   1.387   .     A
C1114  H1155   1.076   .     S
C1115  H1147   1.111   .     S
C1115  H1150   1.109   .     S
C1115  H1148   1.110   .     S
C1116  Cl1121  1.765   .     S
C1117  Cl1122  1.766   .     S
C1117  C294    1.401   1_556 S
C1118  H1156   1.068   .     S
C1118  C1174   1.396   .     S
C1119  H1128   1.079   .     S
C1119  C1263   1.400   1_455 S
C1119  C1352   1.387   .     S
C1120  O1170   1.390   .     S
C1120  C1388   1.393   .     S
Cu1125 O1165   1.971   .     S
Cu1125 O1169   1.931   .     S
Cu1125 O1159   1.968   .     S
Cu1125 O1166   1.948   .     S
Cu1125 N1157   2.036   .     S
Cu1125 Cu1306  2.709   1_455 S
Cu1126 O1168   1.931   .     S
Cu1126 N1158   2.036   .     S
Cu1126 O1164   1.971   .     S
Cu1126 O1167   1.948   .     S
Cu1126 O1163   1.968   .     S
Cu1126 Cu1215  2.709   .     S
H1149  C1187   1.078   .     S
H1151  C1276   1.079   1_455 S
O1164  C1171   1.308   .     S
O1165  C1272   1.304   1_455 S
O1166  C1269   1.308   1_455 S
O1167  C1180   1.309   .     S
C1171  O1249   1.297   .     A
C1171  C1174   1.458   .     S
C1172  C1174   1.408   .     A
C1172  O1250   1.383   .     S
C1173  C1182   1.456   .     S
C1173  C1210   1.409   .     A
C1173  C1299   1.400   .     S
C1175  O1251   1.389   .     S
C1175  C1177   1.434   .     A
C1175  N1248   1.382   .     A
C1176  O1252   1.385   .     S
C1176  N1247   1.380   .     A
C1176  C1178   1.426   .     A
C1177  Cl1213  1.754   .     S
C1177  N1247   1.371   .     A
C1178  N1248   1.370   .     A
C1178  Cl1214  1.753   .     S
C1179  O1258   1.304   .     A
C1179  C1181   1.472   .     S
C1179  O1346   1.308   .     S
C1180  O1259   1.302   .     A
C1180  C1183   1.471   .     S
C1181  C1188   1.397   .     A
C1181  C1186   1.396   .     A
C1182  O1253   1.300   .     A
C1182  O1345   1.304   .     S
C1183  C1189   1.397   .     A
C1183  C1187   1.394   .     A
C1184  C1186   1.391   .     A
C1184  H1242   1.082   .     S
C1184  C1192   1.408   .     A
C1185  C1194   1.408   .     A
C1185  H1243   1.082   .     S
C1185  C1187   1.390   .     A
C1186  H1331   1.079   .     S
C1188  H1228   1.074   .     S
C1188  C1190   1.408   .     A
C1189  C1191   1.410   .     A
C1189  H1217   1.073   .     S
C1190  C1195   1.428   .     A
C1190  C1192   1.421   .     A
C1191  C1196   1.430   .     A
C1191  C1194   1.423   .     A
C1192  C396    1.401   1_556 S
C1193  C1196   1.416   .     A
C1193  H1244   1.073   .     S
C1193  C1206   1.388   .     A
C1195  C1204   1.414   .     A
C1195  C386    1.422   1_556 S
C1197  O1260   1.413   .     S
C1197  H1220   1.110   .     S
C1197  C1198   1.522   .     S
C1197  H1219   1.112   .     S
C1198  H1221   1.111   .     S
C1198  H1223   1.109   .     S
C1198  H1222   1.109   .     S
C1199  H1225   1.113   .     S
C1199  C1200   1.521   .     S
C1199  O1250   1.411   .     S
C1199  H1224   1.115   .     S
C1200  H1227   1.110   .     S
C1200  H1226   1.111   .     S
C1200  H1229   1.110   .     S
C1201  H1231   1.106   .     S
C1201  H1230   1.111   .     S
C1201  C1202   1.524   .     S
C1201  O1251   1.414   .     S
C1202  H1234   1.106   .     S
C1202  H1233   1.111   .     S
C1202  H1232   1.111   .     S
C1203  H1235   1.114   .     S
C1203  O1252   1.412   .     S
C1203  H1236   1.104   .     S
C1203  C1205   1.524   .     S
C1204  C1207   1.387   .     A
C1204  H1245   1.076   .     S
C1205  H1237   1.111   .     S
C1205  H1240   1.109   .     S
C1205  H1238   1.110   .     S
C1206  Cl1211  1.765   .     S
C1207  Cl1212  1.766   .     S
C1207  C384    1.401   1_556 S
C1208  H1246   1.068   .     S
C1208  C1264   1.396   .     S
C1209  H1218   1.079   .     S
C1209  C1442   1.387   .     S
C1210  O1260   1.390   .     S
C1210  C1478   1.393   .     S
Cu1215 O1255   1.971   .     S
Cu1215 O1259   1.931   .     S
Cu1215 O1249   1.968   .     S
Cu1215 O1256   1.948   .     S
Cu1215 N1247   2.036   .     S
Cu1216 O1258   1.931   .     S
Cu1216 N1248   2.036   .     S
Cu1216 O1254   1.971   .     S
Cu1216 O1257   1.948   .     S
Cu1216 O1253   1.968   .     S
Cu1216 Cu1305  2.709   .     S
H1239  C1277   1.078   .     S
O1254  C1261   1.308   .     S
O1257  C1270   1.309   .     S
C1261  O1339   1.297   .     A
C1261  C1264   1.458   .     S
C1262  C1264   1.408   .     A
C1262  O1340   1.383   .     S
C1263  C1272   1.456   .     S
C1263  C1300   1.409   .     A
C1263  C1119   1.400   1_655 S
C1265  O1341   1.389   .     S
C1265  C1267   1.434   .     A
C1265  N1338   1.382   .     A
C1266  O1342   1.385   .     S
C1266  N1337   1.380   .     A
C1266  C1268   1.426   .     A
C1267  Cl1303  1.754   .     S
C1267  N1337   1.371   .     A
C1268  N1338   1.370   .     A
C1268  Cl1304  1.753   .     S
C1269  O1348   1.304   .     A
C1269  C1271   1.472   .     S
C1269  O1166   1.308   1_655 S
C1270  O1349   1.302   .     A
C1270  C1273   1.471   .     S
C1271  C1278   1.397   .     A
C1271  C1276   1.396   .     A
C1272  O1343   1.300   .     A
C1272  O1165   1.304   1_655 S
C1273  C1279   1.397   .     A
C1273  C1277   1.394   .     A
C1274  C1276   1.391   .     A
C1274  H1332   1.082   .     S
C1274  C1282   1.408   .     A
C1275  C1284   1.408   .     A
C1275  H1333   1.082   .     S
C1275  C1277   1.390   .     A
C1276  H1151   1.079   1_655 S
C1278  H1318   1.074   .     S
C1278  C1280   1.408   .     A
C1279  C1281   1.410   .     A
C1279  H1307   1.073   .     S
C1280  C1285   1.428   .     A
C1280  C1282   1.421   .     A
C1281  C1286   1.430   .     A
C1281  C1284   1.423   .     A
C1282  C486    1.401   1_556 S
C1283  C1286   1.416   .     A
C1283  H1334   1.073   .     S
C1283  C1296   1.388   .     A
C1285  C1294   1.414   .     A
C1285  C476    1.422   1_556 S
C1287  O1350   1.413   .     S
C1287  H1310   1.110   .     S
C1287  C1288   1.522   .     S
C1287  H1309   1.112   .     S
C1288  H1311   1.111   .     S
C1288  H1313   1.109   .     S
C1288  H1312   1.109   .     S
C1289  H1315   1.113   .     S
C1289  C1290   1.521   .     S
C1289  O1340   1.411   .     S
C1289  H1314   1.115   .     S
C1290  H1317   1.110   .     S
C1290  H1316   1.111   .     S
C1290  H1319   1.110   .     S
C1291  H1321   1.106   .     S
C1291  H1320   1.111   .     S
C1291  C1292   1.524   .     S
C1291  O1341   1.414   .     S
C1292  H1324   1.106   .     S
C1292  H1323   1.111   .     S
C1292  H1322   1.111   .     S
C1293  H1325   1.114   .     S
C1293  O1342   1.412   .     S
C1293  H1326   1.104   .     S
C1293  C1295   1.524   .     S
C1294  C1297   1.387   .     A
C1294  H1335   1.076   .     S
C1295  H1327   1.111   .     S
C1295  H1330   1.109   .     S
C1295  H1328   1.110   .     S
C1296  Cl1301  1.765   .     S
C1297  Cl1302  1.766   .     S
C1297  C474    1.401   1_556 S
C1298  H1336   1.068   .     S
C1298  C1084   1.396   1_655 S
C1299  H1308   1.079   .     S
C1299  C1532   1.387   .     S
C1300  O1350   1.390   .     S
C1300  C1568   1.393   .     S
Cu1305 O1345   1.971   .     S
Cu1305 O1349   1.931   .     S
Cu1305 O1339   1.968   .     S
Cu1305 O1346   1.948   .     S
Cu1305 N1337   2.036   .     S
Cu1306 O1348   1.931   .     S
Cu1306 N1338   2.036   .     S
Cu1306 O1344   1.971   .     S
Cu1306 O1347   1.948   .     S
Cu1306 O1343   1.968   .     S
Cu1306 Cu1125  2.709   1_655 S
H1329  C1097   1.078   1_655 S
O1344  C1081   1.308   1_655 S
O1347  C1090   1.309   1_655 S
C1351  O1429   1.297   .     A
C1351  C1354   1.458   .     S
C1351  O1614   1.308   1_455 S
C1352  C1354   1.408   .     A
C1352  O1430   1.383   .     S
C1353  C1362   1.456   .     S
C1353  C1390   1.409   .     A
C1353  C1479   1.400   .     S
C1354  C1568   1.396   1_455 S
C1355  O1431   1.389   .     S
C1355  C1357   1.434   .     A
C1355  N1428   1.382   .     A
C1356  O1432   1.385   .     S
C1356  N1427   1.380   .     A
C1356  C1358   1.426   .     A
C1357  Cl1393  1.754   .     S
C1357  N1427   1.371   .     A
C1358  N1428   1.370   .     A
C1358  Cl1394  1.753   .     S
C1359  O1438   1.304   .     A
C1359  C1361   1.472   .     S
C1359  O1526   1.308   .     S
C1360  O1439   1.302   .     A
C1360  C1363   1.471   .     S
C1360  O1617   1.309   1_455 S
C1361  C1368   1.397   .     A
C1361  C1366   1.396   .     A
C1362  O1433   1.300   .     A
C1362  O1525   1.304   .     S
C1363  C1369   1.397   .     A
C1363  C1367   1.394   .     A
C1364  C1366   1.391   .     A
C1364  H1422   1.082   .     S
C1364  C1372   1.408   .     A
C1365  C1374   1.408   .     A
C1365  H1423   1.082   .     S
C1365  C1367   1.390   .     A
C1366  H1511   1.079   .     S
C1367  H1599   1.078   1_455 S
C1368  H1408   1.074   .     S
C1368  C1370   1.408   .     A
C1369  C1371   1.410   .     A
C1369  H1397   1.073   .     S
C1370  C1375   1.428   .     A
C1370  C1372   1.421   .     A
C1371  C1376   1.430   .     A
C1371  C1374   1.423   .     A
C1372  C576    1.401   1_556 S
C1373  C1376   1.416   .     A
C1373  H1424   1.073   .     S
C1373  C1386   1.388   .     A
C1375  C1384   1.414   .     A
C1375  C566    1.422   1_556 S
C1377  O1440   1.413   .     S
C1377  H1400   1.110   .     S
C1377  C1378   1.522   .     S
C1377  H1399   1.112   .     S
C1378  H1401   1.111   .     S
C1378  H1403   1.109   .     S
C1378  H1402   1.109   .     S
C1379  H1405   1.113   .     S
C1379  C1380   1.521   .     S
C1379  O1430   1.411   .     S
C1379  H1404   1.115   .     S
C1380  H1407   1.110   .     S
C1380  H1406   1.111   .     S
C1380  H1409   1.110   .     S
C1381  H1411   1.106   .     S
C1381  H1410   1.111   .     S
C1381  C1382   1.524   .     S
C1381  O1431   1.414   .     S
C1382  H1414   1.106   .     S
C1382  H1413   1.111   .     S
C1382  H1412   1.111   .     S
C1383  H1415   1.114   .     S
C1383  O1432   1.412   .     S
C1383  H1416   1.104   .     S
C1383  C1385   1.524   .     S
C1384  C1387   1.387   .     A
C1384  H1425   1.076   .     S
C1385  H1417   1.111   .     S
C1385  H1420   1.109   .     S
C1385  H1418   1.110   .     S
C1386  Cl1391  1.765   .     S
C1387  Cl1392  1.766   .     S
C1387  C564    1.401   1_556 S
C1388  H1426   1.068   .     S
C1388  C1444   1.396   .     S
C1389  H1398   1.079   .     S
C1389  C1533   1.400   1_455 S
C1389  C812    1.387   1_565 S
C1390  O1440   1.390   .     S
C1390  C848    1.393   1_565 S
Cu1395 O1435   1.971   .     S
Cu1395 O1439   1.931   .     S
Cu1395 O1429   1.968   .     S
Cu1395 O1436   1.948   .     S
Cu1395 N1427   2.036   .     S
Cu1395 Cu1576  2.709   1_455 S
Cu1396 O1438   1.931   .     S
Cu1396 N1428   2.036   .     S
Cu1396 O1434   1.971   .     S
Cu1396 O1437   1.948   .     S
Cu1396 O1433   1.968   .     S
Cu1396 Cu1485  2.709   .     S
H1419  C1457   1.078   .     S
H1421  C1546   1.079   1_455 S
O1434  C1441   1.308   .     S
O1435  C1542   1.304   1_455 S
O1436  C1539   1.308   1_455 S
O1437  C1450   1.309   .     S
C1441  O1519   1.297   .     A
C1441  C1444   1.458   .     S
C1442  C1444   1.408   .     A
C1442  O1520   1.383   .     S
C1443  C1452   1.456   .     S
C1443  C1480   1.409   .     A
C1443  C1569   1.400   .     S
C1445  O1521   1.389   .     S
C1445  C1447   1.434   .     A
C1445  N1518   1.382   .     A
C1446  O1522   1.385   .     S
C1446  N1517   1.380   .     A
C1446  C1448   1.426   .     A
C1447  Cl1483  1.754   .     S
C1447  N1517   1.371   .     A
C1448  N1518   1.370   .     A
C1448  Cl1484  1.753   .     S
C1449  O1528   1.304   .     A
C1449  C1451   1.472   .     S
C1449  O1616   1.308   .     S
C1450  O1529   1.302   .     A
C1450  C1453   1.471   .     S
C1451  C1458   1.397   .     A
C1451  C1456   1.396   .     A
C1452  O1523   1.300   .     A
C1452  O1615   1.304   .     S
C1453  C1459   1.397   .     A
C1453  C1457   1.394   .     A
C1454  C1456   1.391   .     A
C1454  H1512   1.082   .     S
C1454  C1462   1.408   .     A
C1455  C1464   1.408   .     A
C1455  H1513   1.082   .     S
C1455  C1457   1.390   .     A
C1456  H1601   1.079   .     S
C1458  H1498   1.074   .     S
C1458  C1460   1.408   .     A
C1459  C1461   1.410   .     A
C1459  H1487   1.073   .     S
C1460  C1465   1.428   .     A
C1460  C1462   1.421   .     A
C1461  C1466   1.430   .     A
C1461  C1464   1.423   .     A
C1462  C666    1.401   1_556 S
C1463  C1466   1.416   .     A
C1463  H1514   1.073   .     S
C1463  C1476   1.388   .     A
C1465  C1474   1.414   .     A
C1465  C656    1.422   1_556 S
C1467  O1530   1.413   .     S
C1467  H1490   1.110   .     S
C1467  C1468   1.522   .     S
C1467  H1489   1.112   .     S
C1468  H1491   1.111   .     S
C1468  H1493   1.109   .     S
C1468  H1492   1.109   .     S
C1469  H1495   1.113   .     S
C1469  C1470   1.521   .     S
C1469  O1520   1.411   .     S
C1469  H1494   1.115   .     S
C1470  H1497   1.110   .     S
C1470  H1496   1.111   .     S
C1470  H1499   1.110   .     S
C1471  H1501   1.106   .     S
C1471  H1500   1.111   .     S
C1471  C1472   1.524   .     S
C1471  O1521   1.414   .     S
C1472  H1504   1.106   .     S
C1472  H1503   1.111   .     S
C1472  H1502   1.111   .     S
C1473  H1505   1.114   .     S
C1473  O1522   1.412   .     S
C1473  H1506   1.104   .     S
C1473  C1475   1.524   .     S
C1474  C1477   1.387   .     A
C1474  H1515   1.076   .     S
C1475  H1507   1.111   .     S
C1475  H1510   1.109   .     S
C1475  H1508   1.110   .     S
C1476  Cl1481  1.765   .     S
C1477  Cl1482  1.766   .     S
C1477  C654    1.401   1_556 S
C1478  H1516   1.068   .     S
C1478  C1534   1.396   .     S
C1479  H1488   1.079   .     S
C1479  C902    1.387   1_565 S
C1480  O1530   1.390   .     S
C1480  C938    1.393   1_565 S
Cu1485 O1525   1.971   .     S
Cu1485 O1529   1.931   .     S
Cu1485 O1519   1.968   .     S
Cu1485 O1526   1.948   .     S
Cu1485 N1517   2.036   .     S
Cu1486 O1528   1.931   .     S
Cu1486 N1518   2.036   .     S
Cu1486 O1524   1.971   .     S
Cu1486 O1527   1.948   .     S
Cu1486 O1523   1.968   .     S
Cu1486 Cu1575  2.709   .     S
H1509  C1547   1.078   .     S
O1524  C1531   1.308   .     S
O1527  C1540   1.309   .     S
C1531  O1609   1.297   .     A
C1531  C1534   1.458   .     S
C1532  C1534   1.408   .     A
C1532  O1610   1.383   .     S
C1533  C1542   1.456   .     S
C1533  C1570   1.409   .     A
C1533  C1389   1.400   1_655 S
C1535  O1611   1.389   .     S
C1535  C1537   1.434   .     A
C1535  N1608   1.382   .     A
C1536  O1612   1.385   .     S
C1536  N1607   1.380   .     A
C1536  C1538   1.426   .     A
C1537  Cl1573  1.754   .     S
C1537  N1607   1.371   .     A
C1538  N1608   1.370   .     A
C1538  Cl1574  1.753   .     S
C1539  O1618   1.304   .     A
C1539  C1541   1.472   .     S
C1539  O1436   1.308   1_655 S
C1540  O1619   1.302   .     A
C1540  C1543   1.471   .     S
C1541  C1548   1.397   .     A
C1541  C1546   1.396   .     A
C1542  O1613   1.300   .     A
C1542  O1435   1.304   1_655 S
C1543  C1549   1.397   .     A
C1543  C1547   1.394   .     A
C1544  C1546   1.391   .     A
C1544  H1602   1.082   .     S
C1544  C1552   1.408   .     A
C1545  C1554   1.408   .     A
C1545  H1603   1.082   .     S
C1545  C1547   1.390   .     A
C1546  H1421   1.079   1_655 S
C1548  H1588   1.074   .     S
C1548  C1550   1.408   .     A
C1549  C1551   1.410   .     A
C1549  H1577   1.073   .     S
C1550  C1555   1.428   .     A
C1550  C1552   1.421   .     A
C1551  C1556   1.430   .     A
C1551  C1554   1.423   .     A
C1552  C756    1.401   1_556 S
C1553  C1556   1.416   .     A
C1553  H1604   1.073   .     S
C1553  C1566   1.388   .     A
C1555  C1564   1.414   .     A
C1555  C746    1.422   1_556 S
C1557  O1620   1.413   .     S
C1557  H1580   1.110   .     S
C1557  C1558   1.522   .     S
C1557  H1579   1.112   .     S
C1558  H1581   1.111   .     S
C1558  H1583   1.109   .     S
C1558  H1582   1.109   .     S
C1559  H1585   1.113   .     S
C1559  C1560   1.521   .     S
C1559  O1610   1.411   .     S
C1559  H1584   1.115   .     S
C1560  H1587   1.110   .     S
C1560  H1586   1.111   .     S
C1560  H1589   1.110   .     S
C1561  H1591   1.106   .     S
C1561  H1590   1.111   .     S
C1561  C1562   1.524   .     S
C1561  O1611   1.414   .     S
C1562  H1594   1.106   .     S
C1562  H1593   1.111   .     S
C1562  H1592   1.111   .     S
C1563  H1595   1.114   .     S
C1563  O1612   1.412   .     S
C1563  H1596   1.104   .     S
C1563  C1565   1.524   .     S
C1564  C1567   1.387   .     A
C1564  H1605   1.076   .     S
C1565  H1597   1.111   .     S
C1565  H1600   1.109   .     S
C1565  H1598   1.110   .     S
C1566  Cl1571  1.765   .     S
C1567  Cl1572  1.766   .     S
C1567  C744    1.401   1_556 S
C1568  H1606   1.068   .     S
C1568  C1354   1.396   1_655 S
C1569  H1578   1.079   .     S
C1569  C992    1.387   1_565 S
C1570  O1620   1.390   .     S
C1570  C1028   1.393   1_565 S
Cu1575 O1615   1.971   .     S
Cu1575 O1619   1.931   .     S
Cu1575 O1609   1.968   .     S
Cu1575 O1616   1.948   .     S
Cu1575 N1607   2.036   .     S
Cu1576 O1618   1.931   .     S
Cu1576 N1608   2.036   .     S
Cu1576 O1614   1.971   .     S
Cu1576 O1617   1.948   .     S
Cu1576 O1613   1.968   .     S
Cu1576 Cu1395  2.709   1_655 S
H1599  C1367   1.078   1_655 S
O1614  C1351   1.308   1_655 S
O1617  C1360   1.309   1_655 S
