data_str_m2_o1_o17_pcu_sym.79
_audit_creation_date              2020-01-03
_audit_creation_method            'Materials Studio'
_symmetry_space_group_name_H-M    'P1'
_symmetry_Int_Tables_number       1
_symmetry_cell_setting            triclinic
loop_
_symmetry_equiv_pos_as_xyz
  x,y,z
_cell_length_a                    32.9125
_cell_length_b                    29.0375
_cell_length_c                    30.0792
_cell_angle_alpha                 88.8247
_cell_angle_beta                  93.1205
_cell_angle_gamma                 88.5751
loop_
_atom_site_label
_atom_site_type_symbol
_atom_site_fract_x
_atom_site_fract_y
_atom_site_fract_z
_atom_site_U_iso_or_equiv
_atom_site_adp_type
_atom_site_occupancy
O1     O     0.10655   0.20625   0.24999   0.00000  Uiso   1.00
O2     O     0.22679   0.12709   0.25000   0.00000  Uiso   1.00
O3     O     0.22679   0.20625   0.25000   0.00000  Uiso   1.00
O4     O     0.10655   0.12709   0.24999   0.00000  Uiso   1.00
C5     C     0.08755   0.16711   0.25155   0.00000  Uiso   1.00
C6     C     0.24571   0.16613   0.24811   0.00000  Uiso   1.00
O7     O     0.16666   0.20627   0.18513   0.00000  Uiso   1.00
O8     O     0.16668   0.12707   0.31487   0.00000  Uiso   1.00
O9     O     0.16668   0.20627   0.31487   0.00000  Uiso   1.00
O10    O     0.16666   0.12707   0.18513   0.00000  Uiso   1.00
C11    C     0.16600   0.16692   0.16463   0.00000  Uiso   1.00
C12    C     0.16694   0.16630   0.33531   0.00000  Uiso   1.00
Cu13   Cu    0.16667   0.21355   0.25000   0.00000  Uiso   1.00
Cu14   Cu    0.16667   0.11978   0.25000   0.00000  Uiso   1.00
C15    C     0.20344   0.15939   0.40955   0.00000  Uiso   1.00
C16    C     0.12828   0.17436   0.09085   0.00000  Uiso   1.00
C17    C     0.16667   0.16517   0.38360   0.00000  Uiso   1.00
C18    C     0.16519   0.16627   0.11620   0.00000  Uiso   1.00
C19    C     0.12914   0.16864   0.40354   0.00000  Uiso   1.00
C20    C     0.20104   0.15361   0.09588   0.00000  Uiso   1.00
C21    C     0.12829   0.16705   0.45022   0.00000  Uiso   1.00
C22    C     0.20080   0.15080   0.04937   0.00000  Uiso   1.00
C23    C     0.16476   0.15884   0.47645   0.00000  Uiso   1.00
C24    C     0.16418   0.15929   0.02340   0.00000  Uiso   1.00
C25    C     0.20199   0.15107   0.45584   0.00000  Uiso   1.00
C26    C     0.12712   0.16820   0.04418   0.00000  Uiso   1.00
C27    C     0.09153   0.17255   0.47115   0.00000  Uiso   1.00
C28    C     0.23611   0.13713   0.02854   0.00000  Uiso   1.00
C29    C     0.09024   0.17072   0.01734   0.00000  Uiso   1.00
C30    C     0.23674   0.13551   0.48230   0.00000  Uiso   1.00
H31    H     0.06296   0.17688   0.45186   0.00000  Uiso   1.00
H32    H     0.26319   0.12579   0.04814   0.00000  Uiso   1.00
C33    C     0.02274   0.12568   0.26074   0.00000  Uiso   1.00
C34    C     0.31033   0.20672   0.23683   0.00000  Uiso   1.00
C35    C     0.31365   0.12431   0.25628   0.00000  Uiso   1.00
C36    C     0.01937   0.20852   0.24270   0.00000  Uiso   1.00
C37    C     0.29039   0.16521   0.24580   0.00000  Uiso   1.00
C38    C     0.04275   0.16761   0.25307   0.00000  Uiso   1.00
C39    C     0.14935   0.02588   0.21473   0.00000  Uiso   1.00
C40    C     0.18437   0.30741   0.28505   0.00000  Uiso   1.00
C41    C     0.18318   0.02322   0.28563   0.00000  Uiso   1.00
C42    C     0.15017   0.31011   0.21446   0.00000  Uiso   1.00
N43    N     0.16667   0.28402   0.25000   0.00000  Uiso   1.00
N44    N     0.16667   0.04931   0.25000   0.00000  Uiso   1.00
N45    N     0.24173   0.16887   0.39048   0.00000  Uiso   1.00
O46    O     0.25050   0.15304   0.35195   0.00000  Uiso   1.00
O47    O     0.26739   0.19562   0.41103   0.00000  Uiso   1.00
N48    N     0.09321   0.19216   0.11209   0.00000  Uiso   1.00
O49    O     0.08012   0.17152   0.14710   0.00000  Uiso   1.00
O50    O     0.07449   0.22965   0.09665   0.00000  Uiso   1.00
N51    N     0.09226   0.17610   0.37623   0.00000  Uiso   1.00
O52    O     0.06344   0.14630   0.37676   0.00000  Uiso   1.00
O53    O     0.08654   0.21408   0.35278   0.00000  Uiso   1.00
N54    N     0.23796   0.14473   0.12271   0.00000  Uiso   1.00
O55    O     0.24254   0.10682   0.14640   0.00000  Uiso   1.00
O56    O     0.26847   0.17207   0.11983   0.00000  Uiso   1.00
N57    N     0.05109   0.16698   0.03577   0.00000  Uiso   1.00
O58    O     0.02074   0.19342   0.02056   0.00000  Uiso   1.00
O59    O     0.04406   0.13224   0.06202   0.00000  Uiso   1.00
N60    N     0.27120   0.11361   0.46315   0.00000  Uiso   1.00
O61    O     0.30750   0.11696   0.48199   0.00000  Uiso   1.00
O62    O     0.26553   0.08404   0.43161   0.00000  Uiso   1.00
N63    N     0.04512   0.08381   0.27365   0.00000  Uiso   1.00
O64    O     0.06615   0.08096   0.31152   0.00000  Uiso   1.00
O65    O     0.04058   0.04686   0.25031   0.00000  Uiso   1.00
N66    N     0.28781   0.24729   0.22042   0.00000  Uiso   1.00
O67    O     0.26683   0.24654   0.18253   0.00000  Uiso   1.00
O68    O     0.29030   0.28579   0.24168   0.00000  Uiso   1.00
N69    N     0.29486   0.08069   0.26261   0.00000  Uiso   1.00
O70    O     0.27824   0.06037   0.22830   0.00000  Uiso   1.00
O71    O     0.30391   0.05636   0.29878   0.00000  Uiso   1.00
N72    N     0.03801   0.25244   0.23791   0.00000  Uiso   1.00
O73    O     0.05414   0.27182   0.27304   0.00000  Uiso   1.00
O74    O     0.02981   0.27761   0.20210   0.00000  Uiso   1.00
C75    C     0.12734   0.05066   0.17688   0.00000  Uiso   1.00
O76    O     0.14249   0.05262   0.14066   0.00000  Uiso   1.00
O77    O     0.08833   0.06903   0.18164   0.00000  Uiso   1.00
H78    H     0.07541   0.08218   0.15262   0.00000  Uiso   1.00
C79    C     0.20806   0.28256   0.32163   0.00000  Uiso   1.00
O80    O     0.19451   0.27978   0.35863   0.00000  Uiso   1.00
O81    O     0.24714   0.26554   0.31471   0.00000  Uiso   1.00
H82    H     0.26143   0.25188   0.34275   0.00000  Uiso   1.00
C83    C     0.19864   0.04517   0.32656   0.00000  Uiso   1.00
O84    O     0.23056   0.06545   0.32715   0.00000  Uiso   1.00
O85    O     0.17673   0.04186   0.36499   0.00000  Uiso   1.00
H86    H     0.19036   0.05795   0.39118   0.00000  Uiso   1.00
C87    C     0.13427   0.28796   0.17406   0.00000  Uiso   1.00
O88    O     0.10287   0.26684   0.17462   0.00000  Uiso   1.00
O89    O     0.15537   0.29155   0.13506   0.00000  Uiso   1.00
H90    H     0.14147   0.27551   0.10905   0.00000  Uiso   1.00
O91    O     0.43988   0.20625   0.24999   0.00000  Uiso   1.00
O92    O     0.56012   0.12709   0.25000   0.00000  Uiso   1.00
O93    O     0.56012   0.20625   0.25000   0.00000  Uiso   1.00
O94    O     0.43988   0.12709   0.24999   0.00000  Uiso   1.00
C95    C     0.42088   0.16711   0.25155   0.00000  Uiso   1.00
C96    C     0.57904   0.16613   0.24811   0.00000  Uiso   1.00
O97    O     0.49999   0.20627   0.18513   0.00000  Uiso   1.00
O98    O     0.50001   0.12707   0.31487   0.00000  Uiso   1.00
O99    O     0.50001   0.20627   0.31487   0.00000  Uiso   1.00
O100   O     0.49999   0.12707   0.18513   0.00000  Uiso   1.00
C101   C     0.49934   0.16692   0.16463   0.00000  Uiso   1.00
C102   C     0.50027   0.16630   0.33531   0.00000  Uiso   1.00
Cu103  Cu    0.50000   0.21355   0.25000   0.00000  Uiso   1.00
Cu104  Cu    0.50000   0.11978   0.25000   0.00000  Uiso   1.00
C105   C     0.53677   0.15939   0.40955   0.00000  Uiso   1.00
C106   C     0.46161   0.17436   0.09085   0.00000  Uiso   1.00
C107   C     0.50000   0.16517   0.38360   0.00000  Uiso   1.00
C108   C     0.49852   0.16627   0.11620   0.00000  Uiso   1.00
C109   C     0.46247   0.16864   0.40354   0.00000  Uiso   1.00
C110   C     0.53438   0.15361   0.09588   0.00000  Uiso   1.00
C111   C     0.46162   0.16705   0.45022   0.00000  Uiso   1.00
C112   C     0.53413   0.15080   0.04937   0.00000  Uiso   1.00
C113   C     0.49809   0.15884   0.47645   0.00000  Uiso   1.00
C114   C     0.49752   0.15929   0.02340   0.00000  Uiso   1.00
C115   C     0.53532   0.15107   0.45584   0.00000  Uiso   1.00
C116   C     0.46045   0.16820   0.04418   0.00000  Uiso   1.00
C117   C     0.42486   0.17255   0.47115   0.00000  Uiso   1.00
C118   C     0.56944   0.13713   0.02854   0.00000  Uiso   1.00
C119   C     0.42357   0.17072   0.01734   0.00000  Uiso   1.00
C120   C     0.57007   0.13551   0.48230   0.00000  Uiso   1.00
H121   H     0.39630   0.17688   0.45186   0.00000  Uiso   1.00
H122   H     0.59652   0.12579   0.04814   0.00000  Uiso   1.00
C123   C     0.35608   0.12568   0.26074   0.00000  Uiso   1.00
C124   C     0.64367   0.20672   0.23683   0.00000  Uiso   1.00
C125   C     0.64698   0.12431   0.25628   0.00000  Uiso   1.00
C126   C     0.35270   0.20852   0.24270   0.00000  Uiso   1.00
C127   C     0.62372   0.16521   0.24580   0.00000  Uiso   1.00
C128   C     0.37608   0.16761   0.25307   0.00000  Uiso   1.00
C129   C     0.48268   0.02588   0.21473   0.00000  Uiso   1.00
C130   C     0.51770   0.30741   0.28505   0.00000  Uiso   1.00
C131   C     0.51651   0.02322   0.28563   0.00000  Uiso   1.00
C132   C     0.48350   0.31011   0.21446   0.00000  Uiso   1.00
N133   N     0.50000   0.28402   0.25000   0.00000  Uiso   1.00
N134   N     0.50000   0.04931   0.25000   0.00000  Uiso   1.00
N135   N     0.57506   0.16887   0.39048   0.00000  Uiso   1.00
O136   O     0.58383   0.15304   0.35195   0.00000  Uiso   1.00
O137   O     0.60073   0.19562   0.41103   0.00000  Uiso   1.00
N138   N     0.42655   0.19216   0.11209   0.00000  Uiso   1.00
O139   O     0.41345   0.17152   0.14710   0.00000  Uiso   1.00
O140   O     0.40782   0.22965   0.09665   0.00000  Uiso   1.00
N141   N     0.42560   0.17610   0.37623   0.00000  Uiso   1.00
O142   O     0.39677   0.14630   0.37676   0.00000  Uiso   1.00
O143   O     0.41987   0.21408   0.35278   0.00000  Uiso   1.00
N144   N     0.57129   0.14473   0.12271   0.00000  Uiso   1.00
O145   O     0.57588   0.10682   0.14640   0.00000  Uiso   1.00
O146   O     0.60180   0.17207   0.11983   0.00000  Uiso   1.00
N147   N     0.38442   0.16698   0.03577   0.00000  Uiso   1.00
O148   O     0.35407   0.19342   0.02056   0.00000  Uiso   1.00
O149   O     0.37739   0.13224   0.06202   0.00000  Uiso   1.00
N150   N     0.60453   0.11361   0.46315   0.00000  Uiso   1.00
O151   O     0.64083   0.11696   0.48199   0.00000  Uiso   1.00
O152   O     0.59886   0.08404   0.43161   0.00000  Uiso   1.00
N153   N     0.37845   0.08381   0.27365   0.00000  Uiso   1.00
O154   O     0.39949   0.08096   0.31152   0.00000  Uiso   1.00
O155   O     0.37392   0.04686   0.25031   0.00000  Uiso   1.00
N156   N     0.62115   0.24729   0.22042   0.00000  Uiso   1.00
O157   O     0.60016   0.24654   0.18253   0.00000  Uiso   1.00
O158   O     0.62364   0.28579   0.24168   0.00000  Uiso   1.00
N159   N     0.62820   0.08069   0.26261   0.00000  Uiso   1.00
O160   O     0.61157   0.06037   0.22830   0.00000  Uiso   1.00
O161   O     0.63725   0.05636   0.29878   0.00000  Uiso   1.00
N162   N     0.37134   0.25244   0.23791   0.00000  Uiso   1.00
O163   O     0.38747   0.27182   0.27304   0.00000  Uiso   1.00
O164   O     0.36314   0.27761   0.20210   0.00000  Uiso   1.00
C165   C     0.46067   0.05066   0.17688   0.00000  Uiso   1.00
O166   O     0.47583   0.05262   0.14066   0.00000  Uiso   1.00
O167   O     0.42166   0.06903   0.18164   0.00000  Uiso   1.00
H168   H     0.40874   0.08218   0.15262   0.00000  Uiso   1.00
C169   C     0.54140   0.28256   0.32163   0.00000  Uiso   1.00
O170   O     0.52784   0.27978   0.35863   0.00000  Uiso   1.00
O171   O     0.58047   0.26554   0.31471   0.00000  Uiso   1.00
H172   H     0.59476   0.25188   0.34275   0.00000  Uiso   1.00
C173   C     0.53197   0.04517   0.32656   0.00000  Uiso   1.00
O174   O     0.56390   0.06545   0.32715   0.00000  Uiso   1.00
O175   O     0.51006   0.04186   0.36499   0.00000  Uiso   1.00
H176   H     0.52370   0.05795   0.39118   0.00000  Uiso   1.00
C177   C     0.46761   0.28796   0.17406   0.00000  Uiso   1.00
O178   O     0.43620   0.26684   0.17462   0.00000  Uiso   1.00
O179   O     0.48870   0.29155   0.13506   0.00000  Uiso   1.00
H180   H     0.47480   0.27551   0.10905   0.00000  Uiso   1.00
O181   O     0.77321   0.20625   0.24999   0.00000  Uiso   1.00
O182   O     0.89345   0.12709   0.25000   0.00000  Uiso   1.00
O183   O     0.89345   0.20625   0.25000   0.00000  Uiso   1.00
O184   O     0.77321   0.12709   0.24999   0.00000  Uiso   1.00
C185   C     0.75421   0.16711   0.25155   0.00000  Uiso   1.00
C186   C     0.91238   0.16613   0.24811   0.00000  Uiso   1.00
O187   O     0.83332   0.20627   0.18513   0.00000  Uiso   1.00
O188   O     0.83334   0.12707   0.31487   0.00000  Uiso   1.00
O189   O     0.83334   0.20627   0.31487   0.00000  Uiso   1.00
O190   O     0.83332   0.12707   0.18513   0.00000  Uiso   1.00
C191   C     0.83267   0.16692   0.16463   0.00000  Uiso   1.00
C192   C     0.83361   0.16630   0.33531   0.00000  Uiso   1.00
Cu193  Cu    0.83333   0.21355   0.25000   0.00000  Uiso   1.00
Cu194  Cu    0.83333   0.11978   0.25000   0.00000  Uiso   1.00
C195   C     0.87011   0.15939   0.40955   0.00000  Uiso   1.00
C196   C     0.79495   0.17436   0.09085   0.00000  Uiso   1.00
C197   C     0.83333   0.16517   0.38360   0.00000  Uiso   1.00
C198   C     0.83185   0.16627   0.11620   0.00000  Uiso   1.00
C199   C     0.79580   0.16864   0.40354   0.00000  Uiso   1.00
C200   C     0.86771   0.15361   0.09588   0.00000  Uiso   1.00
C201   C     0.79495   0.16705   0.45022   0.00000  Uiso   1.00
C202   C     0.86746   0.15080   0.04937   0.00000  Uiso   1.00
C203   C     0.83143   0.15884   0.47645   0.00000  Uiso   1.00
C204   C     0.83085   0.15929   0.02340   0.00000  Uiso   1.00
C205   C     0.86865   0.15107   0.45584   0.00000  Uiso   1.00
C206   C     0.79378   0.16820   0.04418   0.00000  Uiso   1.00
C207   C     0.75819   0.17255   0.47115   0.00000  Uiso   1.00
C208   C     0.90278   0.13713   0.02854   0.00000  Uiso   1.00
C209   C     0.75690   0.17072   0.01734   0.00000  Uiso   1.00
C210   C     0.90341   0.13551   0.48230   0.00000  Uiso   1.00
H211   H     0.72963   0.17688   0.45186   0.00000  Uiso   1.00
H212   H     0.92986   0.12579   0.04814   0.00000  Uiso   1.00
C213   C     0.68941   0.12568   0.26074   0.00000  Uiso   1.00
C214   C     0.97700   0.20672   0.23683   0.00000  Uiso   1.00
C215   C     0.98032   0.12431   0.25628   0.00000  Uiso   1.00
C216   C     0.68604   0.20852   0.24270   0.00000  Uiso   1.00
C217   C     0.95705   0.16521   0.24580   0.00000  Uiso   1.00
C218   C     0.70941   0.16761   0.25307   0.00000  Uiso   1.00
C219   C     0.81601   0.02588   0.21473   0.00000  Uiso   1.00
C220   C     0.85104   0.30741   0.28505   0.00000  Uiso   1.00
C221   C     0.84984   0.02322   0.28563   0.00000  Uiso   1.00
C222   C     0.81684   0.31011   0.21446   0.00000  Uiso   1.00
N223   N     0.83333   0.28402   0.25000   0.00000  Uiso   1.00
N224   N     0.83333   0.04931   0.25000   0.00000  Uiso   1.00
N225   N     0.90839   0.16887   0.39048   0.00000  Uiso   1.00
O226   O     0.91716   0.15304   0.35195   0.00000  Uiso   1.00
O227   O     0.93406   0.19562   0.41103   0.00000  Uiso   1.00
N228   N     0.75988   0.19216   0.11209   0.00000  Uiso   1.00
O229   O     0.74678   0.17152   0.14710   0.00000  Uiso   1.00
O230   O     0.74115   0.22965   0.09665   0.00000  Uiso   1.00
N231   N     0.75893   0.17610   0.37623   0.00000  Uiso   1.00
O232   O     0.73010   0.14630   0.37676   0.00000  Uiso   1.00
O233   O     0.75320   0.21408   0.35278   0.00000  Uiso   1.00
N234   N     0.90463   0.14473   0.12271   0.00000  Uiso   1.00
O235   O     0.90921   0.10682   0.14640   0.00000  Uiso   1.00
O236   O     0.93514   0.17207   0.11983   0.00000  Uiso   1.00
N237   N     0.71776   0.16698   0.03577   0.00000  Uiso   1.00
O238   O     0.68740   0.19342   0.02056   0.00000  Uiso   1.00
O239   O     0.71072   0.13224   0.06202   0.00000  Uiso   1.00
N240   N     0.93786   0.11361   0.46315   0.00000  Uiso   1.00
O241   O     0.97416   0.11696   0.48199   0.00000  Uiso   1.00
O242   O     0.93220   0.08404   0.43161   0.00000  Uiso   1.00
N243   N     0.71179   0.08381   0.27365   0.00000  Uiso   1.00
O244   O     0.73282   0.08096   0.31152   0.00000  Uiso   1.00
O245   O     0.70725   0.04686   0.25031   0.00000  Uiso   1.00
N246   N     0.95448   0.24729   0.22042   0.00000  Uiso   1.00
O247   O     0.93349   0.24654   0.18253   0.00000  Uiso   1.00
O248   O     0.95697   0.28579   0.24168   0.00000  Uiso   1.00
N249   N     0.96153   0.08069   0.26261   0.00000  Uiso   1.00
O250   O     0.94490   0.06037   0.22830   0.00000  Uiso   1.00
O251   O     0.97058   0.05636   0.29878   0.00000  Uiso   1.00
N252   N     0.70468   0.25244   0.23791   0.00000  Uiso   1.00
O253   O     0.72080   0.27182   0.27304   0.00000  Uiso   1.00
O254   O     0.69647   0.27761   0.20210   0.00000  Uiso   1.00
C255   C     0.79401   0.05066   0.17688   0.00000  Uiso   1.00
O256   O     0.80916   0.05262   0.14066   0.00000  Uiso   1.00
O257   O     0.75499   0.06903   0.18164   0.00000  Uiso   1.00
H258   H     0.74207   0.08218   0.15262   0.00000  Uiso   1.00
C259   C     0.87473   0.28256   0.32163   0.00000  Uiso   1.00
O260   O     0.86118   0.27978   0.35863   0.00000  Uiso   1.00
O261   O     0.91380   0.26554   0.31471   0.00000  Uiso   1.00
H262   H     0.92810   0.25188   0.34275   0.00000  Uiso   1.00
C263   C     0.86530   0.04517   0.32656   0.00000  Uiso   1.00
O264   O     0.89723   0.06545   0.32715   0.00000  Uiso   1.00
O265   O     0.84339   0.04186   0.36499   0.00000  Uiso   1.00
H266   H     0.85703   0.05795   0.39118   0.00000  Uiso   1.00
C267   C     0.80094   0.28796   0.17406   0.00000  Uiso   1.00
O268   O     0.76953   0.26684   0.17462   0.00000  Uiso   1.00
O269   O     0.82204   0.29155   0.13506   0.00000  Uiso   1.00
H270   H     0.80814   0.27551   0.10905   0.00000  Uiso   1.00
O271   O     0.10655   0.53958   0.24999   0.00000  Uiso   1.00
O272   O     0.22679   0.46042   0.25000   0.00000  Uiso   1.00
O273   O     0.22679   0.53958   0.25000   0.00000  Uiso   1.00
O274   O     0.10655   0.46042   0.24999   0.00000  Uiso   1.00
C275   C     0.08755   0.50045   0.25155   0.00000  Uiso   1.00
C276   C     0.24571   0.49947   0.24811   0.00000  Uiso   1.00
O277   O     0.16666   0.53960   0.18513   0.00000  Uiso   1.00
O278   O     0.16668   0.46040   0.31487   0.00000  Uiso   1.00
O279   O     0.16668   0.53960   0.31487   0.00000  Uiso   1.00
O280   O     0.16666   0.46040   0.18513   0.00000  Uiso   1.00
C281   C     0.16600   0.50026   0.16463   0.00000  Uiso   1.00
C282   C     0.16694   0.49963   0.33531   0.00000  Uiso   1.00
Cu283  Cu    0.16667   0.54689   0.25000   0.00000  Uiso   1.00
Cu284  Cu    0.16667   0.45311   0.25000   0.00000  Uiso   1.00
C285   C     0.20344   0.49272   0.40955   0.00000  Uiso   1.00
C286   C     0.12828   0.50769   0.09085   0.00000  Uiso   1.00
C287   C     0.16667   0.49851   0.38360   0.00000  Uiso   1.00
C288   C     0.16519   0.49961   0.11620   0.00000  Uiso   1.00
C289   C     0.12914   0.50198   0.40354   0.00000  Uiso   1.00
C290   C     0.20104   0.48694   0.09588   0.00000  Uiso   1.00
C291   C     0.12829   0.50039   0.45022   0.00000  Uiso   1.00
C292   C     0.20080   0.48414   0.04937   0.00000  Uiso   1.00
C293   C     0.16476   0.49217   0.47645   0.00000  Uiso   1.00
C294   C     0.16418   0.49263   0.02340   0.00000  Uiso   1.00
C295   C     0.20199   0.48440   0.45584   0.00000  Uiso   1.00
C296   C     0.12712   0.50154   0.04418   0.00000  Uiso   1.00
C297   C     0.09153   0.50588   0.47115   0.00000  Uiso   1.00
C298   C     0.23611   0.47046   0.02854   0.00000  Uiso   1.00
C299   C     0.09024   0.50406   0.01734   0.00000  Uiso   1.00
C300   C     0.23674   0.46884   0.48230   0.00000  Uiso   1.00
H301   H     0.06296   0.51021   0.45186   0.00000  Uiso   1.00
H302   H     0.26319   0.45912   0.04814   0.00000  Uiso   1.00
C303   C     0.02274   0.45901   0.26074   0.00000  Uiso   1.00
C304   C     0.31033   0.54005   0.23683   0.00000  Uiso   1.00
C305   C     0.31365   0.45765   0.25628   0.00000  Uiso   1.00
C306   C     0.01937   0.54186   0.24270   0.00000  Uiso   1.00
C307   C     0.29039   0.49854   0.24580   0.00000  Uiso   1.00
C308   C     0.04275   0.50094   0.25307   0.00000  Uiso   1.00
C309   C     0.14935   0.35922   0.21473   0.00000  Uiso   1.00
C310   C     0.18437   0.64075   0.28505   0.00000  Uiso   1.00
C311   C     0.18318   0.35655   0.28563   0.00000  Uiso   1.00
C312   C     0.15017   0.64344   0.21446   0.00000  Uiso   1.00
N313   N     0.16667   0.61736   0.25000   0.00000  Uiso   1.00
N314   N     0.16667   0.38264   0.25000   0.00000  Uiso   1.00
N315   N     0.24173   0.50220   0.39048   0.00000  Uiso   1.00
O316   O     0.25050   0.48637   0.35195   0.00000  Uiso   1.00
O317   O     0.26739   0.52896   0.41103   0.00000  Uiso   1.00
N318   N     0.09321   0.52549   0.11209   0.00000  Uiso   1.00
O319   O     0.08012   0.50485   0.14710   0.00000  Uiso   1.00
O320   O     0.07449   0.56298   0.09665   0.00000  Uiso   1.00
N321   N     0.09226   0.50943   0.37623   0.00000  Uiso   1.00
O322   O     0.06344   0.47963   0.37676   0.00000  Uiso   1.00
O323   O     0.08654   0.54741   0.35278   0.00000  Uiso   1.00
N324   N     0.23796   0.47807   0.12271   0.00000  Uiso   1.00
O325   O     0.24254   0.44016   0.14640   0.00000  Uiso   1.00
O326   O     0.26847   0.50540   0.11983   0.00000  Uiso   1.00
N327   N     0.05109   0.50032   0.03577   0.00000  Uiso   1.00
O328   O     0.02074   0.52675   0.02056   0.00000  Uiso   1.00
O329   O     0.04406   0.46558   0.06202   0.00000  Uiso   1.00
N330   N     0.27120   0.44694   0.46315   0.00000  Uiso   1.00
O331   O     0.30750   0.45030   0.48199   0.00000  Uiso   1.00
O332   O     0.26553   0.41737   0.43161   0.00000  Uiso   1.00
N333   N     0.04512   0.41714   0.27365   0.00000  Uiso   1.00
O334   O     0.06615   0.41430   0.31152   0.00000  Uiso   1.00
O335   O     0.04058   0.38019   0.25031   0.00000  Uiso   1.00
N336   N     0.28781   0.58062   0.22042   0.00000  Uiso   1.00
O337   O     0.26683   0.57987   0.18253   0.00000  Uiso   1.00
O338   O     0.29030   0.61912   0.24168   0.00000  Uiso   1.00
N339   N     0.29486   0.41403   0.26261   0.00000  Uiso   1.00
O340   O     0.27824   0.39370   0.22830   0.00000  Uiso   1.00
O341   O     0.30391   0.38970   0.29878   0.00000  Uiso   1.00
N342   N     0.03801   0.58577   0.23791   0.00000  Uiso   1.00
O343   O     0.05414   0.60515   0.27304   0.00000  Uiso   1.00
O344   O     0.02981   0.61095   0.20210   0.00000  Uiso   1.00
C345   C     0.12734   0.38400   0.17688   0.00000  Uiso   1.00
O346   O     0.14249   0.38596   0.14066   0.00000  Uiso   1.00
O347   O     0.08833   0.40236   0.18164   0.00000  Uiso   1.00
H348   H     0.07541   0.41552   0.15262   0.00000  Uiso   1.00
C349   C     0.20806   0.61589   0.32163   0.00000  Uiso   1.00
O350   O     0.19451   0.61311   0.35863   0.00000  Uiso   1.00
O351   O     0.24714   0.59887   0.31471   0.00000  Uiso   1.00
H352   H     0.26143   0.58521   0.34275   0.00000  Uiso   1.00
C353   C     0.19864   0.37851   0.32656   0.00000  Uiso   1.00
O354   O     0.23056   0.39879   0.32715   0.00000  Uiso   1.00
O355   O     0.17673   0.37519   0.36499   0.00000  Uiso   1.00
H356   H     0.19036   0.39128   0.39118   0.00000  Uiso   1.00
C357   C     0.13427   0.62129   0.17406   0.00000  Uiso   1.00
O358   O     0.10287   0.60017   0.17462   0.00000  Uiso   1.00
O359   O     0.15537   0.62488   0.13506   0.00000  Uiso   1.00
H360   H     0.14147   0.60884   0.10905   0.00000  Uiso   1.00
O361   O     0.43988   0.53958   0.24999   0.00000  Uiso   1.00
O362   O     0.56012   0.46042   0.25000   0.00000  Uiso   1.00
O363   O     0.56012   0.53958   0.25000   0.00000  Uiso   1.00
O364   O     0.43988   0.46042   0.24999   0.00000  Uiso   1.00
C365   C     0.42088   0.50045   0.25155   0.00000  Uiso   1.00
C366   C     0.57904   0.49947   0.24811   0.00000  Uiso   1.00
O367   O     0.49999   0.53960   0.18513   0.00000  Uiso   1.00
O368   O     0.50001   0.46040   0.31487   0.00000  Uiso   1.00
O369   O     0.50001   0.53960   0.31487   0.00000  Uiso   1.00
O370   O     0.49999   0.46040   0.18513   0.00000  Uiso   1.00
C371   C     0.49934   0.50026   0.16463   0.00000  Uiso   1.00
C372   C     0.50027   0.49963   0.33531   0.00000  Uiso   1.00
Cu373  Cu    0.50000   0.54689   0.25000   0.00000  Uiso   1.00
Cu374  Cu    0.50000   0.45311   0.25000   0.00000  Uiso   1.00
C375   C     0.53677   0.49272   0.40955   0.00000  Uiso   1.00
C376   C     0.46161   0.50769   0.09085   0.00000  Uiso   1.00
C377   C     0.50000   0.49851   0.38360   0.00000  Uiso   1.00
C378   C     0.49852   0.49961   0.11620   0.00000  Uiso   1.00
C379   C     0.46247   0.50198   0.40354   0.00000  Uiso   1.00
C380   C     0.53438   0.48694   0.09588   0.00000  Uiso   1.00
C381   C     0.46162   0.50039   0.45022   0.00000  Uiso   1.00
C382   C     0.53413   0.48414   0.04937   0.00000  Uiso   1.00
C383   C     0.49809   0.49217   0.47645   0.00000  Uiso   1.00
C384   C     0.49752   0.49263   0.02340   0.00000  Uiso   1.00
C385   C     0.53532   0.48440   0.45584   0.00000  Uiso   1.00
C386   C     0.46045   0.50154   0.04418   0.00000  Uiso   1.00
C387   C     0.42486   0.50588   0.47115   0.00000  Uiso   1.00
C388   C     0.56944   0.47046   0.02854   0.00000  Uiso   1.00
C389   C     0.42357   0.50406   0.01734   0.00000  Uiso   1.00
C390   C     0.57007   0.46884   0.48230   0.00000  Uiso   1.00
H391   H     0.39630   0.51021   0.45186   0.00000  Uiso   1.00
H392   H     0.59652   0.45912   0.04814   0.00000  Uiso   1.00
C393   C     0.35608   0.45901   0.26074   0.00000  Uiso   1.00
C394   C     0.64367   0.54005   0.23683   0.00000  Uiso   1.00
C395   C     0.64698   0.45765   0.25628   0.00000  Uiso   1.00
C396   C     0.35270   0.54186   0.24270   0.00000  Uiso   1.00
C397   C     0.62372   0.49854   0.24580   0.00000  Uiso   1.00
C398   C     0.37608   0.50094   0.25307   0.00000  Uiso   1.00
C399   C     0.48268   0.35922   0.21473   0.00000  Uiso   1.00
C400   C     0.51770   0.64075   0.28505   0.00000  Uiso   1.00
C401   C     0.51651   0.35655   0.28563   0.00000  Uiso   1.00
C402   C     0.48350   0.64344   0.21446   0.00000  Uiso   1.00
N403   N     0.50000   0.61736   0.25000   0.00000  Uiso   1.00
N404   N     0.50000   0.38264   0.25000   0.00000  Uiso   1.00
N405   N     0.57506   0.50220   0.39048   0.00000  Uiso   1.00
O406   O     0.58383   0.48637   0.35195   0.00000  Uiso   1.00
O407   O     0.60073   0.52896   0.41103   0.00000  Uiso   1.00
N408   N     0.42655   0.52549   0.11209   0.00000  Uiso   1.00
O409   O     0.41345   0.50485   0.14710   0.00000  Uiso   1.00
O410   O     0.40782   0.56298   0.09665   0.00000  Uiso   1.00
N411   N     0.42560   0.50943   0.37623   0.00000  Uiso   1.00
O412   O     0.39677   0.47963   0.37676   0.00000  Uiso   1.00
O413   O     0.41987   0.54741   0.35278   0.00000  Uiso   1.00
N414   N     0.57129   0.47807   0.12271   0.00000  Uiso   1.00
O415   O     0.57588   0.44016   0.14640   0.00000  Uiso   1.00
O416   O     0.60180   0.50540   0.11983   0.00000  Uiso   1.00
N417   N     0.38442   0.50032   0.03577   0.00000  Uiso   1.00
O418   O     0.35407   0.52675   0.02056   0.00000  Uiso   1.00
O419   O     0.37739   0.46558   0.06202   0.00000  Uiso   1.00
N420   N     0.60453   0.44694   0.46315   0.00000  Uiso   1.00
O421   O     0.64083   0.45030   0.48199   0.00000  Uiso   1.00
O422   O     0.59886   0.41737   0.43161   0.00000  Uiso   1.00
N423   N     0.37845   0.41714   0.27365   0.00000  Uiso   1.00
O424   O     0.39949   0.41430   0.31152   0.00000  Uiso   1.00
O425   O     0.37392   0.38019   0.25031   0.00000  Uiso   1.00
N426   N     0.62115   0.58062   0.22042   0.00000  Uiso   1.00
O427   O     0.60016   0.57987   0.18253   0.00000  Uiso   1.00
O428   O     0.62364   0.61912   0.24168   0.00000  Uiso   1.00
N429   N     0.62820   0.41403   0.26261   0.00000  Uiso   1.00
O430   O     0.61157   0.39370   0.22830   0.00000  Uiso   1.00
O431   O     0.63725   0.38970   0.29878   0.00000  Uiso   1.00
N432   N     0.37134   0.58577   0.23791   0.00000  Uiso   1.00
O433   O     0.38747   0.60515   0.27304   0.00000  Uiso   1.00
O434   O     0.36314   0.61095   0.20210   0.00000  Uiso   1.00
C435   C     0.46067   0.38400   0.17688   0.00000  Uiso   1.00
O436   O     0.47583   0.38596   0.14066   0.00000  Uiso   1.00
O437   O     0.42166   0.40236   0.18164   0.00000  Uiso   1.00
H438   H     0.40874   0.41552   0.15262   0.00000  Uiso   1.00
C439   C     0.54140   0.61589   0.32163   0.00000  Uiso   1.00
O440   O     0.52784   0.61311   0.35863   0.00000  Uiso   1.00
O441   O     0.58047   0.59887   0.31471   0.00000  Uiso   1.00
H442   H     0.59476   0.58521   0.34275   0.00000  Uiso   1.00
C443   C     0.53197   0.37851   0.32656   0.00000  Uiso   1.00
O444   O     0.56390   0.39879   0.32715   0.00000  Uiso   1.00
O445   O     0.51006   0.37519   0.36499   0.00000  Uiso   1.00
H446   H     0.52370   0.39128   0.39118   0.00000  Uiso   1.00
C447   C     0.46761   0.62129   0.17406   0.00000  Uiso   1.00
O448   O     0.43620   0.60017   0.17462   0.00000  Uiso   1.00
O449   O     0.48870   0.62488   0.13506   0.00000  Uiso   1.00
H450   H     0.47480   0.60884   0.10905   0.00000  Uiso   1.00
O451   O     0.77321   0.53958   0.24999   0.00000  Uiso   1.00
O452   O     0.89345   0.46042   0.25000   0.00000  Uiso   1.00
O453   O     0.89345   0.53958   0.25000   0.00000  Uiso   1.00
O454   O     0.77321   0.46042   0.24999   0.00000  Uiso   1.00
C455   C     0.75421   0.50045   0.25155   0.00000  Uiso   1.00
C456   C     0.91238   0.49947   0.24811   0.00000  Uiso   1.00
O457   O     0.83332   0.53960   0.18513   0.00000  Uiso   1.00
O458   O     0.83334   0.46040   0.31487   0.00000  Uiso   1.00
O459   O     0.83334   0.53960   0.31487   0.00000  Uiso   1.00
O460   O     0.83332   0.46040   0.18513   0.00000  Uiso   1.00
C461   C     0.83267   0.50026   0.16463   0.00000  Uiso   1.00
C462   C     0.83361   0.49963   0.33531   0.00000  Uiso   1.00
Cu463  Cu    0.83333   0.54689   0.25000   0.00000  Uiso   1.00
Cu464  Cu    0.83333   0.45311   0.25000   0.00000  Uiso   1.00
C465   C     0.87011   0.49272   0.40955   0.00000  Uiso   1.00
C466   C     0.79495   0.50769   0.09085   0.00000  Uiso   1.00
C467   C     0.83333   0.49851   0.38360   0.00000  Uiso   1.00
C468   C     0.83185   0.49961   0.11620   0.00000  Uiso   1.00
C469   C     0.79580   0.50198   0.40354   0.00000  Uiso   1.00
C470   C     0.86771   0.48694   0.09588   0.00000  Uiso   1.00
C471   C     0.79495   0.50039   0.45022   0.00000  Uiso   1.00
C472   C     0.86746   0.48414   0.04937   0.00000  Uiso   1.00
C473   C     0.83143   0.49217   0.47645   0.00000  Uiso   1.00
C474   C     0.83085   0.49263   0.02340   0.00000  Uiso   1.00
C475   C     0.86865   0.48440   0.45584   0.00000  Uiso   1.00
C476   C     0.79378   0.50154   0.04418   0.00000  Uiso   1.00
C477   C     0.75819   0.50588   0.47115   0.00000  Uiso   1.00
C478   C     0.90278   0.47046   0.02854   0.00000  Uiso   1.00
C479   C     0.75690   0.50406   0.01734   0.00000  Uiso   1.00
C480   C     0.90341   0.46884   0.48230   0.00000  Uiso   1.00
H481   H     0.72963   0.51021   0.45186   0.00000  Uiso   1.00
H482   H     0.92986   0.45912   0.04814   0.00000  Uiso   1.00
C483   C     0.68941   0.45901   0.26074   0.00000  Uiso   1.00
C484   C     0.97700   0.54005   0.23683   0.00000  Uiso   1.00
C485   C     0.98032   0.45765   0.25628   0.00000  Uiso   1.00
C486   C     0.68604   0.54186   0.24270   0.00000  Uiso   1.00
C487   C     0.95705   0.49854   0.24580   0.00000  Uiso   1.00
C488   C     0.70941   0.50094   0.25307   0.00000  Uiso   1.00
C489   C     0.81601   0.35922   0.21473   0.00000  Uiso   1.00
C490   C     0.85104   0.64075   0.28505   0.00000  Uiso   1.00
C491   C     0.84984   0.35655   0.28563   0.00000  Uiso   1.00
C492   C     0.81684   0.64344   0.21446   0.00000  Uiso   1.00
N493   N     0.83333   0.61736   0.25000   0.00000  Uiso   1.00
N494   N     0.83333   0.38264   0.25000   0.00000  Uiso   1.00
N495   N     0.90839   0.50220   0.39048   0.00000  Uiso   1.00
O496   O     0.91716   0.48637   0.35195   0.00000  Uiso   1.00
O497   O     0.93406   0.52896   0.41103   0.00000  Uiso   1.00
N498   N     0.75988   0.52549   0.11209   0.00000  Uiso   1.00
O499   O     0.74678   0.50485   0.14710   0.00000  Uiso   1.00
O500   O     0.74115   0.56298   0.09665   0.00000  Uiso   1.00
N501   N     0.75893   0.50943   0.37623   0.00000  Uiso   1.00
O502   O     0.73010   0.47963   0.37676   0.00000  Uiso   1.00
O503   O     0.75320   0.54741   0.35278   0.00000  Uiso   1.00
N504   N     0.90463   0.47807   0.12271   0.00000  Uiso   1.00
O505   O     0.90921   0.44016   0.14640   0.00000  Uiso   1.00
O506   O     0.93514   0.50540   0.11983   0.00000  Uiso   1.00
N507   N     0.71776   0.50032   0.03577   0.00000  Uiso   1.00
O508   O     0.68740   0.52675   0.02056   0.00000  Uiso   1.00
O509   O     0.71072   0.46558   0.06202   0.00000  Uiso   1.00
N510   N     0.93786   0.44694   0.46315   0.00000  Uiso   1.00
O511   O     0.97416   0.45030   0.48199   0.00000  Uiso   1.00
O512   O     0.93220   0.41737   0.43161   0.00000  Uiso   1.00
N513   N     0.71179   0.41714   0.27365   0.00000  Uiso   1.00
O514   O     0.73282   0.41430   0.31152   0.00000  Uiso   1.00
O515   O     0.70725   0.38019   0.25031   0.00000  Uiso   1.00
N516   N     0.95448   0.58062   0.22042   0.00000  Uiso   1.00
O517   O     0.93349   0.57987   0.18253   0.00000  Uiso   1.00
O518   O     0.95697   0.61912   0.24168   0.00000  Uiso   1.00
N519   N     0.96153   0.41403   0.26261   0.00000  Uiso   1.00
O520   O     0.94490   0.39370   0.22830   0.00000  Uiso   1.00
O521   O     0.97058   0.38970   0.29878   0.00000  Uiso   1.00
N522   N     0.70468   0.58577   0.23791   0.00000  Uiso   1.00
O523   O     0.72080   0.60515   0.27304   0.00000  Uiso   1.00
O524   O     0.69647   0.61095   0.20210   0.00000  Uiso   1.00
C525   C     0.79401   0.38400   0.17688   0.00000  Uiso   1.00
O526   O     0.80916   0.38596   0.14066   0.00000  Uiso   1.00
O527   O     0.75499   0.40236   0.18164   0.00000  Uiso   1.00
H528   H     0.74207   0.41552   0.15262   0.00000  Uiso   1.00
C529   C     0.87473   0.61589   0.32163   0.00000  Uiso   1.00
O530   O     0.86118   0.61311   0.35863   0.00000  Uiso   1.00
O531   O     0.91380   0.59887   0.31471   0.00000  Uiso   1.00
H532   H     0.92810   0.58521   0.34275   0.00000  Uiso   1.00
C533   C     0.86530   0.37851   0.32656   0.00000  Uiso   1.00
O534   O     0.89723   0.39879   0.32715   0.00000  Uiso   1.00
O535   O     0.84339   0.37519   0.36499   0.00000  Uiso   1.00
H536   H     0.85703   0.39128   0.39118   0.00000  Uiso   1.00
C537   C     0.80094   0.62129   0.17406   0.00000  Uiso   1.00
O538   O     0.76953   0.60017   0.17462   0.00000  Uiso   1.00
O539   O     0.82204   0.62488   0.13506   0.00000  Uiso   1.00
H540   H     0.80814   0.60884   0.10905   0.00000  Uiso   1.00
O541   O     0.10655   0.87291   0.24999   0.00000  Uiso   1.00
O542   O     0.22679   0.79375   0.25000   0.00000  Uiso   1.00
O543   O     0.22679   0.87291   0.25000   0.00000  Uiso   1.00
O544   O     0.10655   0.79375   0.24999   0.00000  Uiso   1.00
C545   C     0.08755   0.83378   0.25155   0.00000  Uiso   1.00
C546   C     0.24571   0.83280   0.24811   0.00000  Uiso   1.00
O547   O     0.16666   0.87293   0.18513   0.00000  Uiso   1.00
O548   O     0.16668   0.79373   0.31487   0.00000  Uiso   1.00
O549   O     0.16668   0.87293   0.31487   0.00000  Uiso   1.00
O550   O     0.16666   0.79373   0.18513   0.00000  Uiso   1.00
C551   C     0.16600   0.83359   0.16463   0.00000  Uiso   1.00
C552   C     0.16694   0.83296   0.33531   0.00000  Uiso   1.00
Cu553  Cu    0.16667   0.88022   0.25000   0.00000  Uiso   1.00
Cu554  Cu    0.16667   0.78645   0.25000   0.00000  Uiso   1.00
C555   C     0.20344   0.82606   0.40955   0.00000  Uiso   1.00
C556   C     0.12828   0.84103   0.09085   0.00000  Uiso   1.00
C557   C     0.16667   0.83184   0.38360   0.00000  Uiso   1.00
C558   C     0.16519   0.83294   0.11620   0.00000  Uiso   1.00
C559   C     0.12914   0.83531   0.40354   0.00000  Uiso   1.00
C560   C     0.20104   0.82028   0.09588   0.00000  Uiso   1.00
C561   C     0.12829   0.83372   0.45022   0.00000  Uiso   1.00
C562   C     0.20080   0.81747   0.04937   0.00000  Uiso   1.00
C563   C     0.16476   0.82551   0.47645   0.00000  Uiso   1.00
C564   C     0.16418   0.82596   0.02340   0.00000  Uiso   1.00
C565   C     0.20199   0.81774   0.45584   0.00000  Uiso   1.00
C566   C     0.12712   0.83487   0.04418   0.00000  Uiso   1.00
C567   C     0.09153   0.83921   0.47115   0.00000  Uiso   1.00
C568   C     0.23611   0.80380   0.02854   0.00000  Uiso   1.00
C569   C     0.09024   0.83739   0.01734   0.00000  Uiso   1.00
C570   C     0.23674   0.80217   0.48230   0.00000  Uiso   1.00
H571   H     0.06296   0.84354   0.45186   0.00000  Uiso   1.00
H572   H     0.26319   0.79245   0.04814   0.00000  Uiso   1.00
C573   C     0.02274   0.79235   0.26074   0.00000  Uiso   1.00
C574   C     0.31033   0.87338   0.23683   0.00000  Uiso   1.00
C575   C     0.31365   0.79098   0.25628   0.00000  Uiso   1.00
C576   C     0.01937   0.87519   0.24270   0.00000  Uiso   1.00
C577   C     0.29039   0.83187   0.24580   0.00000  Uiso   1.00
C578   C     0.04275   0.83428   0.25307   0.00000  Uiso   1.00
C579   C     0.14935   0.69255   0.21473   0.00000  Uiso   1.00
C580   C     0.18437   0.97408   0.28505   0.00000  Uiso   1.00
C581   C     0.18318   0.68988   0.28563   0.00000  Uiso   1.00
C582   C     0.15017   0.97677   0.21446   0.00000  Uiso   1.00
N583   N     0.16667   0.95069   0.25000   0.00000  Uiso   1.00
N584   N     0.16667   0.71598   0.25000   0.00000  Uiso   1.00
N585   N     0.24173   0.83553   0.39048   0.00000  Uiso   1.00
O586   O     0.25050   0.81970   0.35195   0.00000  Uiso   1.00
O587   O     0.26739   0.86229   0.41103   0.00000  Uiso   1.00
N588   N     0.09321   0.85883   0.11209   0.00000  Uiso   1.00
O589   O     0.08012   0.83819   0.14710   0.00000  Uiso   1.00
O590   O     0.07449   0.89631   0.09665   0.00000  Uiso   1.00
N591   N     0.09226   0.84277   0.37623   0.00000  Uiso   1.00
O592   O     0.06344   0.81297   0.37676   0.00000  Uiso   1.00
O593   O     0.08654   0.88074   0.35278   0.00000  Uiso   1.00
N594   N     0.23796   0.81140   0.12271   0.00000  Uiso   1.00
O595   O     0.24254   0.77349   0.14640   0.00000  Uiso   1.00
O596   O     0.26847   0.83874   0.11983   0.00000  Uiso   1.00
N597   N     0.05109   0.83365   0.03577   0.00000  Uiso   1.00
O598   O     0.02074   0.86008   0.02056   0.00000  Uiso   1.00
O599   O     0.04406   0.79891   0.06202   0.00000  Uiso   1.00
N600   N     0.27120   0.78028   0.46315   0.00000  Uiso   1.00
O601   O     0.30750   0.78363   0.48199   0.00000  Uiso   1.00
O602   O     0.26553   0.75071   0.43161   0.00000  Uiso   1.00
N603   N     0.04512   0.75047   0.27365   0.00000  Uiso   1.00
O604   O     0.06615   0.74763   0.31152   0.00000  Uiso   1.00
O605   O     0.04058   0.71353   0.25031   0.00000  Uiso   1.00
N606   N     0.28781   0.91396   0.22042   0.00000  Uiso   1.00
O607   O     0.26683   0.91320   0.18253   0.00000  Uiso   1.00
O608   O     0.29030   0.95245   0.24168   0.00000  Uiso   1.00
N609   N     0.29486   0.74736   0.26261   0.00000  Uiso   1.00
O610   O     0.27824   0.72703   0.22830   0.00000  Uiso   1.00
O611   O     0.30391   0.72303   0.29878   0.00000  Uiso   1.00
N612   N     0.03801   0.91910   0.23791   0.00000  Uiso   1.00
O613   O     0.05414   0.93848   0.27304   0.00000  Uiso   1.00
O614   O     0.02981   0.94428   0.20210   0.00000  Uiso   1.00
C615   C     0.12734   0.71733   0.17688   0.00000  Uiso   1.00
O616   O     0.14249   0.71929   0.14066   0.00000  Uiso   1.00
O617   O     0.08833   0.73570   0.18164   0.00000  Uiso   1.00
H618   H     0.07541   0.74885   0.15262   0.00000  Uiso   1.00
C619   C     0.20806   0.94923   0.32163   0.00000  Uiso   1.00
O620   O     0.19451   0.94644   0.35863   0.00000  Uiso   1.00
O621   O     0.24714   0.93220   0.31471   0.00000  Uiso   1.00
H622   H     0.26143   0.91855   0.34275   0.00000  Uiso   1.00
C623   C     0.19864   0.71184   0.32656   0.00000  Uiso   1.00
O624   O     0.23056   0.73212   0.32715   0.00000  Uiso   1.00
O625   O     0.17673   0.70853   0.36499   0.00000  Uiso   1.00
H626   H     0.19036   0.72461   0.39118   0.00000  Uiso   1.00
C627   C     0.13427   0.95462   0.17406   0.00000  Uiso   1.00
O628   O     0.10287   0.93350   0.17462   0.00000  Uiso   1.00
O629   O     0.15537   0.95821   0.13506   0.00000  Uiso   1.00
H630   H     0.14147   0.94217   0.10905   0.00000  Uiso   1.00
O631   O     0.43988   0.87291   0.24999   0.00000  Uiso   1.00
O632   O     0.56012   0.79375   0.25000   0.00000  Uiso   1.00
O633   O     0.56012   0.87291   0.25000   0.00000  Uiso   1.00
O634   O     0.43988   0.79375   0.24999   0.00000  Uiso   1.00
C635   C     0.42088   0.83378   0.25155   0.00000  Uiso   1.00
C636   C     0.57904   0.83280   0.24811   0.00000  Uiso   1.00
O637   O     0.49999   0.87293   0.18513   0.00000  Uiso   1.00
O638   O     0.50001   0.79373   0.31487   0.00000  Uiso   1.00
O639   O     0.50001   0.87293   0.31487   0.00000  Uiso   1.00
O640   O     0.49999   0.79373   0.18513   0.00000  Uiso   1.00
C641   C     0.49934   0.83359   0.16463   0.00000  Uiso   1.00
C642   C     0.50027   0.83296   0.33531   0.00000  Uiso   1.00
Cu643  Cu    0.50000   0.88022   0.25000   0.00000  Uiso   1.00
Cu644  Cu    0.50000   0.78645   0.25000   0.00000  Uiso   1.00
C645   C     0.53677   0.82606   0.40955   0.00000  Uiso   1.00
C646   C     0.46161   0.84103   0.09085   0.00000  Uiso   1.00
C647   C     0.50000   0.83184   0.38360   0.00000  Uiso   1.00
C648   C     0.49852   0.83294   0.11620   0.00000  Uiso   1.00
C649   C     0.46247   0.83531   0.40354   0.00000  Uiso   1.00
C650   C     0.53438   0.82028   0.09588   0.00000  Uiso   1.00
C651   C     0.46162   0.83372   0.45022   0.00000  Uiso   1.00
C652   C     0.53413   0.81747   0.04937   0.00000  Uiso   1.00
C653   C     0.49809   0.82551   0.47645   0.00000  Uiso   1.00
C654   C     0.49752   0.82596   0.02340   0.00000  Uiso   1.00
C655   C     0.53532   0.81774   0.45584   0.00000  Uiso   1.00
C656   C     0.46045   0.83487   0.04418   0.00000  Uiso   1.00
C657   C     0.42486   0.83921   0.47115   0.00000  Uiso   1.00
C658   C     0.56944   0.80380   0.02854   0.00000  Uiso   1.00
C659   C     0.42357   0.83739   0.01734   0.00000  Uiso   1.00
C660   C     0.57007   0.80217   0.48230   0.00000  Uiso   1.00
H661   H     0.39630   0.84354   0.45186   0.00000  Uiso   1.00
H662   H     0.59652   0.79245   0.04814   0.00000  Uiso   1.00
C663   C     0.35608   0.79235   0.26074   0.00000  Uiso   1.00
C664   C     0.64367   0.87338   0.23683   0.00000  Uiso   1.00
C665   C     0.64698   0.79098   0.25628   0.00000  Uiso   1.00
C666   C     0.35270   0.87519   0.24270   0.00000  Uiso   1.00
C667   C     0.62372   0.83187   0.24580   0.00000  Uiso   1.00
C668   C     0.37608   0.83428   0.25307   0.00000  Uiso   1.00
C669   C     0.48268   0.69255   0.21473   0.00000  Uiso   1.00
C670   C     0.51770   0.97408   0.28505   0.00000  Uiso   1.00
C671   C     0.51651   0.68988   0.28563   0.00000  Uiso   1.00
C672   C     0.48350   0.97677   0.21446   0.00000  Uiso   1.00
N673   N     0.50000   0.95069   0.25000   0.00000  Uiso   1.00
N674   N     0.50000   0.71598   0.25000   0.00000  Uiso   1.00
N675   N     0.57506   0.83553   0.39048   0.00000  Uiso   1.00
O676   O     0.58383   0.81970   0.35195   0.00000  Uiso   1.00
O677   O     0.60073   0.86229   0.41103   0.00000  Uiso   1.00
N678   N     0.42655   0.85883   0.11209   0.00000  Uiso   1.00
O679   O     0.41345   0.83819   0.14710   0.00000  Uiso   1.00
O680   O     0.40782   0.89631   0.09665   0.00000  Uiso   1.00
N681   N     0.42560   0.84277   0.37623   0.00000  Uiso   1.00
O682   O     0.39677   0.81297   0.37676   0.00000  Uiso   1.00
O683   O     0.41987   0.88074   0.35278   0.00000  Uiso   1.00
N684   N     0.57129   0.81140   0.12271   0.00000  Uiso   1.00
O685   O     0.57588   0.77349   0.14640   0.00000  Uiso   1.00
O686   O     0.60180   0.83874   0.11983   0.00000  Uiso   1.00
N687   N     0.38442   0.83365   0.03577   0.00000  Uiso   1.00
O688   O     0.35407   0.86008   0.02056   0.00000  Uiso   1.00
O689   O     0.37739   0.79891   0.06202   0.00000  Uiso   1.00
N690   N     0.60453   0.78028   0.46315   0.00000  Uiso   1.00
O691   O     0.64083   0.78363   0.48199   0.00000  Uiso   1.00
O692   O     0.59886   0.75071   0.43161   0.00000  Uiso   1.00
N693   N     0.37845   0.75047   0.27365   0.00000  Uiso   1.00
O694   O     0.39949   0.74763   0.31152   0.00000  Uiso   1.00
O695   O     0.37392   0.71353   0.25031   0.00000  Uiso   1.00
N696   N     0.62115   0.91396   0.22042   0.00000  Uiso   1.00
O697   O     0.60016   0.91320   0.18253   0.00000  Uiso   1.00
O698   O     0.62364   0.95245   0.24168   0.00000  Uiso   1.00
N699   N     0.62820   0.74736   0.26261   0.00000  Uiso   1.00
O700   O     0.61157   0.72703   0.22830   0.00000  Uiso   1.00
O701   O     0.63725   0.72303   0.29878   0.00000  Uiso   1.00
N702   N     0.37134   0.91910   0.23791   0.00000  Uiso   1.00
O703   O     0.38747   0.93848   0.27304   0.00000  Uiso   1.00
O704   O     0.36314   0.94428   0.20210   0.00000  Uiso   1.00
C705   C     0.46067   0.71733   0.17688   0.00000  Uiso   1.00
O706   O     0.47583   0.71929   0.14066   0.00000  Uiso   1.00
O707   O     0.42166   0.73570   0.18164   0.00000  Uiso   1.00
H708   H     0.40874   0.74885   0.15262   0.00000  Uiso   1.00
C709   C     0.54140   0.94923   0.32163   0.00000  Uiso   1.00
O710   O     0.52784   0.94644   0.35863   0.00000  Uiso   1.00
O711   O     0.58047   0.93220   0.31471   0.00000  Uiso   1.00
H712   H     0.59476   0.91855   0.34275   0.00000  Uiso   1.00
C713   C     0.53197   0.71184   0.32656   0.00000  Uiso   1.00
O714   O     0.56390   0.73212   0.32715   0.00000  Uiso   1.00
O715   O     0.51006   0.70853   0.36499   0.00000  Uiso   1.00
H716   H     0.52370   0.72461   0.39118   0.00000  Uiso   1.00
C717   C     0.46761   0.95462   0.17406   0.00000  Uiso   1.00
O718   O     0.43620   0.93350   0.17462   0.00000  Uiso   1.00
O719   O     0.48870   0.95821   0.13506   0.00000  Uiso   1.00
H720   H     0.47480   0.94217   0.10905   0.00000  Uiso   1.00
O721   O     0.77321   0.87291   0.24999   0.00000  Uiso   1.00
O722   O     0.89345   0.79375   0.25000   0.00000  Uiso   1.00
O723   O     0.89345   0.87291   0.25000   0.00000  Uiso   1.00
O724   O     0.77321   0.79375   0.24999   0.00000  Uiso   1.00
C725   C     0.75421   0.83378   0.25155   0.00000  Uiso   1.00
C726   C     0.91238   0.83280   0.24811   0.00000  Uiso   1.00
O727   O     0.83332   0.87293   0.18513   0.00000  Uiso   1.00
O728   O     0.83334   0.79373   0.31487   0.00000  Uiso   1.00
O729   O     0.83334   0.87293   0.31487   0.00000  Uiso   1.00
O730   O     0.83332   0.79373   0.18513   0.00000  Uiso   1.00
C731   C     0.83267   0.83359   0.16463   0.00000  Uiso   1.00
C732   C     0.83361   0.83296   0.33531   0.00000  Uiso   1.00
Cu733  Cu    0.83333   0.88022   0.25000   0.00000  Uiso   1.00
Cu734  Cu    0.83333   0.78645   0.25000   0.00000  Uiso   1.00
C735   C     0.87011   0.82606   0.40955   0.00000  Uiso   1.00
C736   C     0.79495   0.84103   0.09085   0.00000  Uiso   1.00
C737   C     0.83333   0.83184   0.38360   0.00000  Uiso   1.00
C738   C     0.83185   0.83294   0.11620   0.00000  Uiso   1.00
C739   C     0.79580   0.83531   0.40354   0.00000  Uiso   1.00
C740   C     0.86771   0.82028   0.09588   0.00000  Uiso   1.00
C741   C     0.79495   0.83372   0.45022   0.00000  Uiso   1.00
C742   C     0.86746   0.81747   0.04937   0.00000  Uiso   1.00
C743   C     0.83143   0.82551   0.47645   0.00000  Uiso   1.00
C744   C     0.83085   0.82596   0.02340   0.00000  Uiso   1.00
C745   C     0.86865   0.81774   0.45584   0.00000  Uiso   1.00
C746   C     0.79378   0.83487   0.04418   0.00000  Uiso   1.00
C747   C     0.75819   0.83921   0.47115   0.00000  Uiso   1.00
C748   C     0.90278   0.80380   0.02854   0.00000  Uiso   1.00
C749   C     0.75690   0.83739   0.01734   0.00000  Uiso   1.00
C750   C     0.90341   0.80217   0.48230   0.00000  Uiso   1.00
H751   H     0.72963   0.84354   0.45186   0.00000  Uiso   1.00
H752   H     0.92986   0.79245   0.04814   0.00000  Uiso   1.00
C753   C     0.68941   0.79235   0.26074   0.00000  Uiso   1.00
C754   C     0.97700   0.87338   0.23683   0.00000  Uiso   1.00
C755   C     0.98032   0.79098   0.25628   0.00000  Uiso   1.00
C756   C     0.68604   0.87519   0.24270   0.00000  Uiso   1.00
C757   C     0.95705   0.83187   0.24580   0.00000  Uiso   1.00
C758   C     0.70941   0.83428   0.25307   0.00000  Uiso   1.00
C759   C     0.81601   0.69255   0.21473   0.00000  Uiso   1.00
C760   C     0.85104   0.97408   0.28505   0.00000  Uiso   1.00
C761   C     0.84984   0.68988   0.28563   0.00000  Uiso   1.00
C762   C     0.81684   0.97677   0.21446   0.00000  Uiso   1.00
N763   N     0.83333   0.95069   0.25000   0.00000  Uiso   1.00
N764   N     0.83333   0.71598   0.25000   0.00000  Uiso   1.00
N765   N     0.90839   0.83553   0.39048   0.00000  Uiso   1.00
O766   O     0.91716   0.81970   0.35195   0.00000  Uiso   1.00
O767   O     0.93406   0.86229   0.41103   0.00000  Uiso   1.00
N768   N     0.75988   0.85883   0.11209   0.00000  Uiso   1.00
O769   O     0.74678   0.83819   0.14710   0.00000  Uiso   1.00
O770   O     0.74115   0.89631   0.09665   0.00000  Uiso   1.00
N771   N     0.75893   0.84277   0.37623   0.00000  Uiso   1.00
O772   O     0.73010   0.81297   0.37676   0.00000  Uiso   1.00
O773   O     0.75320   0.88074   0.35278   0.00000  Uiso   1.00
N774   N     0.90463   0.81140   0.12271   0.00000  Uiso   1.00
O775   O     0.90921   0.77349   0.14640   0.00000  Uiso   1.00
O776   O     0.93514   0.83874   0.11983   0.00000  Uiso   1.00
N777   N     0.71776   0.83365   0.03577   0.00000  Uiso   1.00
O778   O     0.68740   0.86008   0.02056   0.00000  Uiso   1.00
O779   O     0.71072   0.79891   0.06202   0.00000  Uiso   1.00
N780   N     0.93786   0.78028   0.46315   0.00000  Uiso   1.00
O781   O     0.97416   0.78363   0.48199   0.00000  Uiso   1.00
O782   O     0.93220   0.75071   0.43161   0.00000  Uiso   1.00
N783   N     0.71179   0.75047   0.27365   0.00000  Uiso   1.00
O784   O     0.73282   0.74763   0.31152   0.00000  Uiso   1.00
O785   O     0.70725   0.71353   0.25031   0.00000  Uiso   1.00
N786   N     0.95448   0.91396   0.22042   0.00000  Uiso   1.00
O787   O     0.93349   0.91320   0.18253   0.00000  Uiso   1.00
O788   O     0.95697   0.95245   0.24168   0.00000  Uiso   1.00
N789   N     0.96153   0.74736   0.26261   0.00000  Uiso   1.00
O790   O     0.94490   0.72703   0.22830   0.00000  Uiso   1.00
O791   O     0.97058   0.72303   0.29878   0.00000  Uiso   1.00
N792   N     0.70468   0.91910   0.23791   0.00000  Uiso   1.00
O793   O     0.72080   0.93848   0.27304   0.00000  Uiso   1.00
O794   O     0.69647   0.94428   0.20210   0.00000  Uiso   1.00
C795   C     0.79401   0.71733   0.17688   0.00000  Uiso   1.00
O796   O     0.80916   0.71929   0.14066   0.00000  Uiso   1.00
O797   O     0.75499   0.73570   0.18164   0.00000  Uiso   1.00
H798   H     0.74207   0.74885   0.15262   0.00000  Uiso   1.00
C799   C     0.87473   0.94923   0.32163   0.00000  Uiso   1.00
O800   O     0.86118   0.94644   0.35863   0.00000  Uiso   1.00
O801   O     0.91380   0.93220   0.31471   0.00000  Uiso   1.00
H802   H     0.92810   0.91855   0.34275   0.00000  Uiso   1.00
C803   C     0.86530   0.71184   0.32656   0.00000  Uiso   1.00
O804   O     0.89723   0.73212   0.32715   0.00000  Uiso   1.00
O805   O     0.84339   0.70853   0.36499   0.00000  Uiso   1.00
H806   H     0.85703   0.72461   0.39118   0.00000  Uiso   1.00
C807   C     0.80094   0.95462   0.17406   0.00000  Uiso   1.00
O808   O     0.76953   0.93350   0.17462   0.00000  Uiso   1.00
O809   O     0.82204   0.95821   0.13506   0.00000  Uiso   1.00
H810   H     0.80814   0.94217   0.10905   0.00000  Uiso   1.00
O811   O     0.10655   0.20625   0.74999   0.00000  Uiso   1.00
O812   O     0.22679   0.12709   0.75000   0.00000  Uiso   1.00
O813   O     0.22679   0.20625   0.75000   0.00000  Uiso   1.00
O814   O     0.10655   0.12709   0.74999   0.00000  Uiso   1.00
C815   C     0.08755   0.16711   0.75155   0.00000  Uiso   1.00
C816   C     0.24571   0.16613   0.74811   0.00000  Uiso   1.00
O817   O     0.16666   0.20627   0.68513   0.00000  Uiso   1.00
O818   O     0.16668   0.12707   0.81487   0.00000  Uiso   1.00
O819   O     0.16668   0.20627   0.81487   0.00000  Uiso   1.00
O820   O     0.16666   0.12707   0.68513   0.00000  Uiso   1.00
C821   C     0.16600   0.16692   0.66463   0.00000  Uiso   1.00
C822   C     0.16694   0.16630   0.83531   0.00000  Uiso   1.00
Cu823  Cu    0.16667   0.21355   0.75000   0.00000  Uiso   1.00
Cu824  Cu    0.16667   0.11978   0.75000   0.00000  Uiso   1.00
C825   C     0.20344   0.15939   0.90955   0.00000  Uiso   1.00
C826   C     0.12828   0.17436   0.59085   0.00000  Uiso   1.00
C827   C     0.16667   0.16517   0.88360   0.00000  Uiso   1.00
C828   C     0.16519   0.16627   0.61620   0.00000  Uiso   1.00
C829   C     0.12914   0.16864   0.90354   0.00000  Uiso   1.00
C830   C     0.20104   0.15361   0.59588   0.00000  Uiso   1.00
C831   C     0.12829   0.16705   0.95022   0.00000  Uiso   1.00
C832   C     0.20080   0.15080   0.54937   0.00000  Uiso   1.00
C833   C     0.16476   0.15884   0.97645   0.00000  Uiso   1.00
C834   C     0.16418   0.15929   0.52340   0.00000  Uiso   1.00
C835   C     0.20199   0.15107   0.95584   0.00000  Uiso   1.00
C836   C     0.12712   0.16820   0.54418   0.00000  Uiso   1.00
C837   C     0.09153   0.17255   0.97115   0.00000  Uiso   1.00
C838   C     0.23611   0.13713   0.52854   0.00000  Uiso   1.00
C839   C     0.09024   0.17072   0.51734   0.00000  Uiso   1.00
C840   C     0.23674   0.13551   0.98230   0.00000  Uiso   1.00
H841   H     0.06296   0.17688   0.95186   0.00000  Uiso   1.00
H842   H     0.26319   0.12579   0.54814   0.00000  Uiso   1.00
C843   C     0.02274   0.12568   0.76074   0.00000  Uiso   1.00
C844   C     0.31033   0.20672   0.73683   0.00000  Uiso   1.00
C845   C     0.31365   0.12431   0.75628   0.00000  Uiso   1.00
C846   C     0.01937   0.20852   0.74270   0.00000  Uiso   1.00
C847   C     0.29039   0.16521   0.74580   0.00000  Uiso   1.00
C848   C     0.04275   0.16761   0.75307   0.00000  Uiso   1.00
C849   C     0.14935   0.02588   0.71473   0.00000  Uiso   1.00
C850   C     0.18437   0.30741   0.78505   0.00000  Uiso   1.00
C851   C     0.18318   0.02322   0.78563   0.00000  Uiso   1.00
C852   C     0.15017   0.31011   0.71446   0.00000  Uiso   1.00
N853   N     0.16667   0.28402   0.75000   0.00000  Uiso   1.00
N854   N     0.16667   0.04931   0.75000   0.00000  Uiso   1.00
N855   N     0.24173   0.16887   0.89048   0.00000  Uiso   1.00
O856   O     0.25050   0.15304   0.85195   0.00000  Uiso   1.00
O857   O     0.26739   0.19562   0.91103   0.00000  Uiso   1.00
N858   N     0.09321   0.19216   0.61209   0.00000  Uiso   1.00
O859   O     0.08012   0.17152   0.64710   0.00000  Uiso   1.00
O860   O     0.07449   0.22965   0.59665   0.00000  Uiso   1.00
N861   N     0.09226   0.17610   0.87623   0.00000  Uiso   1.00
O862   O     0.06344   0.14630   0.87676   0.00000  Uiso   1.00
O863   O     0.08654   0.21408   0.85278   0.00000  Uiso   1.00
N864   N     0.23796   0.14473   0.62271   0.00000  Uiso   1.00
O865   O     0.24254   0.10682   0.64640   0.00000  Uiso   1.00
O866   O     0.26847   0.17207   0.61983   0.00000  Uiso   1.00
N867   N     0.05109   0.16698   0.53577   0.00000  Uiso   1.00
O868   O     0.02074   0.19342   0.52056   0.00000  Uiso   1.00
O869   O     0.04406   0.13224   0.56202   0.00000  Uiso   1.00
N870   N     0.27120   0.11361   0.96315   0.00000  Uiso   1.00
O871   O     0.30750   0.11696   0.98199   0.00000  Uiso   1.00
O872   O     0.26553   0.08404   0.93161   0.00000  Uiso   1.00
N873   N     0.04512   0.08381   0.77365   0.00000  Uiso   1.00
O874   O     0.06615   0.08096   0.81152   0.00000  Uiso   1.00
O875   O     0.04058   0.04686   0.75031   0.00000  Uiso   1.00
N876   N     0.28781   0.24729   0.72042   0.00000  Uiso   1.00
O877   O     0.26683   0.24654   0.68253   0.00000  Uiso   1.00
O878   O     0.29030   0.28579   0.74168   0.00000  Uiso   1.00
N879   N     0.29486   0.08069   0.76261   0.00000  Uiso   1.00
O880   O     0.27824   0.06037   0.72830   0.00000  Uiso   1.00
O881   O     0.30391   0.05636   0.79878   0.00000  Uiso   1.00
N882   N     0.03801   0.25244   0.73791   0.00000  Uiso   1.00
O883   O     0.05414   0.27182   0.77304   0.00000  Uiso   1.00
O884   O     0.02981   0.27761   0.70210   0.00000  Uiso   1.00
C885   C     0.12734   0.05066   0.67688   0.00000  Uiso   1.00
O886   O     0.14249   0.05262   0.64066   0.00000  Uiso   1.00
O887   O     0.08833   0.06903   0.68164   0.00000  Uiso   1.00
H888   H     0.07541   0.08218   0.65262   0.00000  Uiso   1.00
C889   C     0.20806   0.28256   0.82163   0.00000  Uiso   1.00
O890   O     0.19451   0.27978   0.85863   0.00000  Uiso   1.00
O891   O     0.24714   0.26554   0.81471   0.00000  Uiso   1.00
H892   H     0.26143   0.25188   0.84275   0.00000  Uiso   1.00
C893   C     0.19864   0.04517   0.82656   0.00000  Uiso   1.00
O894   O     0.23056   0.06545   0.82715   0.00000  Uiso   1.00
O895   O     0.17673   0.04186   0.86499   0.00000  Uiso   1.00
H896   H     0.19036   0.05795   0.89118   0.00000  Uiso   1.00
C897   C     0.13427   0.28796   0.67406   0.00000  Uiso   1.00
O898   O     0.10287   0.26684   0.67462   0.00000  Uiso   1.00
O899   O     0.15537   0.29155   0.63506   0.00000  Uiso   1.00
H900   H     0.14147   0.27551   0.60905   0.00000  Uiso   1.00
O901   O     0.43988   0.20625   0.74999   0.00000  Uiso   1.00
O902   O     0.56012   0.12709   0.75000   0.00000  Uiso   1.00
O903   O     0.56012   0.20625   0.75000   0.00000  Uiso   1.00
O904   O     0.43988   0.12709   0.74999   0.00000  Uiso   1.00
C905   C     0.42088   0.16711   0.75155   0.00000  Uiso   1.00
C906   C     0.57904   0.16613   0.74811   0.00000  Uiso   1.00
O907   O     0.49999   0.20627   0.68513   0.00000  Uiso   1.00
O908   O     0.50001   0.12707   0.81487   0.00000  Uiso   1.00
O909   O     0.50001   0.20627   0.81487   0.00000  Uiso   1.00
O910   O     0.49999   0.12707   0.68513   0.00000  Uiso   1.00
C911   C     0.49934   0.16692   0.66463   0.00000  Uiso   1.00
C912   C     0.50027   0.16630   0.83531   0.00000  Uiso   1.00
Cu913  Cu    0.50000   0.21355   0.75000   0.00000  Uiso   1.00
Cu914  Cu    0.50000   0.11978   0.75000   0.00000  Uiso   1.00
C915   C     0.53677   0.15939   0.90955   0.00000  Uiso   1.00
C916   C     0.46161   0.17436   0.59085   0.00000  Uiso   1.00
C917   C     0.50000   0.16517   0.88360   0.00000  Uiso   1.00
C918   C     0.49852   0.16627   0.61620   0.00000  Uiso   1.00
C919   C     0.46247   0.16864   0.90354   0.00000  Uiso   1.00
C920   C     0.53438   0.15361   0.59588   0.00000  Uiso   1.00
C921   C     0.46162   0.16705   0.95022   0.00000  Uiso   1.00
C922   C     0.53413   0.15080   0.54937   0.00000  Uiso   1.00
C923   C     0.49809   0.15884   0.97645   0.00000  Uiso   1.00
C924   C     0.49752   0.15929   0.52340   0.00000  Uiso   1.00
C925   C     0.53532   0.15107   0.95584   0.00000  Uiso   1.00
C926   C     0.46045   0.16820   0.54418   0.00000  Uiso   1.00
C927   C     0.42486   0.17255   0.97115   0.00000  Uiso   1.00
C928   C     0.56944   0.13713   0.52854   0.00000  Uiso   1.00
C929   C     0.42357   0.17072   0.51734   0.00000  Uiso   1.00
C930   C     0.57007   0.13551   0.98230   0.00000  Uiso   1.00
H931   H     0.39630   0.17688   0.95186   0.00000  Uiso   1.00
H932   H     0.59652   0.12579   0.54814   0.00000  Uiso   1.00
C933   C     0.35608   0.12568   0.76074   0.00000  Uiso   1.00
C934   C     0.64367   0.20672   0.73683   0.00000  Uiso   1.00
C935   C     0.64698   0.12431   0.75628   0.00000  Uiso   1.00
C936   C     0.35270   0.20852   0.74270   0.00000  Uiso   1.00
C937   C     0.62372   0.16521   0.74580   0.00000  Uiso   1.00
C938   C     0.37608   0.16761   0.75307   0.00000  Uiso   1.00
C939   C     0.48268   0.02588   0.71473   0.00000  Uiso   1.00
C940   C     0.51770   0.30741   0.78505   0.00000  Uiso   1.00
C941   C     0.51651   0.02322   0.78563   0.00000  Uiso   1.00
C942   C     0.48350   0.31011   0.71446   0.00000  Uiso   1.00
N943   N     0.50000   0.28402   0.75000   0.00000  Uiso   1.00
N944   N     0.50000   0.04931   0.75000   0.00000  Uiso   1.00
N945   N     0.57506   0.16887   0.89048   0.00000  Uiso   1.00
O946   O     0.58383   0.15304   0.85195   0.00000  Uiso   1.00
O947   O     0.60073   0.19562   0.91103   0.00000  Uiso   1.00
N948   N     0.42655   0.19216   0.61209   0.00000  Uiso   1.00
O949   O     0.41345   0.17152   0.64710   0.00000  Uiso   1.00
O950   O     0.40782   0.22965   0.59665   0.00000  Uiso   1.00
N951   N     0.42560   0.17610   0.87623   0.00000  Uiso   1.00
O952   O     0.39677   0.14630   0.87676   0.00000  Uiso   1.00
O953   O     0.41987   0.21408   0.85278   0.00000  Uiso   1.00
N954   N     0.57129   0.14473   0.62271   0.00000  Uiso   1.00
O955   O     0.57588   0.10682   0.64640   0.00000  Uiso   1.00
O956   O     0.60180   0.17207   0.61983   0.00000  Uiso   1.00
N957   N     0.38442   0.16698   0.53577   0.00000  Uiso   1.00
O958   O     0.35407   0.19342   0.52056   0.00000  Uiso   1.00
O959   O     0.37739   0.13224   0.56202   0.00000  Uiso   1.00
N960   N     0.60453   0.11361   0.96315   0.00000  Uiso   1.00
O961   O     0.64083   0.11696   0.98199   0.00000  Uiso   1.00
O962   O     0.59886   0.08404   0.93161   0.00000  Uiso   1.00
N963   N     0.37845   0.08381   0.77365   0.00000  Uiso   1.00
O964   O     0.39949   0.08096   0.81152   0.00000  Uiso   1.00
O965   O     0.37392   0.04686   0.75031   0.00000  Uiso   1.00
N966   N     0.62115   0.24729   0.72042   0.00000  Uiso   1.00
O967   O     0.60016   0.24654   0.68253   0.00000  Uiso   1.00
O968   O     0.62364   0.28579   0.74168   0.00000  Uiso   1.00
N969   N     0.62820   0.08069   0.76261   0.00000  Uiso   1.00
O970   O     0.61157   0.06037   0.72830   0.00000  Uiso   1.00
O971   O     0.63725   0.05636   0.79878   0.00000  Uiso   1.00
N972   N     0.37134   0.25244   0.73791   0.00000  Uiso   1.00
O973   O     0.38747   0.27182   0.77304   0.00000  Uiso   1.00
O974   O     0.36314   0.27761   0.70210   0.00000  Uiso   1.00
C975   C     0.46067   0.05066   0.67688   0.00000  Uiso   1.00
O976   O     0.47583   0.05262   0.64066   0.00000  Uiso   1.00
O977   O     0.42166   0.06903   0.68164   0.00000  Uiso   1.00
H978   H     0.40874   0.08218   0.65262   0.00000  Uiso   1.00
C979   C     0.54140   0.28256   0.82163   0.00000  Uiso   1.00
O980   O     0.52784   0.27978   0.85863   0.00000  Uiso   1.00
O981   O     0.58047   0.26554   0.81471   0.00000  Uiso   1.00
H982   H     0.59476   0.25188   0.84275   0.00000  Uiso   1.00
C983   C     0.53197   0.04517   0.82656   0.00000  Uiso   1.00
O984   O     0.56390   0.06545   0.82715   0.00000  Uiso   1.00
O985   O     0.51006   0.04186   0.86499   0.00000  Uiso   1.00
H986   H     0.52370   0.05795   0.89118   0.00000  Uiso   1.00
C987   C     0.46761   0.28796   0.67406   0.00000  Uiso   1.00
O988   O     0.43620   0.26684   0.67462   0.00000  Uiso   1.00
O989   O     0.48870   0.29155   0.63506   0.00000  Uiso   1.00
H990   H     0.47480   0.27551   0.60905   0.00000  Uiso   1.00
O991   O     0.77321   0.20625   0.74999   0.00000  Uiso   1.00
O992   O     0.89345   0.12709   0.75000   0.00000  Uiso   1.00
O993   O     0.89345   0.20625   0.75000   0.00000  Uiso   1.00
O994   O     0.77321   0.12709   0.74999   0.00000  Uiso   1.00
C995   C     0.75421   0.16711   0.75155   0.00000  Uiso   1.00
C996   C     0.91238   0.16613   0.74811   0.00000  Uiso   1.00
O997   O     0.83332   0.20627   0.68513   0.00000  Uiso   1.00
O998   O     0.83334   0.12707   0.81487   0.00000  Uiso   1.00
O999   O     0.83334   0.20627   0.81487   0.00000  Uiso   1.00
O1000  O     0.83332   0.12707   0.68513   0.00000  Uiso   1.00
C1001  C     0.83267   0.16692   0.66463   0.00000  Uiso   1.00
C1002  C     0.83361   0.16630   0.83531   0.00000  Uiso   1.00
Cu1003 Cu    0.83333   0.21355   0.75000   0.00000  Uiso   1.00
Cu1004 Cu    0.83333   0.11978   0.75000   0.00000  Uiso   1.00
C1005  C     0.87011   0.15939   0.90955   0.00000  Uiso   1.00
C1006  C     0.79495   0.17436   0.59085   0.00000  Uiso   1.00
C1007  C     0.83333   0.16517   0.88360   0.00000  Uiso   1.00
C1008  C     0.83185   0.16627   0.61620   0.00000  Uiso   1.00
C1009  C     0.79580   0.16864   0.90354   0.00000  Uiso   1.00
C1010  C     0.86771   0.15361   0.59588   0.00000  Uiso   1.00
C1011  C     0.79495   0.16705   0.95022   0.00000  Uiso   1.00
C1012  C     0.86746   0.15080   0.54937   0.00000  Uiso   1.00
C1013  C     0.83143   0.15884   0.97645   0.00000  Uiso   1.00
C1014  C     0.83085   0.15929   0.52340   0.00000  Uiso   1.00
C1015  C     0.86865   0.15107   0.95584   0.00000  Uiso   1.00
C1016  C     0.79378   0.16820   0.54418   0.00000  Uiso   1.00
C1017  C     0.75819   0.17255   0.97115   0.00000  Uiso   1.00
C1018  C     0.90278   0.13713   0.52854   0.00000  Uiso   1.00
C1019  C     0.75690   0.17072   0.51734   0.00000  Uiso   1.00
C1020  C     0.90341   0.13551   0.98230   0.00000  Uiso   1.00
H1021  H     0.72963   0.17688   0.95186   0.00000  Uiso   1.00
H1022  H     0.92986   0.12579   0.54814   0.00000  Uiso   1.00
C1023  C     0.68941   0.12568   0.76074   0.00000  Uiso   1.00
C1024  C     0.97700   0.20672   0.73683   0.00000  Uiso   1.00
C1025  C     0.98032   0.12431   0.75628   0.00000  Uiso   1.00
C1026  C     0.68604   0.20852   0.74270   0.00000  Uiso   1.00
C1027  C     0.95705   0.16521   0.74580   0.00000  Uiso   1.00
C1028  C     0.70941   0.16761   0.75307   0.00000  Uiso   1.00
C1029  C     0.81601   0.02588   0.71473   0.00000  Uiso   1.00
C1030  C     0.85104   0.30741   0.78505   0.00000  Uiso   1.00
C1031  C     0.84984   0.02322   0.78563   0.00000  Uiso   1.00
C1032  C     0.81684   0.31011   0.71446   0.00000  Uiso   1.00
N1033  N     0.83333   0.28402   0.75000   0.00000  Uiso   1.00
N1034  N     0.83333   0.04931   0.75000   0.00000  Uiso   1.00
N1035  N     0.90839   0.16887   0.89048   0.00000  Uiso   1.00
O1036  O     0.91716   0.15304   0.85195   0.00000  Uiso   1.00
O1037  O     0.93406   0.19562   0.91103   0.00000  Uiso   1.00
N1038  N     0.75988   0.19216   0.61209   0.00000  Uiso   1.00
O1039  O     0.74678   0.17152   0.64710   0.00000  Uiso   1.00
O1040  O     0.74115   0.22965   0.59665   0.00000  Uiso   1.00
N1041  N     0.75893   0.17610   0.87623   0.00000  Uiso   1.00
O1042  O     0.73010   0.14630   0.87676   0.00000  Uiso   1.00
O1043  O     0.75320   0.21408   0.85278   0.00000  Uiso   1.00
N1044  N     0.90463   0.14473   0.62271   0.00000  Uiso   1.00
O1045  O     0.90921   0.10682   0.64640   0.00000  Uiso   1.00
O1046  O     0.93514   0.17207   0.61983   0.00000  Uiso   1.00
N1047  N     0.71776   0.16698   0.53577   0.00000  Uiso   1.00
O1048  O     0.68740   0.19342   0.52056   0.00000  Uiso   1.00
O1049  O     0.71072   0.13224   0.56202   0.00000  Uiso   1.00
N1050  N     0.93786   0.11361   0.96315   0.00000  Uiso   1.00
O1051  O     0.97416   0.11696   0.98199   0.00000  Uiso   1.00
O1052  O     0.93220   0.08404   0.93161   0.00000  Uiso   1.00
N1053  N     0.71179   0.08381   0.77365   0.00000  Uiso   1.00
O1054  O     0.73282   0.08096   0.81152   0.00000  Uiso   1.00
O1055  O     0.70725   0.04686   0.75031   0.00000  Uiso   1.00
N1056  N     0.95448   0.24729   0.72042   0.00000  Uiso   1.00
O1057  O     0.93349   0.24654   0.68253   0.00000  Uiso   1.00
O1058  O     0.95697   0.28579   0.74168   0.00000  Uiso   1.00
N1059  N     0.96153   0.08069   0.76261   0.00000  Uiso   1.00
O1060  O     0.94490   0.06037   0.72830   0.00000  Uiso   1.00
O1061  O     0.97058   0.05636   0.79878   0.00000  Uiso   1.00
N1062  N     0.70468   0.25244   0.73791   0.00000  Uiso   1.00
O1063  O     0.72080   0.27182   0.77304   0.00000  Uiso   1.00
O1064  O     0.69647   0.27761   0.70210   0.00000  Uiso   1.00
C1065  C     0.79401   0.05066   0.67688   0.00000  Uiso   1.00
O1066  O     0.80916   0.05262   0.64066   0.00000  Uiso   1.00
O1067  O     0.75499   0.06903   0.68164   0.00000  Uiso   1.00
H1068  H     0.74207   0.08218   0.65262   0.00000  Uiso   1.00
C1069  C     0.87473   0.28256   0.82163   0.00000  Uiso   1.00
O1070  O     0.86118   0.27978   0.85863   0.00000  Uiso   1.00
O1071  O     0.91380   0.26554   0.81471   0.00000  Uiso   1.00
H1072  H     0.92810   0.25188   0.84275   0.00000  Uiso   1.00
C1073  C     0.86530   0.04517   0.82656   0.00000  Uiso   1.00
O1074  O     0.89723   0.06545   0.82715   0.00000  Uiso   1.00
O1075  O     0.84339   0.04186   0.86499   0.00000  Uiso   1.00
H1076  H     0.85703   0.05795   0.89118   0.00000  Uiso   1.00
C1077  C     0.80094   0.28796   0.67406   0.00000  Uiso   1.00
O1078  O     0.76953   0.26684   0.67462   0.00000  Uiso   1.00
O1079  O     0.82204   0.29155   0.63506   0.00000  Uiso   1.00
H1080  H     0.80814   0.27551   0.60905   0.00000  Uiso   1.00
O1081  O     0.10655   0.53958   0.74999   0.00000  Uiso   1.00
O1082  O     0.22679   0.46042   0.75000   0.00000  Uiso   1.00
O1083  O     0.22679   0.53958   0.75000   0.00000  Uiso   1.00
O1084  O     0.10655   0.46042   0.74999   0.00000  Uiso   1.00
C1085  C     0.08755   0.50045   0.75155   0.00000  Uiso   1.00
C1086  C     0.24571   0.49947   0.74811   0.00000  Uiso   1.00
O1087  O     0.16666   0.53960   0.68513   0.00000  Uiso   1.00
O1088  O     0.16668   0.46040   0.81487   0.00000  Uiso   1.00
O1089  O     0.16668   0.53960   0.81487   0.00000  Uiso   1.00
O1090  O     0.16666   0.46040   0.68513   0.00000  Uiso   1.00
C1091  C     0.16600   0.50026   0.66463   0.00000  Uiso   1.00
C1092  C     0.16694   0.49963   0.83531   0.00000  Uiso   1.00
Cu1093 Cu    0.16667   0.54689   0.75000   0.00000  Uiso   1.00
Cu1094 Cu    0.16667   0.45311   0.75000   0.00000  Uiso   1.00
C1095  C     0.20344   0.49272   0.90955   0.00000  Uiso   1.00
C1096  C     0.12828   0.50769   0.59085   0.00000  Uiso   1.00
C1097  C     0.16667   0.49851   0.88360   0.00000  Uiso   1.00
C1098  C     0.16519   0.49961   0.61620   0.00000  Uiso   1.00
C1099  C     0.12914   0.50198   0.90354   0.00000  Uiso   1.00
C1100  C     0.20104   0.48694   0.59588   0.00000  Uiso   1.00
C1101  C     0.12829   0.50039   0.95022   0.00000  Uiso   1.00
C1102  C     0.20080   0.48414   0.54937   0.00000  Uiso   1.00
C1103  C     0.16476   0.49217   0.97645   0.00000  Uiso   1.00
C1104  C     0.16418   0.49263   0.52340   0.00000  Uiso   1.00
C1105  C     0.20199   0.48440   0.95584   0.00000  Uiso   1.00
C1106  C     0.12712   0.50154   0.54418   0.00000  Uiso   1.00
C1107  C     0.09153   0.50588   0.97115   0.00000  Uiso   1.00
C1108  C     0.23611   0.47046   0.52854   0.00000  Uiso   1.00
C1109  C     0.09024   0.50406   0.51734   0.00000  Uiso   1.00
C1110  C     0.23674   0.46884   0.98230   0.00000  Uiso   1.00
H1111  H     0.06296   0.51021   0.95186   0.00000  Uiso   1.00
H1112  H     0.26319   0.45912   0.54814   0.00000  Uiso   1.00
C1113  C     0.02274   0.45901   0.76074   0.00000  Uiso   1.00
C1114  C     0.31033   0.54005   0.73683   0.00000  Uiso   1.00
C1115  C     0.31365   0.45765   0.75628   0.00000  Uiso   1.00
C1116  C     0.01937   0.54186   0.74270   0.00000  Uiso   1.00
C1117  C     0.29039   0.49854   0.74580   0.00000  Uiso   1.00
C1118  C     0.04275   0.50094   0.75307   0.00000  Uiso   1.00
C1119  C     0.14935   0.35922   0.71473   0.00000  Uiso   1.00
C1120  C     0.18437   0.64075   0.78505   0.00000  Uiso   1.00
C1121  C     0.18318   0.35655   0.78563   0.00000  Uiso   1.00
C1122  C     0.15017   0.64344   0.71446   0.00000  Uiso   1.00
N1123  N     0.16667   0.61736   0.75000   0.00000  Uiso   1.00
N1124  N     0.16667   0.38264   0.75000   0.00000  Uiso   1.00
N1125  N     0.24173   0.50220   0.89048   0.00000  Uiso   1.00
O1126  O     0.25050   0.48637   0.85195   0.00000  Uiso   1.00
O1127  O     0.26739   0.52896   0.91103   0.00000  Uiso   1.00
N1128  N     0.09321   0.52549   0.61209   0.00000  Uiso   1.00
O1129  O     0.08012   0.50485   0.64710   0.00000  Uiso   1.00
O1130  O     0.07449   0.56298   0.59665   0.00000  Uiso   1.00
N1131  N     0.09226   0.50943   0.87623   0.00000  Uiso   1.00
O1132  O     0.06344   0.47963   0.87676   0.00000  Uiso   1.00
O1133  O     0.08654   0.54741   0.85278   0.00000  Uiso   1.00
N1134  N     0.23796   0.47807   0.62271   0.00000  Uiso   1.00
O1135  O     0.24254   0.44016   0.64640   0.00000  Uiso   1.00
O1136  O     0.26847   0.50540   0.61983   0.00000  Uiso   1.00
N1137  N     0.05109   0.50032   0.53577   0.00000  Uiso   1.00
O1138  O     0.02074   0.52675   0.52056   0.00000  Uiso   1.00
O1139  O     0.04406   0.46558   0.56202   0.00000  Uiso   1.00
N1140  N     0.27120   0.44694   0.96315   0.00000  Uiso   1.00
O1141  O     0.30750   0.45030   0.98199   0.00000  Uiso   1.00
O1142  O     0.26553   0.41737   0.93161   0.00000  Uiso   1.00
N1143  N     0.04512   0.41714   0.77365   0.00000  Uiso   1.00
O1144  O     0.06615   0.41430   0.81152   0.00000  Uiso   1.00
O1145  O     0.04058   0.38019   0.75031   0.00000  Uiso   1.00
N1146  N     0.28781   0.58062   0.72042   0.00000  Uiso   1.00
O1147  O     0.26683   0.57987   0.68253   0.00000  Uiso   1.00
O1148  O     0.29030   0.61912   0.74168   0.00000  Uiso   1.00
N1149  N     0.29486   0.41403   0.76261   0.00000  Uiso   1.00
O1150  O     0.27824   0.39370   0.72830   0.00000  Uiso   1.00
O1151  O     0.30391   0.38970   0.79878   0.00000  Uiso   1.00
N1152  N     0.03801   0.58577   0.73791   0.00000  Uiso   1.00
O1153  O     0.05414   0.60515   0.77304   0.00000  Uiso   1.00
O1154  O     0.02981   0.61095   0.70210   0.00000  Uiso   1.00
C1155  C     0.12734   0.38400   0.67688   0.00000  Uiso   1.00
O1156  O     0.14249   0.38596   0.64066   0.00000  Uiso   1.00
O1157  O     0.08833   0.40236   0.68164   0.00000  Uiso   1.00
H1158  H     0.07541   0.41552   0.65262   0.00000  Uiso   1.00
C1159  C     0.20806   0.61589   0.82163   0.00000  Uiso   1.00
O1160  O     0.19451   0.61311   0.85863   0.00000  Uiso   1.00
O1161  O     0.24714   0.59887   0.81471   0.00000  Uiso   1.00
H1162  H     0.26143   0.58521   0.84275   0.00000  Uiso   1.00
C1163  C     0.19864   0.37851   0.82656   0.00000  Uiso   1.00
O1164  O     0.23056   0.39879   0.82715   0.00000  Uiso   1.00
O1165  O     0.17673   0.37519   0.86499   0.00000  Uiso   1.00
H1166  H     0.19036   0.39128   0.89118   0.00000  Uiso   1.00
C1167  C     0.13427   0.62129   0.67406   0.00000  Uiso   1.00
O1168  O     0.10287   0.60017   0.67462   0.00000  Uiso   1.00
O1169  O     0.15537   0.62488   0.63506   0.00000  Uiso   1.00
H1170  H     0.14147   0.60884   0.60905   0.00000  Uiso   1.00
O1171  O     0.43988   0.53958   0.74999   0.00000  Uiso   1.00
O1172  O     0.56012   0.46042   0.75000   0.00000  Uiso   1.00
O1173  O     0.56012   0.53958   0.75000   0.00000  Uiso   1.00
O1174  O     0.43988   0.46042   0.74999   0.00000  Uiso   1.00
C1175  C     0.42088   0.50045   0.75155   0.00000  Uiso   1.00
C1176  C     0.57904   0.49947   0.74811   0.00000  Uiso   1.00
O1177  O     0.49999   0.53960   0.68513   0.00000  Uiso   1.00
O1178  O     0.50001   0.46040   0.81487   0.00000  Uiso   1.00
O1179  O     0.50001   0.53960   0.81487   0.00000  Uiso   1.00
O1180  O     0.49999   0.46040   0.68513   0.00000  Uiso   1.00
C1181  C     0.49934   0.50026   0.66463   0.00000  Uiso   1.00
C1182  C     0.50027   0.49963   0.83531   0.00000  Uiso   1.00
Cu1183 Cu    0.50000   0.54689   0.75000   0.00000  Uiso   1.00
Cu1184 Cu    0.50000   0.45311   0.75000   0.00000  Uiso   1.00
C1185  C     0.53677   0.49272   0.90955   0.00000  Uiso   1.00
C1186  C     0.46161   0.50769   0.59085   0.00000  Uiso   1.00
C1187  C     0.50000   0.49851   0.88360   0.00000  Uiso   1.00
C1188  C     0.49852   0.49961   0.61620   0.00000  Uiso   1.00
C1189  C     0.46247   0.50198   0.90354   0.00000  Uiso   1.00
C1190  C     0.53438   0.48694   0.59588   0.00000  Uiso   1.00
C1191  C     0.46162   0.50039   0.95022   0.00000  Uiso   1.00
C1192  C     0.53413   0.48414   0.54937   0.00000  Uiso   1.00
C1193  C     0.49809   0.49217   0.97645   0.00000  Uiso   1.00
C1194  C     0.49752   0.49263   0.52340   0.00000  Uiso   1.00
C1195  C     0.53532   0.48440   0.95584   0.00000  Uiso   1.00
C1196  C     0.46045   0.50154   0.54418   0.00000  Uiso   1.00
C1197  C     0.42486   0.50588   0.97115   0.00000  Uiso   1.00
C1198  C     0.56944   0.47046   0.52854   0.00000  Uiso   1.00
C1199  C     0.42357   0.50406   0.51734   0.00000  Uiso   1.00
C1200  C     0.57007   0.46884   0.98230   0.00000  Uiso   1.00
H1201  H     0.39630   0.51021   0.95186   0.00000  Uiso   1.00
H1202  H     0.59652   0.45912   0.54814   0.00000  Uiso   1.00
C1203  C     0.35608   0.45901   0.76074   0.00000  Uiso   1.00
C1204  C     0.64367   0.54005   0.73683   0.00000  Uiso   1.00
C1205  C     0.64698   0.45765   0.75628   0.00000  Uiso   1.00
C1206  C     0.35270   0.54186   0.74270   0.00000  Uiso   1.00
C1207  C     0.62372   0.49854   0.74580   0.00000  Uiso   1.00
C1208  C     0.37608   0.50094   0.75307   0.00000  Uiso   1.00
C1209  C     0.48268   0.35922   0.71473   0.00000  Uiso   1.00
C1210  C     0.51770   0.64075   0.78505   0.00000  Uiso   1.00
C1211  C     0.51651   0.35655   0.78563   0.00000  Uiso   1.00
C1212  C     0.48350   0.64344   0.71446   0.00000  Uiso   1.00
N1213  N     0.50000   0.61736   0.75000   0.00000  Uiso   1.00
N1214  N     0.50000   0.38264   0.75000   0.00000  Uiso   1.00
N1215  N     0.57506   0.50220   0.89048   0.00000  Uiso   1.00
O1216  O     0.58383   0.48637   0.85195   0.00000  Uiso   1.00
O1217  O     0.60073   0.52896   0.91103   0.00000  Uiso   1.00
N1218  N     0.42655   0.52549   0.61209   0.00000  Uiso   1.00
O1219  O     0.41345   0.50485   0.64710   0.00000  Uiso   1.00
O1220  O     0.40782   0.56298   0.59665   0.00000  Uiso   1.00
N1221  N     0.42560   0.50943   0.87623   0.00000  Uiso   1.00
O1222  O     0.39677   0.47963   0.87676   0.00000  Uiso   1.00
O1223  O     0.41987   0.54741   0.85278   0.00000  Uiso   1.00
N1224  N     0.57129   0.47807   0.62271   0.00000  Uiso   1.00
O1225  O     0.57588   0.44016   0.64640   0.00000  Uiso   1.00
O1226  O     0.60180   0.50540   0.61983   0.00000  Uiso   1.00
N1227  N     0.38442   0.50032   0.53577   0.00000  Uiso   1.00
O1228  O     0.35407   0.52675   0.52056   0.00000  Uiso   1.00
O1229  O     0.37739   0.46558   0.56202   0.00000  Uiso   1.00
N1230  N     0.60453   0.44694   0.96315   0.00000  Uiso   1.00
O1231  O     0.64083   0.45030   0.98199   0.00000  Uiso   1.00
O1232  O     0.59886   0.41737   0.93161   0.00000  Uiso   1.00
N1233  N     0.37845   0.41714   0.77365   0.00000  Uiso   1.00
O1234  O     0.39949   0.41430   0.81152   0.00000  Uiso   1.00
O1235  O     0.37392   0.38019   0.75031   0.00000  Uiso   1.00
N1236  N     0.62115   0.58062   0.72042   0.00000  Uiso   1.00
O1237  O     0.60016   0.57987   0.68253   0.00000  Uiso   1.00
O1238  O     0.62364   0.61912   0.74168   0.00000  Uiso   1.00
N1239  N     0.62820   0.41403   0.76261   0.00000  Uiso   1.00
O1240  O     0.61157   0.39370   0.72830   0.00000  Uiso   1.00
O1241  O     0.63725   0.38970   0.79878   0.00000  Uiso   1.00
N1242  N     0.37134   0.58577   0.73791   0.00000  Uiso   1.00
O1243  O     0.38747   0.60515   0.77304   0.00000  Uiso   1.00
O1244  O     0.36314   0.61095   0.70210   0.00000  Uiso   1.00
C1245  C     0.46067   0.38400   0.67688   0.00000  Uiso   1.00
O1246  O     0.47583   0.38596   0.64066   0.00000  Uiso   1.00
O1247  O     0.42166   0.40236   0.68164   0.00000  Uiso   1.00
H1248  H     0.40874   0.41552   0.65262   0.00000  Uiso   1.00
C1249  C     0.54140   0.61589   0.82163   0.00000  Uiso   1.00
O1250  O     0.52784   0.61311   0.85863   0.00000  Uiso   1.00
O1251  O     0.58047   0.59887   0.81471   0.00000  Uiso   1.00
H1252  H     0.59476   0.58521   0.84275   0.00000  Uiso   1.00
C1253  C     0.53197   0.37851   0.82656   0.00000  Uiso   1.00
O1254  O     0.56390   0.39879   0.82715   0.00000  Uiso   1.00
O1255  O     0.51006   0.37519   0.86499   0.00000  Uiso   1.00
H1256  H     0.52370   0.39128   0.89118   0.00000  Uiso   1.00
C1257  C     0.46761   0.62129   0.67406   0.00000  Uiso   1.00
O1258  O     0.43620   0.60017   0.67462   0.00000  Uiso   1.00
O1259  O     0.48870   0.62488   0.63506   0.00000  Uiso   1.00
H1260  H     0.47480   0.60884   0.60905   0.00000  Uiso   1.00
O1261  O     0.77321   0.53958   0.74999   0.00000  Uiso   1.00
O1262  O     0.89345   0.46042   0.75000   0.00000  Uiso   1.00
O1263  O     0.89345   0.53958   0.75000   0.00000  Uiso   1.00
O1264  O     0.77321   0.46042   0.74999   0.00000  Uiso   1.00
C1265  C     0.75421   0.50045   0.75155   0.00000  Uiso   1.00
C1266  C     0.91238   0.49947   0.74811   0.00000  Uiso   1.00
O1267  O     0.83332   0.53960   0.68513   0.00000  Uiso   1.00
O1268  O     0.83334   0.46040   0.81487   0.00000  Uiso   1.00
O1269  O     0.83334   0.53960   0.81487   0.00000  Uiso   1.00
O1270  O     0.83332   0.46040   0.68513   0.00000  Uiso   1.00
C1271  C     0.83267   0.50026   0.66463   0.00000  Uiso   1.00
C1272  C     0.83361   0.49963   0.83531   0.00000  Uiso   1.00
Cu1273 Cu    0.83333   0.54689   0.75000   0.00000  Uiso   1.00
Cu1274 Cu    0.83333   0.45311   0.75000   0.00000  Uiso   1.00
C1275  C     0.87011   0.49272   0.90955   0.00000  Uiso   1.00
C1276  C     0.79495   0.50769   0.59085   0.00000  Uiso   1.00
C1277  C     0.83333   0.49851   0.88360   0.00000  Uiso   1.00
C1278  C     0.83185   0.49961   0.61620   0.00000  Uiso   1.00
C1279  C     0.79580   0.50198   0.90354   0.00000  Uiso   1.00
C1280  C     0.86771   0.48694   0.59588   0.00000  Uiso   1.00
C1281  C     0.79495   0.50039   0.95022   0.00000  Uiso   1.00
C1282  C     0.86746   0.48414   0.54937   0.00000  Uiso   1.00
C1283  C     0.83143   0.49217   0.97645   0.00000  Uiso   1.00
C1284  C     0.83085   0.49263   0.52340   0.00000  Uiso   1.00
C1285  C     0.86865   0.48440   0.95584   0.00000  Uiso   1.00
C1286  C     0.79378   0.50154   0.54418   0.00000  Uiso   1.00
C1287  C     0.75819   0.50588   0.97115   0.00000  Uiso   1.00
C1288  C     0.90278   0.47046   0.52854   0.00000  Uiso   1.00
C1289  C     0.75690   0.50406   0.51734   0.00000  Uiso   1.00
C1290  C     0.90341   0.46884   0.98230   0.00000  Uiso   1.00
H1291  H     0.72963   0.51021   0.95186   0.00000  Uiso   1.00
H1292  H     0.92986   0.45912   0.54814   0.00000  Uiso   1.00
C1293  C     0.68941   0.45901   0.76074   0.00000  Uiso   1.00
C1294  C     0.97700   0.54005   0.73683   0.00000  Uiso   1.00
C1295  C     0.98032   0.45765   0.75628   0.00000  Uiso   1.00
C1296  C     0.68604   0.54186   0.74270   0.00000  Uiso   1.00
C1297  C     0.95705   0.49854   0.74580   0.00000  Uiso   1.00
C1298  C     0.70941   0.50094   0.75307   0.00000  Uiso   1.00
C1299  C     0.81601   0.35922   0.71473   0.00000  Uiso   1.00
C1300  C     0.85104   0.64075   0.78505   0.00000  Uiso   1.00
C1301  C     0.84984   0.35655   0.78563   0.00000  Uiso   1.00
C1302  C     0.81684   0.64344   0.71446   0.00000  Uiso   1.00
N1303  N     0.83333   0.61736   0.75000   0.00000  Uiso   1.00
N1304  N     0.83333   0.38264   0.75000   0.00000  Uiso   1.00
N1305  N     0.90839   0.50220   0.89048   0.00000  Uiso   1.00
O1306  O     0.91716   0.48637   0.85195   0.00000  Uiso   1.00
O1307  O     0.93406   0.52896   0.91103   0.00000  Uiso   1.00
N1308  N     0.75988   0.52549   0.61209   0.00000  Uiso   1.00
O1309  O     0.74678   0.50485   0.64710   0.00000  Uiso   1.00
O1310  O     0.74115   0.56298   0.59665   0.00000  Uiso   1.00
N1311  N     0.75893   0.50943   0.87623   0.00000  Uiso   1.00
O1312  O     0.73010   0.47963   0.87676   0.00000  Uiso   1.00
O1313  O     0.75320   0.54741   0.85278   0.00000  Uiso   1.00
N1314  N     0.90463   0.47807   0.62271   0.00000  Uiso   1.00
O1315  O     0.90921   0.44016   0.64640   0.00000  Uiso   1.00
O1316  O     0.93514   0.50540   0.61983   0.00000  Uiso   1.00
N1317  N     0.71776   0.50032   0.53577   0.00000  Uiso   1.00
O1318  O     0.68740   0.52675   0.52056   0.00000  Uiso   1.00
O1319  O     0.71072   0.46558   0.56202   0.00000  Uiso   1.00
N1320  N     0.93786   0.44694   0.96315   0.00000  Uiso   1.00
O1321  O     0.97416   0.45030   0.98199   0.00000  Uiso   1.00
O1322  O     0.93220   0.41737   0.93161   0.00000  Uiso   1.00
N1323  N     0.71179   0.41714   0.77365   0.00000  Uiso   1.00
O1324  O     0.73282   0.41430   0.81152   0.00000  Uiso   1.00
O1325  O     0.70725   0.38019   0.75031   0.00000  Uiso   1.00
N1326  N     0.95448   0.58062   0.72042   0.00000  Uiso   1.00
O1327  O     0.93349   0.57987   0.68253   0.00000  Uiso   1.00
O1328  O     0.95697   0.61912   0.74168   0.00000  Uiso   1.00
N1329  N     0.96153   0.41403   0.76261   0.00000  Uiso   1.00
O1330  O     0.94490   0.39370   0.72830   0.00000  Uiso   1.00
O1331  O     0.97058   0.38970   0.79878   0.00000  Uiso   1.00
N1332  N     0.70468   0.58577   0.73791   0.00000  Uiso   1.00
O1333  O     0.72080   0.60515   0.77304   0.00000  Uiso   1.00
O1334  O     0.69647   0.61095   0.70210   0.00000  Uiso   1.00
C1335  C     0.79401   0.38400   0.67688   0.00000  Uiso   1.00
O1336  O     0.80916   0.38596   0.64066   0.00000  Uiso   1.00
O1337  O     0.75499   0.40236   0.68164   0.00000  Uiso   1.00
H1338  H     0.74207   0.41552   0.65262   0.00000  Uiso   1.00
C1339  C     0.87473   0.61589   0.82163   0.00000  Uiso   1.00
O1340  O     0.86118   0.61311   0.85863   0.00000  Uiso   1.00
O1341  O     0.91380   0.59887   0.81471   0.00000  Uiso   1.00
H1342  H     0.92810   0.58521   0.84275   0.00000  Uiso   1.00
C1343  C     0.86530   0.37851   0.82656   0.00000  Uiso   1.00
O1344  O     0.89723   0.39879   0.82715   0.00000  Uiso   1.00
O1345  O     0.84339   0.37519   0.86499   0.00000  Uiso   1.00
H1346  H     0.85703   0.39128   0.89118   0.00000  Uiso   1.00
C1347  C     0.80094   0.62129   0.67406   0.00000  Uiso   1.00
O1348  O     0.76953   0.60017   0.67462   0.00000  Uiso   1.00
O1349  O     0.82204   0.62488   0.63506   0.00000  Uiso   1.00
H1350  H     0.80814   0.60884   0.60905   0.00000  Uiso   1.00
O1351  O     0.10655   0.87291   0.74999   0.00000  Uiso   1.00
O1352  O     0.22679   0.79375   0.75000   0.00000  Uiso   1.00
O1353  O     0.22679   0.87291   0.75000   0.00000  Uiso   1.00
O1354  O     0.10655   0.79375   0.74999   0.00000  Uiso   1.00
C1355  C     0.08755   0.83378   0.75155   0.00000  Uiso   1.00
C1356  C     0.24571   0.83280   0.74811   0.00000  Uiso   1.00
O1357  O     0.16666   0.87293   0.68513   0.00000  Uiso   1.00
O1358  O     0.16668   0.79373   0.81487   0.00000  Uiso   1.00
O1359  O     0.16668   0.87293   0.81487   0.00000  Uiso   1.00
O1360  O     0.16666   0.79373   0.68513   0.00000  Uiso   1.00
C1361  C     0.16600   0.83359   0.66463   0.00000  Uiso   1.00
C1362  C     0.16694   0.83296   0.83531   0.00000  Uiso   1.00
Cu1363 Cu    0.16667   0.88022   0.75000   0.00000  Uiso   1.00
Cu1364 Cu    0.16667   0.78645   0.75000   0.00000  Uiso   1.00
C1365  C     0.20344   0.82606   0.90955   0.00000  Uiso   1.00
C1366  C     0.12828   0.84103   0.59085   0.00000  Uiso   1.00
C1367  C     0.16667   0.83184   0.88360   0.00000  Uiso   1.00
C1368  C     0.16519   0.83294   0.61620   0.00000  Uiso   1.00
C1369  C     0.12914   0.83531   0.90354   0.00000  Uiso   1.00
C1370  C     0.20104   0.82028   0.59588   0.00000  Uiso   1.00
C1371  C     0.12829   0.83372   0.95022   0.00000  Uiso   1.00
C1372  C     0.20080   0.81747   0.54937   0.00000  Uiso   1.00
C1373  C     0.16476   0.82551   0.97645   0.00000  Uiso   1.00
C1374  C     0.16418   0.82596   0.52340   0.00000  Uiso   1.00
C1375  C     0.20199   0.81774   0.95584   0.00000  Uiso   1.00
C1376  C     0.12712   0.83487   0.54418   0.00000  Uiso   1.00
C1377  C     0.09153   0.83921   0.97115   0.00000  Uiso   1.00
C1378  C     0.23611   0.80380   0.52854   0.00000  Uiso   1.00
C1379  C     0.09024   0.83739   0.51734   0.00000  Uiso   1.00
C1380  C     0.23674   0.80217   0.98230   0.00000  Uiso   1.00
H1381  H     0.06296   0.84354   0.95186   0.00000  Uiso   1.00
H1382  H     0.26319   0.79245   0.54814   0.00000  Uiso   1.00
C1383  C     0.02274   0.79235   0.76074   0.00000  Uiso   1.00
C1384  C     0.31033   0.87338   0.73683   0.00000  Uiso   1.00
C1385  C     0.31365   0.79098   0.75628   0.00000  Uiso   1.00
C1386  C     0.01937   0.87519   0.74270   0.00000  Uiso   1.00
C1387  C     0.29039   0.83187   0.74580   0.00000  Uiso   1.00
C1388  C     0.04275   0.83428   0.75307   0.00000  Uiso   1.00
C1389  C     0.14935   0.69255   0.71473   0.00000  Uiso   1.00
C1390  C     0.18437   0.97408   0.78505   0.00000  Uiso   1.00
C1391  C     0.18318   0.68988   0.78563   0.00000  Uiso   1.00
C1392  C     0.15017   0.97677   0.71446   0.00000  Uiso   1.00
N1393  N     0.16667   0.95069   0.75000   0.00000  Uiso   1.00
N1394  N     0.16667   0.71598   0.75000   0.00000  Uiso   1.00
N1395  N     0.24173   0.83553   0.89048   0.00000  Uiso   1.00
O1396  O     0.25050   0.81970   0.85195   0.00000  Uiso   1.00
O1397  O     0.26739   0.86229   0.91103   0.00000  Uiso   1.00
N1398  N     0.09321   0.85883   0.61209   0.00000  Uiso   1.00
O1399  O     0.08012   0.83819   0.64710   0.00000  Uiso   1.00
O1400  O     0.07449   0.89631   0.59665   0.00000  Uiso   1.00
N1401  N     0.09226   0.84277   0.87623   0.00000  Uiso   1.00
O1402  O     0.06344   0.81297   0.87676   0.00000  Uiso   1.00
O1403  O     0.08654   0.88074   0.85278   0.00000  Uiso   1.00
N1404  N     0.23796   0.81140   0.62271   0.00000  Uiso   1.00
O1405  O     0.24254   0.77349   0.64640   0.00000  Uiso   1.00
O1406  O     0.26847   0.83874   0.61983   0.00000  Uiso   1.00
N1407  N     0.05109   0.83365   0.53577   0.00000  Uiso   1.00
O1408  O     0.02074   0.86008   0.52056   0.00000  Uiso   1.00
O1409  O     0.04406   0.79891   0.56202   0.00000  Uiso   1.00
N1410  N     0.27120   0.78028   0.96315   0.00000  Uiso   1.00
O1411  O     0.30750   0.78363   0.98199   0.00000  Uiso   1.00
O1412  O     0.26553   0.75071   0.93161   0.00000  Uiso   1.00
N1413  N     0.04512   0.75047   0.77365   0.00000  Uiso   1.00
O1414  O     0.06615   0.74763   0.81152   0.00000  Uiso   1.00
O1415  O     0.04058   0.71353   0.75031   0.00000  Uiso   1.00
N1416  N     0.28781   0.91396   0.72042   0.00000  Uiso   1.00
O1417  O     0.26683   0.91320   0.68253   0.00000  Uiso   1.00
O1418  O     0.29030   0.95245   0.74168   0.00000  Uiso   1.00
N1419  N     0.29486   0.74736   0.76261   0.00000  Uiso   1.00
O1420  O     0.27824   0.72703   0.72830   0.00000  Uiso   1.00
O1421  O     0.30391   0.72303   0.79878   0.00000  Uiso   1.00
N1422  N     0.03801   0.91910   0.73791   0.00000  Uiso   1.00
O1423  O     0.05414   0.93848   0.77304   0.00000  Uiso   1.00
O1424  O     0.02981   0.94428   0.70210   0.00000  Uiso   1.00
C1425  C     0.12734   0.71733   0.67688   0.00000  Uiso   1.00
O1426  O     0.14249   0.71929   0.64066   0.00000  Uiso   1.00
O1427  O     0.08833   0.73570   0.68164   0.00000  Uiso   1.00
H1428  H     0.07541   0.74885   0.65262   0.00000  Uiso   1.00
C1429  C     0.20806   0.94923   0.82163   0.00000  Uiso   1.00
O1430  O     0.19451   0.94644   0.85863   0.00000  Uiso   1.00
O1431  O     0.24714   0.93220   0.81471   0.00000  Uiso   1.00
H1432  H     0.26143   0.91855   0.84275   0.00000  Uiso   1.00
C1433  C     0.19864   0.71184   0.82656   0.00000  Uiso   1.00
O1434  O     0.23056   0.73212   0.82715   0.00000  Uiso   1.00
O1435  O     0.17673   0.70853   0.86499   0.00000  Uiso   1.00
H1436  H     0.19036   0.72461   0.89118   0.00000  Uiso   1.00
C1437  C     0.13427   0.95462   0.67406   0.00000  Uiso   1.00
O1438  O     0.10287   0.93350   0.67462   0.00000  Uiso   1.00
O1439  O     0.15537   0.95821   0.63506   0.00000  Uiso   1.00
H1440  H     0.14147   0.94217   0.60905   0.00000  Uiso   1.00
O1441  O     0.43988   0.87291   0.74999   0.00000  Uiso   1.00
O1442  O     0.56012   0.79375   0.75000   0.00000  Uiso   1.00
O1443  O     0.56012   0.87291   0.75000   0.00000  Uiso   1.00
O1444  O     0.43988   0.79375   0.74999   0.00000  Uiso   1.00
C1445  C     0.42088   0.83378   0.75155   0.00000  Uiso   1.00
C1446  C     0.57904   0.83280   0.74811   0.00000  Uiso   1.00
O1447  O     0.49999   0.87293   0.68513   0.00000  Uiso   1.00
O1448  O     0.50001   0.79373   0.81487   0.00000  Uiso   1.00
O1449  O     0.50001   0.87293   0.81487   0.00000  Uiso   1.00
O1450  O     0.49999   0.79373   0.68513   0.00000  Uiso   1.00
C1451  C     0.49934   0.83359   0.66463   0.00000  Uiso   1.00
C1452  C     0.50027   0.83296   0.83531   0.00000  Uiso   1.00
Cu1453 Cu    0.50000   0.88022   0.75000   0.00000  Uiso   1.00
Cu1454 Cu    0.50000   0.78645   0.75000   0.00000  Uiso   1.00
C1455  C     0.53677   0.82606   0.90955   0.00000  Uiso   1.00
C1456  C     0.46161   0.84103   0.59085   0.00000  Uiso   1.00
C1457  C     0.50000   0.83184   0.88360   0.00000  Uiso   1.00
C1458  C     0.49852   0.83294   0.61620   0.00000  Uiso   1.00
C1459  C     0.46247   0.83531   0.90354   0.00000  Uiso   1.00
C1460  C     0.53438   0.82028   0.59588   0.00000  Uiso   1.00
C1461  C     0.46162   0.83372   0.95022   0.00000  Uiso   1.00
C1462  C     0.53413   0.81747   0.54937   0.00000  Uiso   1.00
C1463  C     0.49809   0.82551   0.97645   0.00000  Uiso   1.00
C1464  C     0.49752   0.82596   0.52340   0.00000  Uiso   1.00
C1465  C     0.53532   0.81774   0.95584   0.00000  Uiso   1.00
C1466  C     0.46045   0.83487   0.54418   0.00000  Uiso   1.00
C1467  C     0.42486   0.83921   0.97115   0.00000  Uiso   1.00
C1468  C     0.56944   0.80380   0.52854   0.00000  Uiso   1.00
C1469  C     0.42357   0.83739   0.51734   0.00000  Uiso   1.00
C1470  C     0.57007   0.80217   0.98230   0.00000  Uiso   1.00
H1471  H     0.39630   0.84354   0.95186   0.00000  Uiso   1.00
H1472  H     0.59652   0.79245   0.54814   0.00000  Uiso   1.00
C1473  C     0.35608   0.79235   0.76074   0.00000  Uiso   1.00
C1474  C     0.64367   0.87338   0.73683   0.00000  Uiso   1.00
C1475  C     0.64698   0.79098   0.75628   0.00000  Uiso   1.00
C1476  C     0.35270   0.87519   0.74270   0.00000  Uiso   1.00
C1477  C     0.62372   0.83187   0.74580   0.00000  Uiso   1.00
C1478  C     0.37608   0.83428   0.75307   0.00000  Uiso   1.00
C1479  C     0.48268   0.69255   0.71473   0.00000  Uiso   1.00
C1480  C     0.51770   0.97408   0.78505   0.00000  Uiso   1.00
C1481  C     0.51651   0.68988   0.78563   0.00000  Uiso   1.00
C1482  C     0.48350   0.97677   0.71446   0.00000  Uiso   1.00
N1483  N     0.50000   0.95069   0.75000   0.00000  Uiso   1.00
N1484  N     0.50000   0.71598   0.75000   0.00000  Uiso   1.00
N1485  N     0.57506   0.83553   0.89048   0.00000  Uiso   1.00
O1486  O     0.58383   0.81970   0.85195   0.00000  Uiso   1.00
O1487  O     0.60073   0.86229   0.91103   0.00000  Uiso   1.00
N1488  N     0.42655   0.85883   0.61209   0.00000  Uiso   1.00
O1489  O     0.41345   0.83819   0.64710   0.00000  Uiso   1.00
O1490  O     0.40782   0.89631   0.59665   0.00000  Uiso   1.00
N1491  N     0.42560   0.84277   0.87623   0.00000  Uiso   1.00
O1492  O     0.39677   0.81297   0.87676   0.00000  Uiso   1.00
O1493  O     0.41987   0.88074   0.85278   0.00000  Uiso   1.00
N1494  N     0.57129   0.81140   0.62271   0.00000  Uiso   1.00
O1495  O     0.57588   0.77349   0.64640   0.00000  Uiso   1.00
O1496  O     0.60180   0.83874   0.61983   0.00000  Uiso   1.00
N1497  N     0.38442   0.83365   0.53577   0.00000  Uiso   1.00
O1498  O     0.35407   0.86008   0.52056   0.00000  Uiso   1.00
O1499  O     0.37739   0.79891   0.56202   0.00000  Uiso   1.00
N1500  N     0.60453   0.78028   0.96315   0.00000  Uiso   1.00
O1501  O     0.64083   0.78363   0.98199   0.00000  Uiso   1.00
O1502  O     0.59886   0.75071   0.93161   0.00000  Uiso   1.00
N1503  N     0.37845   0.75047   0.77365   0.00000  Uiso   1.00
O1504  O     0.39949   0.74763   0.81152   0.00000  Uiso   1.00
O1505  O     0.37392   0.71353   0.75031   0.00000  Uiso   1.00
N1506  N     0.62115   0.91396   0.72042   0.00000  Uiso   1.00
O1507  O     0.60016   0.91320   0.68253   0.00000  Uiso   1.00
O1508  O     0.62364   0.95245   0.74168   0.00000  Uiso   1.00
N1509  N     0.62820   0.74736   0.76261   0.00000  Uiso   1.00
O1510  O     0.61157   0.72703   0.72830   0.00000  Uiso   1.00
O1511  O     0.63725   0.72303   0.79878   0.00000  Uiso   1.00
N1512  N     0.37134   0.91910   0.73791   0.00000  Uiso   1.00
O1513  O     0.38747   0.93848   0.77304   0.00000  Uiso   1.00
O1514  O     0.36314   0.94428   0.70210   0.00000  Uiso   1.00
C1515  C     0.46067   0.71733   0.67688   0.00000  Uiso   1.00
O1516  O     0.47583   0.71929   0.64066   0.00000  Uiso   1.00
O1517  O     0.42166   0.73570   0.68164   0.00000  Uiso   1.00
H1518  H     0.40874   0.74885   0.65262   0.00000  Uiso   1.00
C1519  C     0.54140   0.94923   0.82163   0.00000  Uiso   1.00
O1520  O     0.52784   0.94644   0.85863   0.00000  Uiso   1.00
O1521  O     0.58047   0.93220   0.81471   0.00000  Uiso   1.00
H1522  H     0.59476   0.91855   0.84275   0.00000  Uiso   1.00
C1523  C     0.53197   0.71184   0.82656   0.00000  Uiso   1.00
O1524  O     0.56390   0.73212   0.82715   0.00000  Uiso   1.00
O1525  O     0.51006   0.70853   0.86499   0.00000  Uiso   1.00
H1526  H     0.52370   0.72461   0.89118   0.00000  Uiso   1.00
C1527  C     0.46761   0.95462   0.67406   0.00000  Uiso   1.00
O1528  O     0.43620   0.93350   0.67462   0.00000  Uiso   1.00
O1529  O     0.48870   0.95821   0.63506   0.00000  Uiso   1.00
H1530  H     0.47480   0.94217   0.60905   0.00000  Uiso   1.00
O1531  O     0.77321   0.87291   0.74999   0.00000  Uiso   1.00
O1532  O     0.89345   0.79375   0.75000   0.00000  Uiso   1.00
O1533  O     0.89345   0.87291   0.75000   0.00000  Uiso   1.00
O1534  O     0.77321   0.79375   0.74999   0.00000  Uiso   1.00
C1535  C     0.75421   0.83378   0.75155   0.00000  Uiso   1.00
C1536  C     0.91238   0.83280   0.74811   0.00000  Uiso   1.00
O1537  O     0.83332   0.87293   0.68513   0.00000  Uiso   1.00
O1538  O     0.83334   0.79373   0.81487   0.00000  Uiso   1.00
O1539  O     0.83334   0.87293   0.81487   0.00000  Uiso   1.00
O1540  O     0.83332   0.79373   0.68513   0.00000  Uiso   1.00
C1541  C     0.83267   0.83359   0.66463   0.00000  Uiso   1.00
C1542  C     0.83361   0.83296   0.83531   0.00000  Uiso   1.00
Cu1543 Cu    0.83333   0.88022   0.75000   0.00000  Uiso   1.00
Cu1544 Cu    0.83333   0.78645   0.75000   0.00000  Uiso   1.00
C1545  C     0.87011   0.82606   0.90955   0.00000  Uiso   1.00
C1546  C     0.79495   0.84103   0.59085   0.00000  Uiso   1.00
C1547  C     0.83333   0.83184   0.88360   0.00000  Uiso   1.00
C1548  C     0.83185   0.83294   0.61620   0.00000  Uiso   1.00
C1549  C     0.79580   0.83531   0.90354   0.00000  Uiso   1.00
C1550  C     0.86771   0.82028   0.59588   0.00000  Uiso   1.00
C1551  C     0.79495   0.83372   0.95022   0.00000  Uiso   1.00
C1552  C     0.86746   0.81747   0.54937   0.00000  Uiso   1.00
C1553  C     0.83143   0.82551   0.97645   0.00000  Uiso   1.00
C1554  C     0.83085   0.82596   0.52340   0.00000  Uiso   1.00
C1555  C     0.86865   0.81774   0.95584   0.00000  Uiso   1.00
C1556  C     0.79378   0.83487   0.54418   0.00000  Uiso   1.00
C1557  C     0.75819   0.83921   0.97115   0.00000  Uiso   1.00
C1558  C     0.90278   0.80380   0.52854   0.00000  Uiso   1.00
C1559  C     0.75690   0.83739   0.51734   0.00000  Uiso   1.00
C1560  C     0.90341   0.80217   0.98230   0.00000  Uiso   1.00
H1561  H     0.72963   0.84354   0.95186   0.00000  Uiso   1.00
H1562  H     0.92986   0.79245   0.54814   0.00000  Uiso   1.00
C1563  C     0.68941   0.79235   0.76074   0.00000  Uiso   1.00
C1564  C     0.97700   0.87338   0.73683   0.00000  Uiso   1.00
C1565  C     0.98032   0.79098   0.75628   0.00000  Uiso   1.00
C1566  C     0.68604   0.87519   0.74270   0.00000  Uiso   1.00
C1567  C     0.95705   0.83187   0.74580   0.00000  Uiso   1.00
C1568  C     0.70941   0.83428   0.75307   0.00000  Uiso   1.00
C1569  C     0.81601   0.69255   0.71473   0.00000  Uiso   1.00
C1570  C     0.85104   0.97408   0.78505   0.00000  Uiso   1.00
C1571  C     0.84984   0.68988   0.78563   0.00000  Uiso   1.00
C1572  C     0.81684   0.97677   0.71446   0.00000  Uiso   1.00
N1573  N     0.83333   0.95069   0.75000   0.00000  Uiso   1.00
N1574  N     0.83333   0.71598   0.75000   0.00000  Uiso   1.00
N1575  N     0.90839   0.83553   0.89048   0.00000  Uiso   1.00
O1576  O     0.91716   0.81970   0.85195   0.00000  Uiso   1.00
O1577  O     0.93406   0.86229   0.91103   0.00000  Uiso   1.00
N1578  N     0.75988   0.85883   0.61209   0.00000  Uiso   1.00
O1579  O     0.74678   0.83819   0.64710   0.00000  Uiso   1.00
O1580  O     0.74115   0.89631   0.59665   0.00000  Uiso   1.00
N1581  N     0.75893   0.84277   0.87623   0.00000  Uiso   1.00
O1582  O     0.73010   0.81297   0.87676   0.00000  Uiso   1.00
O1583  O     0.75320   0.88074   0.85278   0.00000  Uiso   1.00
N1584  N     0.90463   0.81140   0.62271   0.00000  Uiso   1.00
O1585  O     0.90921   0.77349   0.64640   0.00000  Uiso   1.00
O1586  O     0.93514   0.83874   0.61983   0.00000  Uiso   1.00
N1587  N     0.71776   0.83365   0.53577   0.00000  Uiso   1.00
O1588  O     0.68740   0.86008   0.52056   0.00000  Uiso   1.00
O1589  O     0.71072   0.79891   0.56202   0.00000  Uiso   1.00
N1590  N     0.93786   0.78028   0.96315   0.00000  Uiso   1.00
O1591  O     0.97416   0.78363   0.98199   0.00000  Uiso   1.00
O1592  O     0.93220   0.75071   0.93161   0.00000  Uiso   1.00
N1593  N     0.71179   0.75047   0.77365   0.00000  Uiso   1.00
O1594  O     0.73282   0.74763   0.81152   0.00000  Uiso   1.00
O1595  O     0.70725   0.71353   0.75031   0.00000  Uiso   1.00
N1596  N     0.95448   0.91396   0.72042   0.00000  Uiso   1.00
O1597  O     0.93349   0.91320   0.68253   0.00000  Uiso   1.00
O1598  O     0.95697   0.95245   0.74168   0.00000  Uiso   1.00
N1599  N     0.96153   0.74736   0.76261   0.00000  Uiso   1.00
O1600  O     0.94490   0.72703   0.72830   0.00000  Uiso   1.00
O1601  O     0.97058   0.72303   0.79878   0.00000  Uiso   1.00
N1602  N     0.70468   0.91910   0.73791   0.00000  Uiso   1.00
O1603  O     0.72080   0.93848   0.77304   0.00000  Uiso   1.00
O1604  O     0.69647   0.94428   0.70210   0.00000  Uiso   1.00
C1605  C     0.79401   0.71733   0.67688   0.00000  Uiso   1.00
O1606  O     0.80916   0.71929   0.64066   0.00000  Uiso   1.00
O1607  O     0.75499   0.73570   0.68164   0.00000  Uiso   1.00
H1608  H     0.74207   0.74885   0.65262   0.00000  Uiso   1.00
C1609  C     0.87473   0.94923   0.82163   0.00000  Uiso   1.00
O1610  O     0.86118   0.94644   0.85863   0.00000  Uiso   1.00
O1611  O     0.91380   0.93220   0.81471   0.00000  Uiso   1.00
H1612  H     0.92810   0.91855   0.84275   0.00000  Uiso   1.00
C1613  C     0.86530   0.71184   0.82656   0.00000  Uiso   1.00
O1614  O     0.89723   0.73212   0.82715   0.00000  Uiso   1.00
O1615  O     0.84339   0.70853   0.86499   0.00000  Uiso   1.00
H1616  H     0.85703   0.72461   0.89118   0.00000  Uiso   1.00
C1617  C     0.80094   0.95462   0.67406   0.00000  Uiso   1.00
O1618  O     0.76953   0.93350   0.67462   0.00000  Uiso   1.00
O1619  O     0.82204   0.95821   0.63506   0.00000  Uiso   1.00
H1620  H     0.80814   0.94217   0.60905   0.00000  Uiso   1.00
loop_
_geom_bond_atom_site_label_1
_geom_bond_atom_site_label_2
_geom_bond_distance
_geom_bond_site_symmetry_2
_ccdc_geom_bond_type
O1     C5      1.312   .     A
O1     Cu13    1.995   .     S
O2     C6      1.309   .     A
O2     Cu14    1.995   .     S
O3     C6      1.311   .     A
O3     Cu13    1.985   .     S
O4     C5      1.309   .     A
O4     Cu14    1.985   .     S
C5     C38     1.477   .     S
C6     C37     1.475   .     S
O7     C11     1.309   .     A
O7     Cu13    1.967   .     S
O8     C12     1.306   .     A
O8     Cu14    1.967   .     S
O9     Cu13    1.958   .     S
O9     C12     1.302   .     A
O10    Cu14    1.958   .     S
O10    C11     1.299   .     A
C11    C18     1.456   .     S
C12    C17     1.452   .     S
Cu13   N43     2.046   .     S
Cu13   Cu14    2.723   .     S
Cu14   N44     2.046   .     S
C15    C25     1.412   .     A
C15    N45     1.443   .     S
C15    C17     1.409   .     A
C16    N48     1.439   .     S
C16    C26     1.417   .     A
C16    C18     1.411   .     A
C17    C19     1.405   .     A
C18    C20     1.403   .     A
C19    C21     1.406   .     A
C19    N51     1.437   .     S
C20    N54     1.436   .     S
C20    C22     1.402   .     A
C21    C27     1.401   .     A
C21    C23     1.412   .     A
C22    C28     1.403   .     A
C22    C24     1.414   .     A
C23    C25     1.418   .     A
C23    C834    1.414   .     S
C24    C26     1.421   .     A
C24    C833    1.414   1_554 S
C25    C30     1.417   .     A
C26    C29     1.420   .     A
C27    H31     1.081   .     S
C27    C839    1.392   .     S
C28    H32     1.082   .     S
C28    C840    1.394   1_554 S
C29    N57     1.436   .     S
C29    C837    1.392   1_554 S
C30    N60     1.440   .     S
C30    C838    1.394   .     S
C33    N63     1.441   .     S
C33    C38     1.419   .     A
C33    C215    1.397   1_455 S
C34    C37     1.415   .     A
C34    N66     1.440   .     S
C34    C126    1.398   .     S
C35    C37     1.417   .     A
C35    N69     1.437   .     S
C35    C123    1.397   .     S
C36    C38     1.419   .     A
C36    N72     1.437   .     S
C36    C214    1.398   1_455 S
C39    C75     1.480   .     S
C39    N44     1.377   .     A
C39    C582    1.426   1_545 S
C40    N43     1.376   .     A
C40    C79     1.478   .     S
C40    C311    1.427   .     S
C41    C83     1.470   .     S
C41    N44     1.379   .     A
C41    C580    1.427   1_545 S
C42    N43     1.376   .     A
C42    C87     1.464   .     S
C42    C309    1.426   .     S
N45    O47     1.302   .     A
N45    O46     1.300   .     A
N48    O50     1.302   .     A
N48    O49     1.300   .     A
N51    O52     1.300   .     A
N51    O53     1.301   .     A
N54    O56     1.301   .     A
N54    O55     1.300   .     A
N57    O58     1.302   .     A
N57    O59     1.301   .     A
N60    O62     1.301   .     A
N60    O61     1.301   .     A
N63    O65     1.301   .     A
N63    O64     1.301   .     A
N66    O68     1.301   .     A
N66    O67     1.301   .     A
N69    O71     1.302   .     A
N69    O70     1.301   .     A
N72    O73     1.301   .     A
N72    O74     1.302   .     A
C75    O76     1.224   .     D
C75    O77     1.394   .     S
O77    H78     1.013   .     S
C79    O81     1.394   .     S
C79    O80     1.223   .     D
O81    H82     1.012   .     S
C83    O84     1.217   .     D
C83    O85     1.398   .     S
O85    H86     1.013   .     S
C87    O88     1.216   .     D
C87    O89     1.399   .     S
O89    H90     1.012   .     S
O91    C95     1.312   .     A
O91    Cu103   1.995   .     S
O92    C96     1.309   .     A
O92    Cu104   1.995   .     S
O93    C96     1.311   .     A
O93    Cu103   1.985   .     S
O94    C95     1.309   .     A
O94    Cu104   1.985   .     S
C95    C128    1.477   .     S
C96    C127    1.475   .     S
O97    C101    1.309   .     A
O97    Cu103   1.967   .     S
O98    C102    1.306   .     A
O98    Cu104   1.967   .     S
O99    Cu103   1.958   .     S
O99    C102    1.302   .     A
O100   Cu104   1.958   .     S
O100   C101    1.299   .     A
C101   C108    1.456   .     S
C102   C107    1.452   .     S
Cu103  N133    2.046   .     S
Cu103  Cu104   2.723   .     S
Cu104  N134    2.046   .     S
C105   C115    1.412   .     A
C105   N135    1.443   .     S
C105   C107    1.409   .     A
C106   N138    1.439   .     S
C106   C116    1.417   .     A
C106   C108    1.411   .     A
C107   C109    1.405   .     A
C108   C110    1.403   .     A
C109   C111    1.406   .     A
C109   N141    1.437   .     S
C110   N144    1.436   .     S
C110   C112    1.402   .     A
C111   C117    1.401   .     A
C111   C113    1.412   .     A
C112   C118    1.403   .     A
C112   C114    1.414   .     A
C113   C115    1.418   .     A
C113   C924    1.414   .     S
C114   C116    1.421   .     A
C114   C923    1.414   1_554 S
C115   C120    1.417   .     A
C116   C119    1.420   .     A
C117   H121    1.081   .     S
C117   C929    1.392   .     S
C118   H122    1.082   .     S
C118   C930    1.394   1_554 S
C119   N147    1.436   .     S
C119   C927    1.392   1_554 S
C120   N150    1.440   .     S
C120   C928    1.394   .     S
C123   N153    1.441   .     S
C123   C128    1.419   .     A
C124   C127    1.415   .     A
C124   N156    1.440   .     S
C124   C216    1.398   .     S
C125   C127    1.417   .     A
C125   N159    1.437   .     S
C125   C213    1.397   .     S
C126   C128    1.419   .     A
C126   N162    1.437   .     S
C129   C165    1.480   .     S
C129   N134    1.377   .     A
C129   C672    1.426   1_545 S
C130   N133    1.376   .     A
C130   C169    1.478   .     S
C130   C401    1.427   .     S
C131   C173    1.470   .     S
C131   N134    1.379   .     A
C131   C670    1.427   1_545 S
C132   N133    1.376   .     A
C132   C177    1.464   .     S
C132   C399    1.426   .     S
N135   O137    1.302   .     A
N135   O136    1.300   .     A
N138   O140    1.302   .     A
N138   O139    1.300   .     A
N141   O142    1.300   .     A
N141   O143    1.301   .     A
N144   O146    1.301   .     A
N144   O145    1.300   .     A
N147   O148    1.302   .     A
N147   O149    1.301   .     A
N150   O152    1.301   .     A
N150   O151    1.301   .     A
N153   O155    1.301   .     A
N153   O154    1.301   .     A
N156   O158    1.301   .     A
N156   O157    1.301   .     A
N159   O161    1.302   .     A
N159   O160    1.301   .     A
N162   O163    1.301   .     A
N162   O164    1.302   .     A
C165   O166    1.224   .     D
C165   O167    1.394   .     S
O167   H168    1.013   .     S
C169   O171    1.394   .     S
C169   O170    1.223   .     D
O171   H172    1.012   .     S
C173   O174    1.217   .     D
C173   O175    1.398   .     S
O175   H176    1.013   .     S
C177   O178    1.216   .     D
C177   O179    1.399   .     S
O179   H180    1.012   .     S
O181   C185    1.312   .     A
O181   Cu193   1.995   .     S
O182   C186    1.309   .     A
O182   Cu194   1.995   .     S
O183   C186    1.311   .     A
O183   Cu193   1.985   .     S
O184   C185    1.309   .     A
O184   Cu194   1.985   .     S
C185   C218    1.477   .     S
C186   C217    1.475   .     S
O187   C191    1.309   .     A
O187   Cu193   1.967   .     S
O188   C192    1.306   .     A
O188   Cu194   1.967   .     S
O189   Cu193   1.958   .     S
O189   C192    1.302   .     A
O190   Cu194   1.958   .     S
O190   C191    1.299   .     A
C191   C198    1.456   .     S
C192   C197    1.452   .     S
Cu193  N223    2.046   .     S
Cu193  Cu194   2.723   .     S
Cu194  N224    2.046   .     S
C195   C205    1.412   .     A
C195   N225    1.443   .     S
C195   C197    1.409   .     A
C196   N228    1.439   .     S
C196   C206    1.417   .     A
C196   C198    1.411   .     A
C197   C199    1.405   .     A
C198   C200    1.403   .     A
C199   C201    1.406   .     A
C199   N231    1.437   .     S
C200   N234    1.436   .     S
C200   C202    1.402   .     A
C201   C207    1.401   .     A
C201   C203    1.412   .     A
C202   C208    1.403   .     A
C202   C204    1.414   .     A
C203   C205    1.418   .     A
C203   C1014   1.414   .     S
C204   C206    1.421   .     A
C204   C1013   1.414   1_554 S
C205   C210    1.417   .     A
C206   C209    1.420   .     A
C207   H211    1.081   .     S
C207   C1019   1.392   .     S
C208   H212    1.082   .     S
C208   C1020   1.394   1_554 S
C209   N237    1.436   .     S
C209   C1017   1.392   1_554 S
C210   N240    1.440   .     S
C210   C1018   1.394   .     S
C213   N243    1.441   .     S
C213   C218    1.419   .     A
C214   C217    1.415   .     A
C214   N246    1.440   .     S
C214   C36     1.398   1_655 S
C215   C217    1.417   .     A
C215   N249    1.437   .     S
C215   C33     1.397   1_655 S
C216   C218    1.419   .     A
C216   N252    1.437   .     S
C219   C255    1.480   .     S
C219   N224    1.377   .     A
C219   C762    1.426   1_545 S
C220   N223    1.376   .     A
C220   C259    1.478   .     S
C220   C491    1.427   .     S
C221   C263    1.470   .     S
C221   N224    1.379   .     A
C221   C760    1.427   1_545 S
C222   N223    1.376   .     A
C222   C267    1.464   .     S
C222   C489    1.426   .     S
N225   O227    1.302   .     A
N225   O226    1.300   .     A
N228   O230    1.302   .     A
N228   O229    1.300   .     A
N231   O232    1.300   .     A
N231   O233    1.301   .     A
N234   O236    1.301   .     A
N234   O235    1.300   .     A
N237   O238    1.302   .     A
N237   O239    1.301   .     A
N240   O242    1.301   .     A
N240   O241    1.301   .     A
N243   O245    1.301   .     A
N243   O244    1.301   .     A
N246   O248    1.301   .     A
N246   O247    1.301   .     A
N249   O251    1.302   .     A
N249   O250    1.301   .     A
N252   O253    1.301   .     A
N252   O254    1.302   .     A
C255   O256    1.224   .     D
C255   O257    1.394   .     S
O257   H258    1.013   .     S
C259   O261    1.394   .     S
C259   O260    1.223   .     D
O261   H262    1.012   .     S
C263   O264    1.217   .     D
C263   O265    1.398   .     S
O265   H266    1.013   .     S
C267   O268    1.216   .     D
C267   O269    1.399   .     S
O269   H270    1.012   .     S
O271   C275    1.312   .     A
O271   Cu283   1.995   .     S
O272   C276    1.309   .     A
O272   Cu284   1.995   .     S
O273   C276    1.311   .     A
O273   Cu283   1.985   .     S
O274   C275    1.309   .     A
O274   Cu284   1.985   .     S
C275   C308    1.477   .     S
C276   C307    1.475   .     S
O277   C281    1.309   .     A
O277   Cu283   1.967   .     S
O278   C282    1.306   .     A
O278   Cu284   1.967   .     S
O279   Cu283   1.958   .     S
O279   C282    1.302   .     A
O280   Cu284   1.958   .     S
O280   C281    1.299   .     A
C281   C288    1.456   .     S
C282   C287    1.452   .     S
Cu283  N313    2.046   .     S
Cu283  Cu284   2.723   .     S
Cu284  N314    2.046   .     S
C285   C295    1.412   .     A
C285   N315    1.443   .     S
C285   C287    1.409   .     A
C286   N318    1.439   .     S
C286   C296    1.417   .     A
C286   C288    1.411   .     A
C287   C289    1.405   .     A
C288   C290    1.403   .     A
C289   C291    1.406   .     A
C289   N321    1.437   .     S
C290   N324    1.436   .     S
C290   C292    1.402   .     A
C291   C297    1.401   .     A
C291   C293    1.412   .     A
C292   C298    1.403   .     A
C292   C294    1.414   .     A
C293   C295    1.418   .     A
C293   C1104   1.414   .     S
C294   C296    1.421   .     A
C294   C1103   1.414   1_554 S
C295   C300    1.417   .     A
C296   C299    1.420   .     A
C297   H301    1.081   .     S
C297   C1109   1.392   .     S
C298   H302    1.082   .     S
C298   C1110   1.394   1_554 S
C299   N327    1.436   .     S
C299   C1107   1.392   1_554 S
C300   N330    1.440   .     S
C300   C1108   1.394   .     S
C303   N333    1.441   .     S
C303   C308    1.419   .     A
C303   C485    1.397   1_455 S
C304   C307    1.415   .     A
C304   N336    1.440   .     S
C304   C396    1.398   .     S
C305   C307    1.417   .     A
C305   N339    1.437   .     S
C305   C393    1.397   .     S
C306   C308    1.419   .     A
C306   N342    1.437   .     S
C306   C484    1.398   1_455 S
C309   C345    1.480   .     S
C309   N314    1.377   .     A
C310   N313    1.376   .     A
C310   C349    1.478   .     S
C310   C581    1.427   .     S
C311   C353    1.470   .     S
C311   N314    1.379   .     A
C312   N313    1.376   .     A
C312   C357    1.464   .     S
C312   C579    1.426   .     S
N315   O317    1.302   .     A
N315   O316    1.300   .     A
N318   O320    1.302   .     A
N318   O319    1.300   .     A
N321   O322    1.300   .     A
N321   O323    1.301   .     A
N324   O326    1.301   .     A
N324   O325    1.300   .     A
N327   O328    1.302   .     A
N327   O329    1.301   .     A
N330   O332    1.301   .     A
N330   O331    1.301   .     A
N333   O335    1.301   .     A
N333   O334    1.301   .     A
N336   O338    1.301   .     A
N336   O337    1.301   .     A
N339   O341    1.302   .     A
N339   O340    1.301   .     A
N342   O343    1.301   .     A
N342   O344    1.302   .     A
C345   O346    1.224   .     D
C345   O347    1.394   .     S
O347   H348    1.013   .     S
C349   O351    1.394   .     S
C349   O350    1.223   .     D
O351   H352    1.012   .     S
C353   O354    1.217   .     D
C353   O355    1.398   .     S
O355   H356    1.013   .     S
C357   O358    1.216   .     D
C357   O359    1.399   .     S
O359   H360    1.012   .     S
O361   C365    1.312   .     A
O361   Cu373   1.995   .     S
O362   C366    1.309   .     A
O362   Cu374   1.995   .     S
O363   C366    1.311   .     A
O363   Cu373   1.985   .     S
O364   C365    1.309   .     A
O364   Cu374   1.985   .     S
C365   C398    1.477   .     S
C366   C397    1.475   .     S
O367   C371    1.309   .     A
O367   Cu373   1.967   .     S
O368   C372    1.306   .     A
O368   Cu374   1.967   .     S
O369   Cu373   1.958   .     S
O369   C372    1.302   .     A
O370   Cu374   1.958   .     S
O370   C371    1.299   .     A
C371   C378    1.456   .     S
C372   C377    1.452   .     S
Cu373  N403    2.046   .     S
Cu373  Cu374   2.723   .     S
Cu374  N404    2.046   .     S
C375   C385    1.412   .     A
C375   N405    1.443   .     S
C375   C377    1.409   .     A
C376   N408    1.439   .     S
C376   C386    1.417   .     A
C376   C378    1.411   .     A
C377   C379    1.405   .     A
C378   C380    1.403   .     A
C379   C381    1.406   .     A
C379   N411    1.437   .     S
C380   N414    1.436   .     S
C380   C382    1.402   .     A
C381   C387    1.401   .     A
C381   C383    1.412   .     A
C382   C388    1.403   .     A
C382   C384    1.414   .     A
C383   C385    1.418   .     A
C383   C1194   1.414   .     S
C384   C386    1.421   .     A
C384   C1193   1.414   1_554 S
C385   C390    1.417   .     A
C386   C389    1.420   .     A
C387   H391    1.081   .     S
C387   C1199   1.392   .     S
C388   H392    1.082   .     S
C388   C1200   1.394   1_554 S
C389   N417    1.436   .     S
C389   C1197   1.392   1_554 S
C390   N420    1.440   .     S
C390   C1198   1.394   .     S
C393   N423    1.441   .     S
C393   C398    1.419   .     A
C394   C397    1.415   .     A
C394   N426    1.440   .     S
C394   C486    1.398   .     S
C395   C397    1.417   .     A
C395   N429    1.437   .     S
C395   C483    1.397   .     S
C396   C398    1.419   .     A
C396   N432    1.437   .     S
C399   C435    1.480   .     S
C399   N404    1.377   .     A
C400   N403    1.376   .     A
C400   C439    1.478   .     S
C400   C671    1.427   .     S
C401   C443    1.470   .     S
C401   N404    1.379   .     A
C402   N403    1.376   .     A
C402   C447    1.464   .     S
C402   C669    1.426   .     S
N405   O407    1.302   .     A
N405   O406    1.300   .     A
N408   O410    1.302   .     A
N408   O409    1.300   .     A
N411   O412    1.300   .     A
N411   O413    1.301   .     A
N414   O416    1.301   .     A
N414   O415    1.300   .     A
N417   O418    1.302   .     A
N417   O419    1.301   .     A
N420   O422    1.301   .     A
N420   O421    1.301   .     A
N423   O425    1.301   .     A
N423   O424    1.301   .     A
N426   O428    1.301   .     A
N426   O427    1.301   .     A
N429   O431    1.302   .     A
N429   O430    1.301   .     A
N432   O433    1.301   .     A
N432   O434    1.302   .     A
C435   O436    1.224   .     D
C435   O437    1.394   .     S
O437   H438    1.013   .     S
C439   O441    1.394   .     S
C439   O440    1.223   .     D
O441   H442    1.012   .     S
C443   O444    1.217   .     D
C443   O445    1.398   .     S
O445   H446    1.013   .     S
C447   O448    1.216   .     D
C447   O449    1.399   .     S
O449   H450    1.012   .     S
O451   C455    1.312   .     A
O451   Cu463   1.995   .     S
O452   C456    1.309   .     A
O452   Cu464   1.995   .     S
O453   C456    1.311   .     A
O453   Cu463   1.985   .     S
O454   C455    1.309   .     A
O454   Cu464   1.985   .     S
C455   C488    1.477   .     S
C456   C487    1.475   .     S
O457   C461    1.309   .     A
O457   Cu463   1.967   .     S
O458   C462    1.306   .     A
O458   Cu464   1.967   .     S
O459   Cu463   1.958   .     S
O459   C462    1.302   .     A
O460   Cu464   1.958   .     S
O460   C461    1.299   .     A
C461   C468    1.456   .     S
C462   C467    1.452   .     S
Cu463  N493    2.046   .     S
Cu463  Cu464   2.723   .     S
Cu464  N494    2.046   .     S
C465   C475    1.412   .     A
C465   N495    1.443   .     S
C465   C467    1.409   .     A
C466   N498    1.439   .     S
C466   C476    1.417   .     A
C466   C468    1.411   .     A
C467   C469    1.405   .     A
C468   C470    1.403   .     A
C469   C471    1.406   .     A
C469   N501    1.437   .     S
C470   N504    1.436   .     S
C470   C472    1.402   .     A
C471   C477    1.401   .     A
C471   C473    1.412   .     A
C472   C478    1.403   .     A
C472   C474    1.414   .     A
C473   C475    1.418   .     A
C473   C1284   1.414   .     S
C474   C476    1.421   .     A
C474   C1283   1.414   1_554 S
C475   C480    1.417   .     A
C476   C479    1.420   .     A
C477   H481    1.081   .     S
C477   C1289   1.392   .     S
C478   H482    1.082   .     S
C478   C1290   1.394   1_554 S
C479   N507    1.436   .     S
C479   C1287   1.392   1_554 S
C480   N510    1.440   .     S
C480   C1288   1.394   .     S
C483   N513    1.441   .     S
C483   C488    1.419   .     A
C484   C487    1.415   .     A
C484   N516    1.440   .     S
C484   C306    1.398   1_655 S
C485   C487    1.417   .     A
C485   N519    1.437   .     S
C485   C303    1.397   1_655 S
C486   C488    1.419   .     A
C486   N522    1.437   .     S
C489   C525    1.480   .     S
C489   N494    1.377   .     A
C490   N493    1.376   .     A
C490   C529    1.478   .     S
C490   C761    1.427   .     S
C491   C533    1.470   .     S
C491   N494    1.379   .     A
C492   N493    1.376   .     A
C492   C537    1.464   .     S
C492   C759    1.426   .     S
N495   O497    1.302   .     A
N495   O496    1.300   .     A
N498   O500    1.302   .     A
N498   O499    1.300   .     A
N501   O502    1.300   .     A
N501   O503    1.301   .     A
N504   O506    1.301   .     A
N504   O505    1.300   .     A
N507   O508    1.302   .     A
N507   O509    1.301   .     A
N510   O512    1.301   .     A
N510   O511    1.301   .     A
N513   O515    1.301   .     A
N513   O514    1.301   .     A
N516   O518    1.301   .     A
N516   O517    1.301   .     A
N519   O521    1.302   .     A
N519   O520    1.301   .     A
N522   O523    1.301   .     A
N522   O524    1.302   .     A
C525   O526    1.224   .     D
C525   O527    1.394   .     S
O527   H528    1.013   .     S
C529   O531    1.394   .     S
C529   O530    1.223   .     D
O531   H532    1.012   .     S
C533   O534    1.217   .     D
C533   O535    1.398   .     S
O535   H536    1.013   .     S
C537   O538    1.216   .     D
C537   O539    1.399   .     S
O539   H540    1.012   .     S
O541   C545    1.312   .     A
O541   Cu553   1.995   .     S
O542   C546    1.309   .     A
O542   Cu554   1.995   .     S
O543   C546    1.311   .     A
O543   Cu553   1.985   .     S
O544   C545    1.309   .     A
O544   Cu554   1.985   .     S
C545   C578    1.477   .     S
C546   C577    1.475   .     S
O547   C551    1.309   .     A
O547   Cu553   1.967   .     S
O548   C552    1.306   .     A
O548   Cu554   1.967   .     S
O549   Cu553   1.958   .     S
O549   C552    1.302   .     A
O550   Cu554   1.958   .     S
O550   C551    1.299   .     A
C551   C558    1.456   .     S
C552   C557    1.452   .     S
Cu553  N583    2.046   .     S
Cu553  Cu554   2.723   .     S
Cu554  N584    2.046   .     S
C555   C565    1.412   .     A
C555   N585    1.443   .     S
C555   C557    1.409   .     A
C556   N588    1.439   .     S
C556   C566    1.417   .     A
C556   C558    1.411   .     A
C557   C559    1.405   .     A
C558   C560    1.403   .     A
C559   C561    1.406   .     A
C559   N591    1.437   .     S
C560   N594    1.436   .     S
C560   C562    1.402   .     A
C561   C567    1.401   .     A
C561   C563    1.412   .     A
C562   C568    1.403   .     A
C562   C564    1.414   .     A
C563   C565    1.418   .     A
C563   C1374   1.414   .     S
C564   C566    1.421   .     A
C564   C1373   1.414   1_554 S
C565   C570    1.417   .     A
C566   C569    1.420   .     A
C567   H571    1.081   .     S
C567   C1379   1.392   .     S
C568   H572    1.082   .     S
C568   C1380   1.394   1_554 S
C569   N597    1.436   .     S
C569   C1377   1.392   1_554 S
C570   N600    1.440   .     S
C570   C1378   1.394   .     S
C573   N603    1.441   .     S
C573   C578    1.419   .     A
C573   C755    1.397   1_455 S
C574   C577    1.415   .     A
C574   N606    1.440   .     S
C574   C666    1.398   .     S
C575   C577    1.417   .     A
C575   N609    1.437   .     S
C575   C663    1.397   .     S
C576   C578    1.419   .     A
C576   N612    1.437   .     S
C576   C754    1.398   1_455 S
C579   C615    1.480   .     S
C579   N584    1.377   .     A
C580   N583    1.376   .     A
C580   C619    1.478   .     S
C580   C41     1.427   1_565 S
C581   C623    1.470   .     S
C581   N584    1.379   .     A
C582   N583    1.376   .     A
C582   C627    1.464   .     S
C582   C39     1.426   1_565 S
N585   O587    1.302   .     A
N585   O586    1.300   .     A
N588   O590    1.302   .     A
N588   O589    1.300   .     A
N591   O592    1.300   .     A
N591   O593    1.301   .     A
N594   O596    1.301   .     A
N594   O595    1.300   .     A
N597   O598    1.302   .     A
N597   O599    1.301   .     A
N600   O602    1.301   .     A
N600   O601    1.301   .     A
N603   O605    1.301   .     A
N603   O604    1.301   .     A
N606   O608    1.301   .     A
N606   O607    1.301   .     A
N609   O611    1.302   .     A
N609   O610    1.301   .     A
N612   O613    1.301   .     A
N612   O614    1.302   .     A
C615   O616    1.224   .     D
C615   O617    1.394   .     S
O617   H618    1.013   .     S
C619   O621    1.394   .     S
C619   O620    1.223   .     D
O621   H622    1.012   .     S
C623   O624    1.217   .     D
C623   O625    1.398   .     S
O625   H626    1.013   .     S
C627   O628    1.216   .     D
C627   O629    1.399   .     S
O629   H630    1.012   .     S
O631   C635    1.312   .     A
O631   Cu643   1.995   .     S
O632   C636    1.309   .     A
O632   Cu644   1.995   .     S
O633   C636    1.311   .     A
O633   Cu643   1.985   .     S
O634   C635    1.309   .     A
O634   Cu644   1.985   .     S
C635   C668    1.477   .     S
C636   C667    1.475   .     S
O637   C641    1.309   .     A
O637   Cu643   1.967   .     S
O638   C642    1.306   .     A
O638   Cu644   1.967   .     S
O639   Cu643   1.958   .     S
O639   C642    1.302   .     A
O640   Cu644   1.958   .     S
O640   C641    1.299   .     A
C641   C648    1.456   .     S
C642   C647    1.452   .     S
Cu643  N673    2.046   .     S
Cu643  Cu644   2.723   .     S
Cu644  N674    2.046   .     S
C645   C655    1.412   .     A
C645   N675    1.443   .     S
C645   C647    1.409   .     A
C646   N678    1.439   .     S
C646   C656    1.417   .     A
C646   C648    1.411   .     A
C647   C649    1.405   .     A
C648   C650    1.403   .     A
C649   C651    1.406   .     A
C649   N681    1.437   .     S
C650   N684    1.436   .     S
C650   C652    1.402   .     A
C651   C657    1.401   .     A
C651   C653    1.412   .     A
C652   C658    1.403   .     A
C652   C654    1.414   .     A
C653   C655    1.418   .     A
C653   C1464   1.414   .     S
C654   C656    1.421   .     A
C654   C1463   1.414   1_554 S
C655   C660    1.417   .     A
C656   C659    1.420   .     A
C657   H661    1.081   .     S
C657   C1469   1.392   .     S
C658   H662    1.082   .     S
C658   C1470   1.394   1_554 S
C659   N687    1.436   .     S
C659   C1467   1.392   1_554 S
C660   N690    1.440   .     S
C660   C1468   1.394   .     S
C663   N693    1.441   .     S
C663   C668    1.419   .     A
C664   C667    1.415   .     A
C664   N696    1.440   .     S
C664   C756    1.398   .     S
C665   C667    1.417   .     A
C665   N699    1.437   .     S
C665   C753    1.397   .     S
C666   C668    1.419   .     A
C666   N702    1.437   .     S
C669   C705    1.480   .     S
C669   N674    1.377   .     A
C670   N673    1.376   .     A
C670   C709    1.478   .     S
C670   C131    1.427   1_565 S
C671   C713    1.470   .     S
C671   N674    1.379   .     A
C672   N673    1.376   .     A
C672   C717    1.464   .     S
C672   C129    1.426   1_565 S
N675   O677    1.302   .     A
N675   O676    1.300   .     A
N678   O680    1.302   .     A
N678   O679    1.300   .     A
N681   O682    1.300   .     A
N681   O683    1.301   .     A
N684   O686    1.301   .     A
N684   O685    1.300   .     A
N687   O688    1.302   .     A
N687   O689    1.301   .     A
N690   O692    1.301   .     A
N690   O691    1.301   .     A
N693   O695    1.301   .     A
N693   O694    1.301   .     A
N696   O698    1.301   .     A
N696   O697    1.301   .     A
N699   O701    1.302   .     A
N699   O700    1.301   .     A
N702   O703    1.301   .     A
N702   O704    1.302   .     A
C705   O706    1.224   .     D
C705   O707    1.394   .     S
O707   H708    1.013   .     S
C709   O711    1.394   .     S
C709   O710    1.223   .     D
O711   H712    1.012   .     S
C713   O714    1.217   .     D
C713   O715    1.398   .     S
O715   H716    1.013   .     S
C717   O718    1.216   .     D
C717   O719    1.399   .     S
O719   H720    1.012   .     S
O721   C725    1.312   .     A
O721   Cu733   1.995   .     S
O722   C726    1.309   .     A
O722   Cu734   1.995   .     S
O723   C726    1.311   .     A
O723   Cu733   1.985   .     S
O724   C725    1.309   .     A
O724   Cu734   1.985   .     S
C725   C758    1.477   .     S
C726   C757    1.475   .     S
O727   C731    1.309   .     A
O727   Cu733   1.967   .     S
O728   C732    1.306   .     A
O728   Cu734   1.967   .     S
O729   Cu733   1.958   .     S
O729   C732    1.302   .     A
O730   Cu734   1.958   .     S
O730   C731    1.299   .     A
C731   C738    1.456   .     S
C732   C737    1.452   .     S
Cu733  N763    2.046   .     S
Cu733  Cu734   2.723   .     S
Cu734  N764    2.046   .     S
C735   C745    1.412   .     A
C735   N765    1.443   .     S
C735   C737    1.409   .     A
C736   N768    1.439   .     S
C736   C746    1.417   .     A
C736   C738    1.411   .     A
C737   C739    1.405   .     A
C738   C740    1.403   .     A
C739   C741    1.406   .     A
C739   N771    1.437   .     S
C740   N774    1.436   .     S
C740   C742    1.402   .     A
C741   C747    1.401   .     A
C741   C743    1.412   .     A
C742   C748    1.403   .     A
C742   C744    1.414   .     A
C743   C745    1.418   .     A
C743   C1554   1.414   .     S
C744   C746    1.421   .     A
C744   C1553   1.414   1_554 S
C745   C750    1.417   .     A
C746   C749    1.420   .     A
C747   H751    1.081   .     S
C747   C1559   1.392   .     S
C748   H752    1.082   .     S
C748   C1560   1.394   1_554 S
C749   N777    1.436   .     S
C749   C1557   1.392   1_554 S
C750   N780    1.440   .     S
C750   C1558   1.394   .     S
C753   N783    1.441   .     S
C753   C758    1.419   .     A
C754   C757    1.415   .     A
C754   N786    1.440   .     S
C754   C576    1.398   1_655 S
C755   C757    1.417   .     A
C755   N789    1.437   .     S
C755   C573    1.397   1_655 S
C756   C758    1.419   .     A
C756   N792    1.437   .     S
C759   C795    1.480   .     S
C759   N764    1.377   .     A
C760   N763    1.376   .     A
C760   C799    1.478   .     S
C760   C221    1.427   1_565 S
C761   C803    1.470   .     S
C761   N764    1.379   .     A
C762   N763    1.376   .     A
C762   C807    1.464   .     S
C762   C219    1.426   1_565 S
N765   O767    1.302   .     A
N765   O766    1.300   .     A
N768   O770    1.302   .     A
N768   O769    1.300   .     A
N771   O772    1.300   .     A
N771   O773    1.301   .     A
N774   O776    1.301   .     A
N774   O775    1.300   .     A
N777   O778    1.302   .     A
N777   O779    1.301   .     A
N780   O782    1.301   .     A
N780   O781    1.301   .     A
N783   O785    1.301   .     A
N783   O784    1.301   .     A
N786   O788    1.301   .     A
N786   O787    1.301   .     A
N789   O791    1.302   .     A
N789   O790    1.301   .     A
N792   O793    1.301   .     A
N792   O794    1.302   .     A
C795   O796    1.224   .     D
C795   O797    1.394   .     S
O797   H798    1.013   .     S
C799   O801    1.394   .     S
C799   O800    1.223   .     D
O801   H802    1.012   .     S
C803   O804    1.217   .     D
C803   O805    1.398   .     S
O805   H806    1.013   .     S
C807   O808    1.216   .     D
C807   O809    1.399   .     S
O809   H810    1.012   .     S
O811   C815    1.312   .     A
O811   Cu823   1.995   .     S
O812   C816    1.309   .     A
O812   Cu824   1.995   .     S
O813   C816    1.311   .     A
O813   Cu823   1.985   .     S
O814   C815    1.309   .     A
O814   Cu824   1.985   .     S
C815   C848    1.477   .     S
C816   C847    1.475   .     S
O817   C821    1.309   .     A
O817   Cu823   1.967   .     S
O818   C822    1.306   .     A
O818   Cu824   1.967   .     S
O819   Cu823   1.958   .     S
O819   C822    1.302   .     A
O820   Cu824   1.958   .     S
O820   C821    1.299   .     A
C821   C828    1.456   .     S
C822   C827    1.452   .     S
Cu823  N853    2.046   .     S
Cu823  Cu824   2.723   .     S
Cu824  N854    2.046   .     S
C825   C835    1.412   .     A
C825   N855    1.443   .     S
C825   C827    1.409   .     A
C826   N858    1.439   .     S
C826   C836    1.417   .     A
C826   C828    1.411   .     A
C827   C829    1.405   .     A
C828   C830    1.403   .     A
C829   C831    1.406   .     A
C829   N861    1.437   .     S
C830   N864    1.436   .     S
C830   C832    1.402   .     A
C831   C837    1.401   .     A
C831   C833    1.412   .     A
C832   C838    1.403   .     A
C832   C834    1.414   .     A
C833   C835    1.418   .     A
C833   C24     1.414   1_556 S
C834   C836    1.421   .     A
C835   C840    1.417   .     A
C836   C839    1.420   .     A
C837   H841    1.081   .     S
C837   C29     1.392   1_556 S
C838   H842    1.082   .     S
C839   N867    1.436   .     S
C840   N870    1.440   .     S
C840   C28     1.394   1_556 S
C843   N873    1.441   .     S
C843   C848    1.419   .     A
C843   C1025   1.397   1_455 S
C844   C847    1.415   .     A
C844   N876    1.440   .     S
C844   C936    1.398   .     S
C845   C847    1.417   .     A
C845   N879    1.437   .     S
C845   C933    1.397   .     S
C846   C848    1.419   .     A
C846   N882    1.437   .     S
C846   C1024   1.398   1_455 S
C849   C885    1.480   .     S
C849   N854    1.377   .     A
C849   C1392   1.426   1_545 S
C850   N853    1.376   .     A
C850   C889    1.478   .     S
C850   C1121   1.427   .     S
C851   C893    1.470   .     S
C851   N854    1.379   .     A
C851   C1390   1.427   1_545 S
C852   N853    1.376   .     A
C852   C897    1.464   .     S
C852   C1119   1.426   .     S
N855   O857    1.302   .     A
N855   O856    1.300   .     A
N858   O860    1.302   .     A
N858   O859    1.300   .     A
N861   O862    1.300   .     A
N861   O863    1.301   .     A
N864   O866    1.301   .     A
N864   O865    1.300   .     A
N867   O868    1.302   .     A
N867   O869    1.301   .     A
N870   O872    1.301   .     A
N870   O871    1.301   .     A
N873   O875    1.301   .     A
N873   O874    1.301   .     A
N876   O878    1.301   .     A
N876   O877    1.301   .     A
N879   O881    1.302   .     A
N879   O880    1.301   .     A
N882   O883    1.301   .     A
N882   O884    1.302   .     A
C885   O886    1.224   .     D
C885   O887    1.394   .     S
O887   H888    1.013   .     S
C889   O891    1.394   .     S
C889   O890    1.223   .     D
O891   H892    1.012   .     S
C893   O894    1.217   .     D
C893   O895    1.398   .     S
O895   H896    1.013   .     S
C897   O898    1.216   .     D
C897   O899    1.399   .     S
O899   H900    1.012   .     S
O901   C905    1.312   .     A
O901   Cu913   1.995   .     S
O902   C906    1.309   .     A
O902   Cu914   1.995   .     S
O903   C906    1.311   .     A
O903   Cu913   1.985   .     S
O904   C905    1.309   .     A
O904   Cu914   1.985   .     S
C905   C938    1.477   .     S
C906   C937    1.475   .     S
O907   C911    1.309   .     A
O907   Cu913   1.967   .     S
O908   C912    1.306   .     A
O908   Cu914   1.967   .     S
O909   Cu913   1.958   .     S
O909   C912    1.302   .     A
O910   Cu914   1.958   .     S
O910   C911    1.299   .     A
C911   C918    1.456   .     S
C912   C917    1.452   .     S
Cu913  N943    2.046   .     S
Cu913  Cu914   2.723   .     S
Cu914  N944    2.046   .     S
C915   C925    1.412   .     A
C915   N945    1.443   .     S
C915   C917    1.409   .     A
C916   N948    1.439   .     S
C916   C926    1.417   .     A
C916   C918    1.411   .     A
C917   C919    1.405   .     A
C918   C920    1.403   .     A
C919   C921    1.406   .     A
C919   N951    1.437   .     S
C920   N954    1.436   .     S
C920   C922    1.402   .     A
C921   C927    1.401   .     A
C921   C923    1.412   .     A
C922   C928    1.403   .     A
C922   C924    1.414   .     A
C923   C925    1.418   .     A
C923   C114    1.414   1_556 S
C924   C926    1.421   .     A
C925   C930    1.417   .     A
C926   C929    1.420   .     A
C927   H931    1.081   .     S
C927   C119    1.392   1_556 S
C928   H932    1.082   .     S
C929   N957    1.436   .     S
C930   N960    1.440   .     S
C930   C118    1.394   1_556 S
C933   N963    1.441   .     S
C933   C938    1.419   .     A
C934   C937    1.415   .     A
C934   N966    1.440   .     S
C934   C1026   1.398   .     S
C935   C937    1.417   .     A
C935   N969    1.437   .     S
C935   C1023   1.397   .     S
C936   C938    1.419   .     A
C936   N972    1.437   .     S
C939   C975    1.480   .     S
C939   N944    1.377   .     A
C939   C1482   1.426   1_545 S
C940   N943    1.376   .     A
C940   C979    1.478   .     S
C940   C1211   1.427   .     S
C941   C983    1.470   .     S
C941   N944    1.379   .     A
C941   C1480   1.427   1_545 S
C942   N943    1.376   .     A
C942   C987    1.464   .     S
C942   C1209   1.426   .     S
N945   O947    1.302   .     A
N945   O946    1.300   .     A
N948   O950    1.302   .     A
N948   O949    1.300   .     A
N951   O952    1.300   .     A
N951   O953    1.301   .     A
N954   O956    1.301   .     A
N954   O955    1.300   .     A
N957   O958    1.302   .     A
N957   O959    1.301   .     A
N960   O962    1.301   .     A
N960   O961    1.301   .     A
N963   O965    1.301   .     A
N963   O964    1.301   .     A
N966   O968    1.301   .     A
N966   O967    1.301   .     A
N969   O971    1.302   .     A
N969   O970    1.301   .     A
N972   O973    1.301   .     A
N972   O974    1.302   .     A
C975   O976    1.224   .     D
C975   O977    1.394   .     S
O977   H978    1.013   .     S
C979   O981    1.394   .     S
C979   O980    1.223   .     D
O981   H982    1.012   .     S
C983   O984    1.217   .     D
C983   O985    1.398   .     S
O985   H986    1.013   .     S
C987   O988    1.216   .     D
C987   O989    1.399   .     S
O989   H990    1.012   .     S
O991   C995    1.312   .     A
O991   Cu1003  1.995   .     S
O992   C996    1.309   .     A
O992   Cu1004  1.995   .     S
O993   C996    1.311   .     A
O993   Cu1003  1.985   .     S
O994   C995    1.309   .     A
O994   Cu1004  1.985   .     S
C995   C1028   1.477   .     S
C996   C1027   1.475   .     S
O997   C1001   1.309   .     A
O997   Cu1003  1.967   .     S
O998   C1002   1.306   .     A
O998   Cu1004  1.967   .     S
O999   Cu1003  1.958   .     S
O999   C1002   1.302   .     A
O1000  Cu1004  1.958   .     S
O1000  C1001   1.299   .     A
C1001  C1008   1.456   .     S
C1002  C1007   1.452   .     S
Cu1003 N1033   2.046   .     S
Cu1003 Cu1004  2.723   .     S
Cu1004 N1034   2.046   .     S
C1005  C1015   1.412   .     A
C1005  N1035   1.443   .     S
C1005  C1007   1.409   .     A
C1006  N1038   1.439   .     S
C1006  C1016   1.417   .     A
C1006  C1008   1.411   .     A
C1007  C1009   1.405   .     A
C1008  C1010   1.403   .     A
C1009  C1011   1.406   .     A
C1009  N1041   1.437   .     S
C1010  N1044   1.436   .     S
C1010  C1012   1.402   .     A
C1011  C1017   1.401   .     A
C1011  C1013   1.412   .     A
C1012  C1018   1.403   .     A
C1012  C1014   1.414   .     A
C1013  C1015   1.418   .     A
C1013  C204    1.414   1_556 S
C1014  C1016   1.421   .     A
C1015  C1020   1.417   .     A
C1016  C1019   1.420   .     A
C1017  H1021   1.081   .     S
C1017  C209    1.392   1_556 S
C1018  H1022   1.082   .     S
C1019  N1047   1.436   .     S
C1020  N1050   1.440   .     S
C1020  C208    1.394   1_556 S
C1023  N1053   1.441   .     S
C1023  C1028   1.419   .     A
C1024  C1027   1.415   .     A
C1024  N1056   1.440   .     S
C1024  C846    1.398   1_655 S
C1025  C1027   1.417   .     A
C1025  N1059   1.437   .     S
C1025  C843    1.397   1_655 S
C1026  C1028   1.419   .     A
C1026  N1062   1.437   .     S
C1029  C1065   1.480   .     S
C1029  N1034   1.377   .     A
C1029  C1572   1.426   1_545 S
C1030  N1033   1.376   .     A
C1030  C1069   1.478   .     S
C1030  C1301   1.427   .     S
C1031  C1073   1.470   .     S
C1031  N1034   1.379   .     A
C1031  C1570   1.427   1_545 S
C1032  N1033   1.376   .     A
C1032  C1077   1.464   .     S
C1032  C1299   1.426   .     S
N1035  O1037   1.302   .     A
N1035  O1036   1.300   .     A
N1038  O1040   1.302   .     A
N1038  O1039   1.300   .     A
N1041  O1042   1.300   .     A
N1041  O1043   1.301   .     A
N1044  O1046   1.301   .     A
N1044  O1045   1.300   .     A
N1047  O1048   1.302   .     A
N1047  O1049   1.301   .     A
N1050  O1052   1.301   .     A
N1050  O1051   1.301   .     A
N1053  O1055   1.301   .     A
N1053  O1054   1.301   .     A
N1056  O1058   1.301   .     A
N1056  O1057   1.301   .     A
N1059  O1061   1.302   .     A
N1059  O1060   1.301   .     A
N1062  O1063   1.301   .     A
N1062  O1064   1.302   .     A
C1065  O1066   1.224   .     D
C1065  O1067   1.394   .     S
O1067  H1068   1.013   .     S
C1069  O1071   1.394   .     S
C1069  O1070   1.223   .     D
O1071  H1072   1.012   .     S
C1073  O1074   1.217   .     D
C1073  O1075   1.398   .     S
O1075  H1076   1.013   .     S
C1077  O1078   1.216   .     D
C1077  O1079   1.399   .     S
O1079  H1080   1.012   .     S
O1081  C1085   1.312   .     A
O1081  Cu1093  1.995   .     S
O1082  C1086   1.309   .     A
O1082  Cu1094  1.995   .     S
O1083  C1086   1.311   .     A
O1083  Cu1093  1.985   .     S
O1084  C1085   1.309   .     A
O1084  Cu1094  1.985   .     S
C1085  C1118   1.477   .     S
C1086  C1117   1.475   .     S
O1087  C1091   1.309   .     A
O1087  Cu1093  1.967   .     S
O1088  C1092   1.306   .     A
O1088  Cu1094  1.967   .     S
O1089  Cu1093  1.958   .     S
O1089  C1092   1.302   .     A
O1090  Cu1094  1.958   .     S
O1090  C1091   1.299   .     A
C1091  C1098   1.456   .     S
C1092  C1097   1.452   .     S
Cu1093 N1123   2.046   .     S
Cu1093 Cu1094  2.723   .     S
Cu1094 N1124   2.046   .     S
C1095  C1105   1.412   .     A
C1095  N1125   1.443   .     S
C1095  C1097   1.409   .     A
C1096  N1128   1.439   .     S
C1096  C1106   1.417   .     A
C1096  C1098   1.411   .     A
C1097  C1099   1.405   .     A
C1098  C1100   1.403   .     A
C1099  C1101   1.406   .     A
C1099  N1131   1.437   .     S
C1100  N1134   1.436   .     S
C1100  C1102   1.402   .     A
C1101  C1107   1.401   .     A
C1101  C1103   1.412   .     A
C1102  C1108   1.403   .     A
C1102  C1104   1.414   .     A
C1103  C1105   1.418   .     A
C1103  C294    1.414   1_556 S
C1104  C1106   1.421   .     A
C1105  C1110   1.417   .     A
C1106  C1109   1.420   .     A
C1107  H1111   1.081   .     S
C1107  C299    1.392   1_556 S
C1108  H1112   1.082   .     S
C1109  N1137   1.436   .     S
C1110  N1140   1.440   .     S
C1110  C298    1.394   1_556 S
C1113  N1143   1.441   .     S
C1113  C1118   1.419   .     A
C1113  C1295   1.397   1_455 S
C1114  C1117   1.415   .     A
C1114  N1146   1.440   .     S
C1114  C1206   1.398   .     S
C1115  C1117   1.417   .     A
C1115  N1149   1.437   .     S
C1115  C1203   1.397   .     S
C1116  C1118   1.419   .     A
C1116  N1152   1.437   .     S
C1116  C1294   1.398   1_455 S
C1119  C1155   1.480   .     S
C1119  N1124   1.377   .     A
C1120  N1123   1.376   .     A
C1120  C1159   1.478   .     S
C1120  C1391   1.427   .     S
C1121  C1163   1.470   .     S
C1121  N1124   1.379   .     A
C1122  N1123   1.376   .     A
C1122  C1167   1.464   .     S
C1122  C1389   1.426   .     S
N1125  O1127   1.302   .     A
N1125  O1126   1.300   .     A
N1128  O1130   1.302   .     A
N1128  O1129   1.300   .     A
N1131  O1132   1.300   .     A
N1131  O1133   1.301   .     A
N1134  O1136   1.301   .     A
N1134  O1135   1.300   .     A
N1137  O1138   1.302   .     A
N1137  O1139   1.301   .     A
N1140  O1142   1.301   .     A
N1140  O1141   1.301   .     A
N1143  O1145   1.301   .     A
N1143  O1144   1.301   .     A
N1146  O1148   1.301   .     A
N1146  O1147   1.301   .     A
N1149  O1151   1.302   .     A
N1149  O1150   1.301   .     A
N1152  O1153   1.301   .     A
N1152  O1154   1.302   .     A
C1155  O1156   1.224   .     D
C1155  O1157   1.394   .     S
O1157  H1158   1.013   .     S
C1159  O1161   1.394   .     S
C1159  O1160   1.223   .     D
O1161  H1162   1.012   .     S
C1163  O1164   1.217   .     D
C1163  O1165   1.398   .     S
O1165  H1166   1.013   .     S
C1167  O1168   1.216   .     D
C1167  O1169   1.399   .     S
O1169  H1170   1.012   .     S
O1171  C1175   1.312   .     A
O1171  Cu1183  1.995   .     S
O1172  C1176   1.309   .     A
O1172  Cu1184  1.995   .     S
O1173  C1176   1.311   .     A
O1173  Cu1183  1.985   .     S
O1174  C1175   1.309   .     A
O1174  Cu1184  1.985   .     S
C1175  C1208   1.477   .     S
C1176  C1207   1.475   .     S
O1177  C1181   1.309   .     A
O1177  Cu1183  1.967   .     S
O1178  C1182   1.306   .     A
O1178  Cu1184  1.967   .     S
O1179  Cu1183  1.958   .     S
O1179  C1182   1.302   .     A
O1180  Cu1184  1.958   .     S
O1180  C1181   1.299   .     A
C1181  C1188   1.456   .     S
C1182  C1187   1.452   .     S
Cu1183 N1213   2.046   .     S
Cu1183 Cu1184  2.723   .     S
Cu1184 N1214   2.046   .     S
C1185  C1195   1.412   .     A
C1185  N1215   1.443   .     S
C1185  C1187   1.409   .     A
C1186  N1218   1.439   .     S
C1186  C1196   1.417   .     A
C1186  C1188   1.411   .     A
C1187  C1189   1.405   .     A
C1188  C1190   1.403   .     A
C1189  C1191   1.406   .     A
C1189  N1221   1.437   .     S
C1190  N1224   1.436   .     S
C1190  C1192   1.402   .     A
C1191  C1197   1.401   .     A
C1191  C1193   1.412   .     A
C1192  C1198   1.403   .     A
C1192  C1194   1.414   .     A
C1193  C1195   1.418   .     A
C1193  C384    1.414   1_556 S
C1194  C1196   1.421   .     A
C1195  C1200   1.417   .     A
C1196  C1199   1.420   .     A
C1197  H1201   1.081   .     S
C1197  C389    1.392   1_556 S
C1198  H1202   1.082   .     S
C1199  N1227   1.436   .     S
C1200  N1230   1.440   .     S
C1200  C388    1.394   1_556 S
C1203  N1233   1.441   .     S
C1203  C1208   1.419   .     A
C1204  C1207   1.415   .     A
C1204  N1236   1.440   .     S
C1204  C1296   1.398   .     S
C1205  C1207   1.417   .     A
C1205  N1239   1.437   .     S
C1205  C1293   1.397   .     S
C1206  C1208   1.419   .     A
C1206  N1242   1.437   .     S
C1209  C1245   1.480   .     S
C1209  N1214   1.377   .     A
C1210  N1213   1.376   .     A
C1210  C1249   1.478   .     S
C1210  C1481   1.427   .     S
C1211  C1253   1.470   .     S
C1211  N1214   1.379   .     A
C1212  N1213   1.376   .     A
C1212  C1257   1.464   .     S
C1212  C1479   1.426   .     S
N1215  O1217   1.302   .     A
N1215  O1216   1.300   .     A
N1218  O1220   1.302   .     A
N1218  O1219   1.300   .     A
N1221  O1222   1.300   .     A
N1221  O1223   1.301   .     A
N1224  O1226   1.301   .     A
N1224  O1225   1.300   .     A
N1227  O1228   1.302   .     A
N1227  O1229   1.301   .     A
N1230  O1232   1.301   .     A
N1230  O1231   1.301   .     A
N1233  O1235   1.301   .     A
N1233  O1234   1.301   .     A
N1236  O1238   1.301   .     A
N1236  O1237   1.301   .     A
N1239  O1241   1.302   .     A
N1239  O1240   1.301   .     A
N1242  O1243   1.301   .     A
N1242  O1244   1.302   .     A
C1245  O1246   1.224   .     D
C1245  O1247   1.394   .     S
O1247  H1248   1.013   .     S
C1249  O1251   1.394   .     S
C1249  O1250   1.223   .     D
O1251  H1252   1.012   .     S
C1253  O1254   1.217   .     D
C1253  O1255   1.398   .     S
O1255  H1256   1.013   .     S
C1257  O1258   1.216   .     D
C1257  O1259   1.399   .     S
O1259  H1260   1.012   .     S
O1261  C1265   1.312   .     A
O1261  Cu1273  1.995   .     S
O1262  C1266   1.309   .     A
O1262  Cu1274  1.995   .     S
O1263  C1266   1.311   .     A
O1263  Cu1273  1.985   .     S
O1264  C1265   1.309   .     A
O1264  Cu1274  1.985   .     S
C1265  C1298   1.477   .     S
C1266  C1297   1.475   .     S
O1267  C1271   1.309   .     A
O1267  Cu1273  1.967   .     S
O1268  C1272   1.306   .     A
O1268  Cu1274  1.967   .     S
O1269  Cu1273  1.958   .     S
O1269  C1272   1.302   .     A
O1270  Cu1274  1.958   .     S
O1270  C1271   1.299   .     A
C1271  C1278   1.456   .     S
C1272  C1277   1.452   .     S
Cu1273 N1303   2.046   .     S
Cu1273 Cu1274  2.723   .     S
Cu1274 N1304   2.046   .     S
C1275  C1285   1.412   .     A
C1275  N1305   1.443   .     S
C1275  C1277   1.409   .     A
C1276  N1308   1.439   .     S
C1276  C1286   1.417   .     A
C1276  C1278   1.411   .     A
C1277  C1279   1.405   .     A
C1278  C1280   1.403   .     A
C1279  C1281   1.406   .     A
C1279  N1311   1.437   .     S
C1280  N1314   1.436   .     S
C1280  C1282   1.402   .     A
C1281  C1287   1.401   .     A
C1281  C1283   1.412   .     A
C1282  C1288   1.403   .     A
C1282  C1284   1.414   .     A
C1283  C1285   1.418   .     A
C1283  C474    1.414   1_556 S
C1284  C1286   1.421   .     A
C1285  C1290   1.417   .     A
C1286  C1289   1.420   .     A
C1287  H1291   1.081   .     S
C1287  C479    1.392   1_556 S
C1288  H1292   1.082   .     S
C1289  N1317   1.436   .     S
C1290  N1320   1.440   .     S
C1290  C478    1.394   1_556 S
C1293  N1323   1.441   .     S
C1293  C1298   1.419   .     A
C1294  C1297   1.415   .     A
C1294  N1326   1.440   .     S
C1294  C1116   1.398   1_655 S
C1295  C1297   1.417   .     A
C1295  N1329   1.437   .     S
C1295  C1113   1.397   1_655 S
C1296  C1298   1.419   .     A
C1296  N1332   1.437   .     S
C1299  C1335   1.480   .     S
C1299  N1304   1.377   .     A
C1300  N1303   1.376   .     A
C1300  C1339   1.478   .     S
C1300  C1571   1.427   .     S
C1301  C1343   1.470   .     S
C1301  N1304   1.379   .     A
C1302  N1303   1.376   .     A
C1302  C1347   1.464   .     S
C1302  C1569   1.426   .     S
N1305  O1307   1.302   .     A
N1305  O1306   1.300   .     A
N1308  O1310   1.302   .     A
N1308  O1309   1.300   .     A
N1311  O1312   1.300   .     A
N1311  O1313   1.301   .     A
N1314  O1316   1.301   .     A
N1314  O1315   1.300   .     A
N1317  O1318   1.302   .     A
N1317  O1319   1.301   .     A
N1320  O1322   1.301   .     A
N1320  O1321   1.301   .     A
N1323  O1325   1.301   .     A
N1323  O1324   1.301   .     A
N1326  O1328   1.301   .     A
N1326  O1327   1.301   .     A
N1329  O1331   1.302   .     A
N1329  O1330   1.301   .     A
N1332  O1333   1.301   .     A
N1332  O1334   1.302   .     A
C1335  O1336   1.224   .     D
C1335  O1337   1.394   .     S
O1337  H1338   1.013   .     S
C1339  O1341   1.394   .     S
C1339  O1340   1.223   .     D
O1341  H1342   1.012   .     S
C1343  O1344   1.217   .     D
C1343  O1345   1.398   .     S
O1345  H1346   1.013   .     S
C1347  O1348   1.216   .     D
C1347  O1349   1.399   .     S
O1349  H1350   1.012   .     S
O1351  C1355   1.312   .     A
O1351  Cu1363  1.995   .     S
O1352  C1356   1.309   .     A
O1352  Cu1364  1.995   .     S
O1353  C1356   1.311   .     A
O1353  Cu1363  1.985   .     S
O1354  C1355   1.309   .     A
O1354  Cu1364  1.985   .     S
C1355  C1388   1.477   .     S
C1356  C1387   1.475   .     S
O1357  C1361   1.309   .     A
O1357  Cu1363  1.967   .     S
O1358  C1362   1.306   .     A
O1358  Cu1364  1.967   .     S
O1359  Cu1363  1.958   .     S
O1359  C1362   1.302   .     A
O1360  Cu1364  1.958   .     S
O1360  C1361   1.299   .     A
C1361  C1368   1.456   .     S
C1362  C1367   1.452   .     S
Cu1363 N1393   2.046   .     S
Cu1363 Cu1364  2.723   .     S
Cu1364 N1394   2.046   .     S
C1365  C1375   1.412   .     A
C1365  N1395   1.443   .     S
C1365  C1367   1.409   .     A
C1366  N1398   1.439   .     S
C1366  C1376   1.417   .     A
C1366  C1368   1.411   .     A
C1367  C1369   1.405   .     A
C1368  C1370   1.403   .     A
C1369  C1371   1.406   .     A
C1369  N1401   1.437   .     S
C1370  N1404   1.436   .     S
C1370  C1372   1.402   .     A
C1371  C1377   1.401   .     A
C1371  C1373   1.412   .     A
C1372  C1378   1.403   .     A
C1372  C1374   1.414   .     A
C1373  C1375   1.418   .     A
C1373  C564    1.414   1_556 S
C1374  C1376   1.421   .     A
C1375  C1380   1.417   .     A
C1376  C1379   1.420   .     A
C1377  H1381   1.081   .     S
C1377  C569    1.392   1_556 S
C1378  H1382   1.082   .     S
C1379  N1407   1.436   .     S
C1380  N1410   1.440   .     S
C1380  C568    1.394   1_556 S
C1383  N1413   1.441   .     S
C1383  C1388   1.419   .     A
C1383  C1565   1.397   1_455 S
C1384  C1387   1.415   .     A
C1384  N1416   1.440   .     S
C1384  C1476   1.398   .     S
C1385  C1387   1.417   .     A
C1385  N1419   1.437   .     S
C1385  C1473   1.397   .     S
C1386  C1388   1.419   .     A
C1386  N1422   1.437   .     S
C1386  C1564   1.398   1_455 S
C1389  C1425   1.480   .     S
C1389  N1394   1.377   .     A
C1390  N1393   1.376   .     A
C1390  C1429   1.478   .     S
C1390  C851    1.427   1_565 S
C1391  C1433   1.470   .     S
C1391  N1394   1.379   .     A
C1392  N1393   1.376   .     A
C1392  C1437   1.464   .     S
C1392  C849    1.426   1_565 S
N1395  O1397   1.302   .     A
N1395  O1396   1.300   .     A
N1398  O1400   1.302   .     A
N1398  O1399   1.300   .     A
N1401  O1402   1.300   .     A
N1401  O1403   1.301   .     A
N1404  O1406   1.301   .     A
N1404  O1405   1.300   .     A
N1407  O1408   1.302   .     A
N1407  O1409   1.301   .     A
N1410  O1412   1.301   .     A
N1410  O1411   1.301   .     A
N1413  O1415   1.301   .     A
N1413  O1414   1.301   .     A
N1416  O1418   1.301   .     A
N1416  O1417   1.301   .     A
N1419  O1421   1.302   .     A
N1419  O1420   1.301   .     A
N1422  O1423   1.301   .     A
N1422  O1424   1.302   .     A
C1425  O1426   1.224   .     D
C1425  O1427   1.394   .     S
O1427  H1428   1.013   .     S
C1429  O1431   1.394   .     S
C1429  O1430   1.223   .     D
O1431  H1432   1.012   .     S
C1433  O1434   1.217   .     D
C1433  O1435   1.398   .     S
O1435  H1436   1.013   .     S
C1437  O1438   1.216   .     D
C1437  O1439   1.399   .     S
O1439  H1440   1.012   .     S
O1441  C1445   1.312   .     A
O1441  Cu1453  1.995   .     S
O1442  C1446   1.309   .     A
O1442  Cu1454  1.995   .     S
O1443  C1446   1.311   .     A
O1443  Cu1453  1.985   .     S
O1444  C1445   1.309   .     A
O1444  Cu1454  1.985   .     S
C1445  C1478   1.477   .     S
C1446  C1477   1.475   .     S
O1447  C1451   1.309   .     A
O1447  Cu1453  1.967   .     S
O1448  C1452   1.306   .     A
O1448  Cu1454  1.967   .     S
O1449  Cu1453  1.958   .     S
O1449  C1452   1.302   .     A
O1450  Cu1454  1.958   .     S
O1450  C1451   1.299   .     A
C1451  C1458   1.456   .     S
C1452  C1457   1.452   .     S
Cu1453 N1483   2.046   .     S
Cu1453 Cu1454  2.723   .     S
Cu1454 N1484   2.046   .     S
C1455  C1465   1.412   .     A
C1455  N1485   1.443   .     S
C1455  C1457   1.409   .     A
C1456  N1488   1.439   .     S
C1456  C1466   1.417   .     A
C1456  C1458   1.411   .     A
C1457  C1459   1.405   .     A
C1458  C1460   1.403   .     A
C1459  C1461   1.406   .     A
C1459  N1491   1.437   .     S
C1460  N1494   1.436   .     S
C1460  C1462   1.402   .     A
C1461  C1467   1.401   .     A
C1461  C1463   1.412   .     A
C1462  C1468   1.403   .     A
C1462  C1464   1.414   .     A
C1463  C1465   1.418   .     A
C1463  C654    1.414   1_556 S
C1464  C1466   1.421   .     A
C1465  C1470   1.417   .     A
C1466  C1469   1.420   .     A
C1467  H1471   1.081   .     S
C1467  C659    1.392   1_556 S
C1468  H1472   1.082   .     S
C1469  N1497   1.436   .     S
C1470  N1500   1.440   .     S
C1470  C658    1.394   1_556 S
C1473  N1503   1.441   .     S
C1473  C1478   1.419   .     A
C1474  C1477   1.415   .     A
C1474  N1506   1.440   .     S
C1474  C1566   1.398   .     S
C1475  C1477   1.417   .     A
C1475  N1509   1.437   .     S
C1475  C1563   1.397   .     S
C1476  C1478   1.419   .     A
C1476  N1512   1.437   .     S
C1479  C1515   1.480   .     S
C1479  N1484   1.377   .     A
C1480  N1483   1.376   .     A
C1480  C1519   1.478   .     S
C1480  C941    1.427   1_565 S
C1481  C1523   1.470   .     S
C1481  N1484   1.379   .     A
C1482  N1483   1.376   .     A
C1482  C1527   1.464   .     S
C1482  C939    1.426   1_565 S
N1485  O1487   1.302   .     A
N1485  O1486   1.300   .     A
N1488  O1490   1.302   .     A
N1488  O1489   1.300   .     A
N1491  O1492   1.300   .     A
N1491  O1493   1.301   .     A
N1494  O1496   1.301   .     A
N1494  O1495   1.300   .     A
N1497  O1498   1.302   .     A
N1497  O1499   1.301   .     A
N1500  O1502   1.301   .     A
N1500  O1501   1.301   .     A
N1503  O1505   1.301   .     A
N1503  O1504   1.301   .     A
N1506  O1508   1.301   .     A
N1506  O1507   1.301   .     A
N1509  O1511   1.302   .     A
N1509  O1510   1.301   .     A
N1512  O1513   1.301   .     A
N1512  O1514   1.302   .     A
C1515  O1516   1.224   .     D
C1515  O1517   1.394   .     S
O1517  H1518   1.013   .     S
C1519  O1521   1.394   .     S
C1519  O1520   1.223   .     D
O1521  H1522   1.012   .     S
C1523  O1524   1.217   .     D
C1523  O1525   1.398   .     S
O1525  H1526   1.013   .     S
C1527  O1528   1.216   .     D
C1527  O1529   1.399   .     S
O1529  H1530   1.012   .     S
O1531  C1535   1.312   .     A
O1531  Cu1543  1.995   .     S
O1532  C1536   1.309   .     A
O1532  Cu1544  1.995   .     S
O1533  C1536   1.311   .     A
O1533  Cu1543  1.985   .     S
O1534  C1535   1.309   .     A
O1534  Cu1544  1.985   .     S
C1535  C1568   1.477   .     S
C1536  C1567   1.475   .     S
O1537  C1541   1.309   .     A
O1537  Cu1543  1.967   .     S
O1538  C1542   1.306   .     A
O1538  Cu1544  1.967   .     S
O1539  Cu1543  1.958   .     S
O1539  C1542   1.302   .     A
O1540  Cu1544  1.958   .     S
O1540  C1541   1.299   .     A
C1541  C1548   1.456   .     S
C1542  C1547   1.452   .     S
Cu1543 N1573   2.046   .     S
Cu1543 Cu1544  2.723   .     S
Cu1544 N1574   2.046   .     S
C1545  C1555   1.412   .     A
C1545  N1575   1.443   .     S
C1545  C1547   1.409   .     A
C1546  N1578   1.439   .     S
C1546  C1556   1.417   .     A
C1546  C1548   1.411   .     A
C1547  C1549   1.405   .     A
C1548  C1550   1.403   .     A
C1549  C1551   1.406   .     A
C1549  N1581   1.437   .     S
C1550  N1584   1.436   .     S
C1550  C1552   1.402   .     A
C1551  C1557   1.401   .     A
C1551  C1553   1.412   .     A
C1552  C1558   1.403   .     A
C1552  C1554   1.414   .     A
C1553  C1555   1.418   .     A
C1553  C744    1.414   1_556 S
C1554  C1556   1.421   .     A
C1555  C1560   1.417   .     A
C1556  C1559   1.420   .     A
C1557  H1561   1.081   .     S
C1557  C749    1.392   1_556 S
C1558  H1562   1.082   .     S
C1559  N1587   1.436   .     S
C1560  N1590   1.440   .     S
C1560  C748    1.394   1_556 S
C1563  N1593   1.441   .     S
C1563  C1568   1.419   .     A
C1564  C1567   1.415   .     A
C1564  N1596   1.440   .     S
C1564  C1386   1.398   1_655 S
C1565  C1567   1.417   .     A
C1565  N1599   1.437   .     S
C1565  C1383   1.397   1_655 S
C1566  C1568   1.419   .     A
C1566  N1602   1.437   .     S
C1569  C1605   1.480   .     S
C1569  N1574   1.377   .     A
C1570  N1573   1.376   .     A
C1570  C1609   1.478   .     S
C1570  C1031   1.427   1_565 S
C1571  C1613   1.470   .     S
C1571  N1574   1.379   .     A
C1572  N1573   1.376   .     A
C1572  C1617   1.464   .     S
C1572  C1029   1.426   1_565 S
N1575  O1577   1.302   .     A
N1575  O1576   1.300   .     A
N1578  O1580   1.302   .     A
N1578  O1579   1.300   .     A
N1581  O1582   1.300   .     A
N1581  O1583   1.301   .     A
N1584  O1586   1.301   .     A
N1584  O1585   1.300   .     A
N1587  O1588   1.302   .     A
N1587  O1589   1.301   .     A
N1590  O1592   1.301   .     A
N1590  O1591   1.301   .     A
N1593  O1595   1.301   .     A
N1593  O1594   1.301   .     A
N1596  O1598   1.301   .     A
N1596  O1597   1.301   .     A
N1599  O1601   1.302   .     A
N1599  O1600   1.301   .     A
N1602  O1603   1.301   .     A
N1602  O1604   1.302   .     A
C1605  O1606   1.224   .     D
C1605  O1607   1.394   .     S
O1607  H1608   1.013   .     S
C1609  O1611   1.394   .     S
C1609  O1610   1.223   .     D
O1611  H1612   1.012   .     S
C1613  O1614   1.217   .     D
C1613  O1615   1.398   .     S
O1615  H1616   1.013   .     S
C1617  O1618   1.216   .     D
C1617  O1619   1.399   .     S
O1619  H1620   1.012   .     S
