data_str_m2_o2_o5_pcu_sym.55
_audit_creation_date              2020-01-03
_audit_creation_method            'Materials Studio'
_symmetry_space_group_name_H-M    'P1'
_symmetry_Int_Tables_number       1
_symmetry_cell_setting            triclinic
loop_
_symmetry_equiv_pos_as_xyz
  x,y,z
_cell_length_a                    30.3150
_cell_length_b                    27.9326
_cell_length_c                    27.1864
_cell_angle_alpha                 89.7354
_cell_angle_beta                  92.1882
_cell_angle_gamma                 89.9912
loop_
_atom_site_label
_atom_site_type_symbol
_atom_site_fract_x
_atom_site_fract_y
_atom_site_fract_z
_atom_site_U_iso_or_equiv
_atom_site_adp_type
_atom_site_occupancy
O1     O     0.18573   0.29072   0.16667   0.00000  Uiso   1.00
O2     O     0.31427   0.20929   0.16666   0.00000  Uiso   1.00
O3     O     0.31427   0.29072   0.16666   0.00000  Uiso   1.00
O4     O     0.18573   0.20929   0.16667   0.00000  Uiso   1.00
C5     C     0.16474   0.25002   0.16815   0.00000  Uiso   1.00
C6     C     0.33478   0.25009   0.16671   0.00000  Uiso   1.00
O7     O     0.25000   0.29071   0.09613   0.00000  Uiso   1.00
O8     O     0.25000   0.20929   0.23720   0.00000  Uiso   1.00
O9     O     0.25000   0.29071   0.23720   0.00000  Uiso   1.00
O10    O     0.25000   0.20929   0.09613   0.00000  Uiso   1.00
C11    C     0.26924   0.05386   0.20670   0.00000  Uiso   1.00
C12    C     0.22919   0.44574   0.12682   0.00000  Uiso   1.00
C13    C     0.21523   0.05460   0.14130   0.00000  Uiso   1.00
C14    C     0.28436   0.44575   0.19118   0.00000  Uiso   1.00
C15    C     0.25002   0.25007   0.07359   0.00000  Uiso   1.00
C16    C     0.25010   0.24993   0.25974   0.00000  Uiso   1.00
Cu17   Cu    0.25000   0.29822   0.16667   0.00000  Uiso   1.00
Cu18   Cu    0.25000   0.20179   0.16667   0.00000  Uiso   1.00
N19    N     0.25000   0.12935   0.16667   0.00000  Uiso   1.00
N20    N     0.25000   0.37066   0.16667   0.00000  Uiso   1.00
C21    C     0.24678   0.02736   0.16922   0.00000  Uiso   1.00
C22    C     0.25215   0.47259   0.16373   0.00000  Uiso   1.00
C23    C     0.25012   0.25010   0.02187   0.00000  Uiso   1.00
C24    C     0.25014   0.24991   0.31147   0.00000  Uiso   1.00
C25    C     0.04528   0.29225   0.16490   0.00000  Uiso   1.00
C26    C     0.45339   0.22535   0.20259   0.00000  Uiso   1.00
C27    C     0.45036   0.27274   0.12759   0.00000  Uiso   1.00
C28    C     0.04627   0.20591   0.16887   0.00000  Uiso   1.00
H29    H     0.02605   0.32490   0.16431   0.00000  Uiso   1.00
H30    H     0.47254   0.20760   0.23182   0.00000  Uiso   1.00
H31    H     0.46706   0.29059   0.09809   0.00000  Uiso   1.00
H32    H     0.02856   0.17224   0.17019   0.00000  Uiso   1.00
C33    C     0.09153   0.29386   0.16835   0.00000  Uiso   1.00
C34    C     0.40753   0.22697   0.20458   0.00000  Uiso   1.00
C35    C     0.40435   0.27425   0.12854   0.00000  Uiso   1.00
C36    C     0.09226   0.20589   0.17220   0.00000  Uiso   1.00
C37    C     0.11574   0.24999   0.17010   0.00000  Uiso   1.00
C38    C     0.38282   0.25060   0.16676   0.00000  Uiso   1.00
C39    C     0.02295   0.24871   0.16479   0.00000  Uiso   1.00
C40    C     0.47477   0.24831   0.16445   0.00000  Uiso   1.00
C41    C     0.27376   0.10404   0.20212   0.00000  Uiso   1.00
C42    C     0.22526   0.39551   0.13166   0.00000  Uiso   1.00
C43    C     0.22004   0.10482   0.13707   0.00000  Uiso   1.00
C44    C     0.28024   0.39548   0.19551   0.00000  Uiso   1.00
Cl45   Cl    0.30970   0.13306   0.24445   0.00000  Uiso   1.00
Cl46   Cl    0.18904   0.36566   0.08990   0.00000  Uiso   1.00
Cl47   Cl    0.18521   0.13507   0.09387   0.00000  Uiso   1.00
Cl48   Cl    0.31626   0.36547   0.23765   0.00000  Uiso   1.00
N49    N     0.11377   0.33886   0.17343   0.00000  Uiso   1.00
H50    H     0.13037   0.34330   0.20693   0.00000  Uiso   1.00
C51    C     0.09290   0.38203   0.15412   0.00000  Uiso   1.00
H52    H     0.06633   0.39372   0.17839   0.00000  Uiso   1.00
H53    H     0.07939   0.37605   0.11608   0.00000  Uiso   1.00
H54    H     0.11780   0.41111   0.15294   0.00000  Uiso   1.00
N55    N     0.38665   0.20590   0.24535   0.00000  Uiso   1.00
H56    H     0.40341   0.17678   0.26027   0.00000  Uiso   1.00
C57    C     0.37453   0.23962   0.28277   0.00000  Uiso   1.00
H58    H     0.40458   0.25667   0.29962   0.00000  Uiso   1.00
H59    H     0.35678   0.22054   0.31199   0.00000  Uiso   1.00
H60    H     0.35228   0.26772   0.26689   0.00000  Uiso   1.00
N61    N     0.37974   0.29793   0.09003   0.00000  Uiso   1.00
H62    H     0.38991   0.28891   0.05550   0.00000  Uiso   1.00
C63    C     0.37682   0.34927   0.09593   0.00000  Uiso   1.00
H64    H     0.40988   0.36592   0.09261   0.00000  Uiso   1.00
H65    H     0.36374   0.35835   0.13234   0.00000  Uiso   1.00
H66    H     0.35407   0.36433   0.06685   0.00000  Uiso   1.00
N67    N     0.11432   0.16114   0.17845   0.00000  Uiso   1.00
H68    H     0.09891   0.13322   0.15994   0.00000  Uiso   1.00
C69    C     0.12551   0.14886   0.22916   0.00000  Uiso   1.00
H70    H     0.09500   0.14295   0.24978   0.00000  Uiso   1.00
H71    H     0.14535   0.17776   0.24719   0.00000  Uiso   1.00
H72    H     0.14544   0.11548   0.23043   0.00000  Uiso   1.00
Cl73   Cl    0.27661   0.02921   0.26668   0.00000  Uiso   1.00
Cl74   Cl    0.22087   0.46984   0.06675   0.00000  Uiso   1.00
Cl75   Cl    0.16174   0.03108   0.12851   0.00000  Uiso   1.00
Cl76   Cl    0.33745   0.47027   0.20413   0.00000  Uiso   1.00
O77    O     0.68573   0.29072   0.16667   0.00000  Uiso   1.00
O78    O     0.81427   0.20929   0.16666   0.00000  Uiso   1.00
O79    O     0.81427   0.29072   0.16666   0.00000  Uiso   1.00
O80    O     0.68573   0.20929   0.16667   0.00000  Uiso   1.00
C81    C     0.66474   0.25002   0.16815   0.00000  Uiso   1.00
C82    C     0.83478   0.25009   0.16671   0.00000  Uiso   1.00
O83    O     0.75000   0.29071   0.09613   0.00000  Uiso   1.00
O84    O     0.75000   0.20929   0.23720   0.00000  Uiso   1.00
O85    O     0.75000   0.29071   0.23720   0.00000  Uiso   1.00
O86    O     0.75000   0.20929   0.09613   0.00000  Uiso   1.00
C87    C     0.76924   0.05386   0.20670   0.00000  Uiso   1.00
C88    C     0.72919   0.44574   0.12682   0.00000  Uiso   1.00
C89    C     0.71523   0.05460   0.14130   0.00000  Uiso   1.00
C90    C     0.78436   0.44575   0.19118   0.00000  Uiso   1.00
C91    C     0.75002   0.25007   0.07359   0.00000  Uiso   1.00
C92    C     0.75010   0.24993   0.25974   0.00000  Uiso   1.00
Cu93   Cu    0.75000   0.29822   0.16667   0.00000  Uiso   1.00
Cu94   Cu    0.75000   0.20179   0.16667   0.00000  Uiso   1.00
N95    N     0.75000   0.12935   0.16667   0.00000  Uiso   1.00
N96    N     0.75000   0.37066   0.16667   0.00000  Uiso   1.00
C97    C     0.74678   0.02736   0.16922   0.00000  Uiso   1.00
C98    C     0.75215   0.47259   0.16373   0.00000  Uiso   1.00
C99    C     0.75012   0.25010   0.02187   0.00000  Uiso   1.00
C100   C     0.75014   0.24991   0.31147   0.00000  Uiso   1.00
C101   C     0.54528   0.29225   0.16490   0.00000  Uiso   1.00
C102   C     0.95339   0.22535   0.20259   0.00000  Uiso   1.00
C103   C     0.95036   0.27274   0.12759   0.00000  Uiso   1.00
C104   C     0.54627   0.20591   0.16887   0.00000  Uiso   1.00
H105   H     0.52605   0.32490   0.16431   0.00000  Uiso   1.00
H106   H     0.97254   0.20760   0.23182   0.00000  Uiso   1.00
H107   H     0.96706   0.29059   0.09809   0.00000  Uiso   1.00
H108   H     0.52856   0.17224   0.17019   0.00000  Uiso   1.00
C109   C     0.59153   0.29386   0.16835   0.00000  Uiso   1.00
C110   C     0.90753   0.22697   0.20458   0.00000  Uiso   1.00
C111   C     0.90435   0.27425   0.12854   0.00000  Uiso   1.00
C112   C     0.59226   0.20589   0.17220   0.00000  Uiso   1.00
C113   C     0.61574   0.24999   0.17010   0.00000  Uiso   1.00
C114   C     0.88282   0.25060   0.16676   0.00000  Uiso   1.00
C115   C     0.52295   0.24871   0.16479   0.00000  Uiso   1.00
C116   C     0.97477   0.24831   0.16445   0.00000  Uiso   1.00
C117   C     0.77376   0.10404   0.20212   0.00000  Uiso   1.00
C118   C     0.72526   0.39551   0.13166   0.00000  Uiso   1.00
C119   C     0.72004   0.10482   0.13707   0.00000  Uiso   1.00
C120   C     0.78024   0.39548   0.19551   0.00000  Uiso   1.00
Cl121  Cl    0.80970   0.13306   0.24445   0.00000  Uiso   1.00
Cl122  Cl    0.68904   0.36566   0.08990   0.00000  Uiso   1.00
Cl123  Cl    0.68521   0.13507   0.09387   0.00000  Uiso   1.00
Cl124  Cl    0.81626   0.36547   0.23765   0.00000  Uiso   1.00
N125   N     0.61377   0.33886   0.17343   0.00000  Uiso   1.00
H126   H     0.63037   0.34330   0.20693   0.00000  Uiso   1.00
C127   C     0.59290   0.38203   0.15412   0.00000  Uiso   1.00
H128   H     0.56633   0.39372   0.17839   0.00000  Uiso   1.00
H129   H     0.57939   0.37605   0.11608   0.00000  Uiso   1.00
H130   H     0.61780   0.41111   0.15294   0.00000  Uiso   1.00
N131   N     0.88665   0.20590   0.24535   0.00000  Uiso   1.00
H132   H     0.90341   0.17678   0.26027   0.00000  Uiso   1.00
C133   C     0.87453   0.23962   0.28277   0.00000  Uiso   1.00
H134   H     0.90458   0.25667   0.29962   0.00000  Uiso   1.00
H135   H     0.85678   0.22054   0.31199   0.00000  Uiso   1.00
H136   H     0.85228   0.26772   0.26689   0.00000  Uiso   1.00
N137   N     0.87974   0.29793   0.09003   0.00000  Uiso   1.00
H138   H     0.88991   0.28891   0.05550   0.00000  Uiso   1.00
C139   C     0.87682   0.34927   0.09593   0.00000  Uiso   1.00
H140   H     0.90988   0.36592   0.09261   0.00000  Uiso   1.00
H141   H     0.86374   0.35835   0.13234   0.00000  Uiso   1.00
H142   H     0.85407   0.36433   0.06685   0.00000  Uiso   1.00
N143   N     0.61432   0.16114   0.17845   0.00000  Uiso   1.00
H144   H     0.59891   0.13322   0.15994   0.00000  Uiso   1.00
C145   C     0.62551   0.14886   0.22916   0.00000  Uiso   1.00
H146   H     0.59500   0.14295   0.24978   0.00000  Uiso   1.00
H147   H     0.64535   0.17776   0.24719   0.00000  Uiso   1.00
H148   H     0.64544   0.11548   0.23043   0.00000  Uiso   1.00
Cl149  Cl    0.77661   0.02921   0.26668   0.00000  Uiso   1.00
Cl150  Cl    0.72087   0.46984   0.06675   0.00000  Uiso   1.00
Cl151  Cl    0.66174   0.03108   0.12851   0.00000  Uiso   1.00
Cl152  Cl    0.83745   0.47027   0.20413   0.00000  Uiso   1.00
O153   O     0.18573   0.79072   0.16667   0.00000  Uiso   1.00
O154   O     0.31427   0.70929   0.16666   0.00000  Uiso   1.00
O155   O     0.31427   0.79072   0.16666   0.00000  Uiso   1.00
O156   O     0.18573   0.70929   0.16667   0.00000  Uiso   1.00
C157   C     0.16474   0.75002   0.16815   0.00000  Uiso   1.00
C158   C     0.33478   0.75009   0.16671   0.00000  Uiso   1.00
O159   O     0.25000   0.79071   0.09613   0.00000  Uiso   1.00
O160   O     0.25000   0.70929   0.23720   0.00000  Uiso   1.00
O161   O     0.25000   0.79071   0.23720   0.00000  Uiso   1.00
O162   O     0.25000   0.70929   0.09613   0.00000  Uiso   1.00
C163   C     0.26924   0.55386   0.20670   0.00000  Uiso   1.00
C164   C     0.22919   0.94574   0.12682   0.00000  Uiso   1.00
C165   C     0.21523   0.55460   0.14130   0.00000  Uiso   1.00
C166   C     0.28436   0.94575   0.19118   0.00000  Uiso   1.00
C167   C     0.25002   0.75007   0.07359   0.00000  Uiso   1.00
C168   C     0.25010   0.74993   0.25974   0.00000  Uiso   1.00
Cu169  Cu    0.25000   0.79822   0.16667   0.00000  Uiso   1.00
Cu170  Cu    0.25000   0.70179   0.16667   0.00000  Uiso   1.00
N171   N     0.25000   0.62935   0.16667   0.00000  Uiso   1.00
N172   N     0.25000   0.87066   0.16667   0.00000  Uiso   1.00
C173   C     0.24678   0.52736   0.16922   0.00000  Uiso   1.00
C174   C     0.25215   0.97259   0.16373   0.00000  Uiso   1.00
C175   C     0.25012   0.75010   0.02187   0.00000  Uiso   1.00
C176   C     0.25014   0.74991   0.31147   0.00000  Uiso   1.00
C177   C     0.04528   0.79225   0.16490   0.00000  Uiso   1.00
C178   C     0.45339   0.72535   0.20259   0.00000  Uiso   1.00
C179   C     0.45036   0.77274   0.12759   0.00000  Uiso   1.00
C180   C     0.04627   0.70591   0.16887   0.00000  Uiso   1.00
H181   H     0.02605   0.82490   0.16431   0.00000  Uiso   1.00
H182   H     0.47254   0.70760   0.23182   0.00000  Uiso   1.00
H183   H     0.46706   0.79059   0.09809   0.00000  Uiso   1.00
H184   H     0.02856   0.67224   0.17019   0.00000  Uiso   1.00
C185   C     0.09153   0.79386   0.16835   0.00000  Uiso   1.00
C186   C     0.40753   0.72697   0.20458   0.00000  Uiso   1.00
C187   C     0.40435   0.77425   0.12854   0.00000  Uiso   1.00
C188   C     0.09226   0.70589   0.17220   0.00000  Uiso   1.00
C189   C     0.11574   0.74999   0.17010   0.00000  Uiso   1.00
C190   C     0.38282   0.75060   0.16676   0.00000  Uiso   1.00
C191   C     0.02295   0.74871   0.16479   0.00000  Uiso   1.00
C192   C     0.47477   0.74831   0.16445   0.00000  Uiso   1.00
C193   C     0.27376   0.60404   0.20212   0.00000  Uiso   1.00
C194   C     0.22526   0.89551   0.13166   0.00000  Uiso   1.00
C195   C     0.22004   0.60482   0.13707   0.00000  Uiso   1.00
C196   C     0.28024   0.89548   0.19551   0.00000  Uiso   1.00
Cl197  Cl    0.30970   0.63306   0.24445   0.00000  Uiso   1.00
Cl198  Cl    0.18904   0.86566   0.08990   0.00000  Uiso   1.00
Cl199  Cl    0.18521   0.63507   0.09387   0.00000  Uiso   1.00
Cl200  Cl    0.31626   0.86547   0.23765   0.00000  Uiso   1.00
N201   N     0.11377   0.83886   0.17343   0.00000  Uiso   1.00
H202   H     0.13037   0.84330   0.20693   0.00000  Uiso   1.00
C203   C     0.09290   0.88203   0.15412   0.00000  Uiso   1.00
H204   H     0.06633   0.89372   0.17839   0.00000  Uiso   1.00
H205   H     0.07939   0.87605   0.11608   0.00000  Uiso   1.00
H206   H     0.11780   0.91111   0.15294   0.00000  Uiso   1.00
N207   N     0.38665   0.70590   0.24535   0.00000  Uiso   1.00
H208   H     0.40341   0.67678   0.26027   0.00000  Uiso   1.00
C209   C     0.37453   0.73962   0.28277   0.00000  Uiso   1.00
H210   H     0.40458   0.75667   0.29962   0.00000  Uiso   1.00
H211   H     0.35678   0.72054   0.31199   0.00000  Uiso   1.00
H212   H     0.35228   0.76772   0.26689   0.00000  Uiso   1.00
N213   N     0.37974   0.79793   0.09003   0.00000  Uiso   1.00
H214   H     0.38991   0.78891   0.05550   0.00000  Uiso   1.00
C215   C     0.37682   0.84927   0.09593   0.00000  Uiso   1.00
H216   H     0.40988   0.86592   0.09261   0.00000  Uiso   1.00
H217   H     0.36374   0.85835   0.13234   0.00000  Uiso   1.00
H218   H     0.35407   0.86433   0.06685   0.00000  Uiso   1.00
N219   N     0.11432   0.66114   0.17845   0.00000  Uiso   1.00
H220   H     0.09891   0.63322   0.15994   0.00000  Uiso   1.00
C221   C     0.12551   0.64886   0.22916   0.00000  Uiso   1.00
H222   H     0.09500   0.64295   0.24978   0.00000  Uiso   1.00
H223   H     0.14535   0.67776   0.24719   0.00000  Uiso   1.00
H224   H     0.14544   0.61548   0.23043   0.00000  Uiso   1.00
Cl225  Cl    0.27661   0.52921   0.26668   0.00000  Uiso   1.00
Cl226  Cl    0.22087   0.96984   0.06675   0.00000  Uiso   1.00
Cl227  Cl    0.16174   0.53108   0.12851   0.00000  Uiso   1.00
Cl228  Cl    0.33745   0.97027   0.20413   0.00000  Uiso   1.00
O229   O     0.68573   0.79072   0.16667   0.00000  Uiso   1.00
O230   O     0.81427   0.70929   0.16666   0.00000  Uiso   1.00
O231   O     0.81427   0.79072   0.16666   0.00000  Uiso   1.00
O232   O     0.68573   0.70929   0.16667   0.00000  Uiso   1.00
C233   C     0.66474   0.75002   0.16815   0.00000  Uiso   1.00
C234   C     0.83478   0.75009   0.16671   0.00000  Uiso   1.00
O235   O     0.75000   0.79071   0.09613   0.00000  Uiso   1.00
O236   O     0.75000   0.70929   0.23720   0.00000  Uiso   1.00
O237   O     0.75000   0.79071   0.23720   0.00000  Uiso   1.00
O238   O     0.75000   0.70929   0.09613   0.00000  Uiso   1.00
C239   C     0.76924   0.55386   0.20670   0.00000  Uiso   1.00
C240   C     0.72919   0.94574   0.12682   0.00000  Uiso   1.00
C241   C     0.71523   0.55460   0.14130   0.00000  Uiso   1.00
C242   C     0.78436   0.94575   0.19118   0.00000  Uiso   1.00
C243   C     0.75002   0.75007   0.07359   0.00000  Uiso   1.00
C244   C     0.75010   0.74993   0.25974   0.00000  Uiso   1.00
Cu245  Cu    0.75000   0.79822   0.16667   0.00000  Uiso   1.00
Cu246  Cu    0.75000   0.70179   0.16667   0.00000  Uiso   1.00
N247   N     0.75000   0.62935   0.16667   0.00000  Uiso   1.00
N248   N     0.75000   0.87066   0.16667   0.00000  Uiso   1.00
C249   C     0.74678   0.52736   0.16922   0.00000  Uiso   1.00
C250   C     0.75215   0.97259   0.16373   0.00000  Uiso   1.00
C251   C     0.75012   0.75010   0.02187   0.00000  Uiso   1.00
C252   C     0.75014   0.74991   0.31147   0.00000  Uiso   1.00
C253   C     0.54528   0.79225   0.16490   0.00000  Uiso   1.00
C254   C     0.95339   0.72535   0.20259   0.00000  Uiso   1.00
C255   C     0.95036   0.77274   0.12759   0.00000  Uiso   1.00
C256   C     0.54627   0.70591   0.16887   0.00000  Uiso   1.00
H257   H     0.52605   0.82490   0.16431   0.00000  Uiso   1.00
H258   H     0.97254   0.70760   0.23182   0.00000  Uiso   1.00
H259   H     0.96706   0.79059   0.09809   0.00000  Uiso   1.00
H260   H     0.52856   0.67224   0.17019   0.00000  Uiso   1.00
C261   C     0.59153   0.79386   0.16835   0.00000  Uiso   1.00
C262   C     0.90753   0.72697   0.20458   0.00000  Uiso   1.00
C263   C     0.90435   0.77425   0.12854   0.00000  Uiso   1.00
C264   C     0.59226   0.70589   0.17220   0.00000  Uiso   1.00
C265   C     0.61574   0.74999   0.17010   0.00000  Uiso   1.00
C266   C     0.88282   0.75060   0.16676   0.00000  Uiso   1.00
C267   C     0.52295   0.74871   0.16479   0.00000  Uiso   1.00
C268   C     0.97477   0.74831   0.16445   0.00000  Uiso   1.00
C269   C     0.77376   0.60404   0.20212   0.00000  Uiso   1.00
C270   C     0.72526   0.89551   0.13166   0.00000  Uiso   1.00
C271   C     0.72004   0.60482   0.13707   0.00000  Uiso   1.00
C272   C     0.78024   0.89548   0.19551   0.00000  Uiso   1.00
Cl273  Cl    0.80970   0.63306   0.24445   0.00000  Uiso   1.00
Cl274  Cl    0.68904   0.86566   0.08990   0.00000  Uiso   1.00
Cl275  Cl    0.68521   0.63507   0.09387   0.00000  Uiso   1.00
Cl276  Cl    0.81626   0.86547   0.23765   0.00000  Uiso   1.00
N277   N     0.61377   0.83886   0.17343   0.00000  Uiso   1.00
H278   H     0.63037   0.84330   0.20693   0.00000  Uiso   1.00
C279   C     0.59290   0.88203   0.15412   0.00000  Uiso   1.00
H280   H     0.56633   0.89372   0.17839   0.00000  Uiso   1.00
H281   H     0.57939   0.87605   0.11608   0.00000  Uiso   1.00
H282   H     0.61780   0.91111   0.15294   0.00000  Uiso   1.00
N283   N     0.88665   0.70590   0.24535   0.00000  Uiso   1.00
H284   H     0.90341   0.67678   0.26027   0.00000  Uiso   1.00
C285   C     0.87453   0.73962   0.28277   0.00000  Uiso   1.00
H286   H     0.90458   0.75667   0.29962   0.00000  Uiso   1.00
H287   H     0.85678   0.72054   0.31199   0.00000  Uiso   1.00
H288   H     0.85228   0.76772   0.26689   0.00000  Uiso   1.00
N289   N     0.87974   0.79793   0.09003   0.00000  Uiso   1.00
H290   H     0.88991   0.78891   0.05550   0.00000  Uiso   1.00
C291   C     0.87682   0.84927   0.09593   0.00000  Uiso   1.00
H292   H     0.90988   0.86592   0.09261   0.00000  Uiso   1.00
H293   H     0.86374   0.85835   0.13234   0.00000  Uiso   1.00
H294   H     0.85407   0.86433   0.06685   0.00000  Uiso   1.00
N295   N     0.61432   0.66114   0.17845   0.00000  Uiso   1.00
H296   H     0.59891   0.63322   0.15994   0.00000  Uiso   1.00
C297   C     0.62551   0.64886   0.22916   0.00000  Uiso   1.00
H298   H     0.59500   0.64295   0.24978   0.00000  Uiso   1.00
H299   H     0.64535   0.67776   0.24719   0.00000  Uiso   1.00
H300   H     0.64544   0.61548   0.23043   0.00000  Uiso   1.00
Cl301  Cl    0.77661   0.52921   0.26668   0.00000  Uiso   1.00
Cl302  Cl    0.72087   0.96984   0.06675   0.00000  Uiso   1.00
Cl303  Cl    0.66174   0.53108   0.12851   0.00000  Uiso   1.00
Cl304  Cl    0.83745   0.97027   0.20413   0.00000  Uiso   1.00
O305   O     0.18573   0.29072   0.50000   0.00000  Uiso   1.00
O306   O     0.31427   0.20929   0.50000   0.00000  Uiso   1.00
O307   O     0.31427   0.29072   0.50000   0.00000  Uiso   1.00
O308   O     0.18573   0.20929   0.50000   0.00000  Uiso   1.00
C309   C     0.16474   0.25002   0.50148   0.00000  Uiso   1.00
C310   C     0.33478   0.25009   0.50005   0.00000  Uiso   1.00
O311   O     0.25000   0.29071   0.42946   0.00000  Uiso   1.00
O312   O     0.25000   0.20929   0.57054   0.00000  Uiso   1.00
O313   O     0.25000   0.29071   0.57054   0.00000  Uiso   1.00
O314   O     0.25000   0.20929   0.42946   0.00000  Uiso   1.00
C315   C     0.26924   0.05386   0.54004   0.00000  Uiso   1.00
C316   C     0.22919   0.44574   0.46016   0.00000  Uiso   1.00
C317   C     0.21523   0.05460   0.47463   0.00000  Uiso   1.00
C318   C     0.28436   0.44575   0.52451   0.00000  Uiso   1.00
C319   C     0.25002   0.25007   0.40693   0.00000  Uiso   1.00
C320   C     0.25010   0.24993   0.59308   0.00000  Uiso   1.00
Cu321  Cu    0.25000   0.29822   0.50000   0.00000  Uiso   1.00
Cu322  Cu    0.25000   0.20179   0.50000   0.00000  Uiso   1.00
N323   N     0.25000   0.12935   0.50000   0.00000  Uiso   1.00
N324   N     0.25000   0.37066   0.50000   0.00000  Uiso   1.00
C325   C     0.24678   0.02736   0.50256   0.00000  Uiso   1.00
C326   C     0.25215   0.47259   0.49707   0.00000  Uiso   1.00
C327   C     0.25012   0.25010   0.35520   0.00000  Uiso   1.00
C328   C     0.25014   0.24991   0.64480   0.00000  Uiso   1.00
C329   C     0.04528   0.29225   0.49824   0.00000  Uiso   1.00
C330   C     0.45339   0.22535   0.53592   0.00000  Uiso   1.00
C331   C     0.45036   0.27274   0.46092   0.00000  Uiso   1.00
C332   C     0.04627   0.20591   0.50220   0.00000  Uiso   1.00
H333   H     0.02605   0.32490   0.49765   0.00000  Uiso   1.00
H334   H     0.47254   0.20760   0.56515   0.00000  Uiso   1.00
H335   H     0.46706   0.29059   0.43143   0.00000  Uiso   1.00
H336   H     0.02856   0.17224   0.50353   0.00000  Uiso   1.00
C337   C     0.09153   0.29386   0.50168   0.00000  Uiso   1.00
C338   C     0.40753   0.22697   0.53791   0.00000  Uiso   1.00
C339   C     0.40435   0.27425   0.46187   0.00000  Uiso   1.00
C340   C     0.09226   0.20589   0.50554   0.00000  Uiso   1.00
C341   C     0.11574   0.24999   0.50344   0.00000  Uiso   1.00
C342   C     0.38282   0.25060   0.50010   0.00000  Uiso   1.00
C343   C     0.02295   0.24871   0.49813   0.00000  Uiso   1.00
C344   C     0.47477   0.24831   0.49778   0.00000  Uiso   1.00
C345   C     0.27376   0.10404   0.53546   0.00000  Uiso   1.00
C346   C     0.22526   0.39551   0.46499   0.00000  Uiso   1.00
C347   C     0.22004   0.10482   0.47040   0.00000  Uiso   1.00
C348   C     0.28024   0.39548   0.52884   0.00000  Uiso   1.00
Cl349  Cl    0.30970   0.13306   0.57778   0.00000  Uiso   1.00
Cl350  Cl    0.18904   0.36566   0.42323   0.00000  Uiso   1.00
Cl351  Cl    0.18521   0.13507   0.42720   0.00000  Uiso   1.00
Cl352  Cl    0.31626   0.36547   0.57098   0.00000  Uiso   1.00
N353   N     0.11377   0.33886   0.50676   0.00000  Uiso   1.00
H354   H     0.13037   0.34330   0.54026   0.00000  Uiso   1.00
C355   C     0.09290   0.38203   0.48746   0.00000  Uiso   1.00
H356   H     0.06633   0.39372   0.51173   0.00000  Uiso   1.00
H357   H     0.07939   0.37605   0.44941   0.00000  Uiso   1.00
H358   H     0.11780   0.41111   0.48627   0.00000  Uiso   1.00
N359   N     0.38665   0.20590   0.57868   0.00000  Uiso   1.00
H360   H     0.40341   0.17678   0.59360   0.00000  Uiso   1.00
C361   C     0.37453   0.23962   0.61611   0.00000  Uiso   1.00
H362   H     0.40458   0.25667   0.63295   0.00000  Uiso   1.00
H363   H     0.35678   0.22054   0.64532   0.00000  Uiso   1.00
H364   H     0.35228   0.26772   0.60023   0.00000  Uiso   1.00
N365   N     0.37974   0.29793   0.42337   0.00000  Uiso   1.00
H366   H     0.38991   0.28891   0.38884   0.00000  Uiso   1.00
C367   C     0.37682   0.34927   0.42927   0.00000  Uiso   1.00
H368   H     0.40988   0.36592   0.42594   0.00000  Uiso   1.00
H369   H     0.36374   0.35835   0.46567   0.00000  Uiso   1.00
H370   H     0.35407   0.36433   0.40018   0.00000  Uiso   1.00
N371   N     0.11432   0.16114   0.51178   0.00000  Uiso   1.00
H372   H     0.09891   0.13322   0.49328   0.00000  Uiso   1.00
C373   C     0.12551   0.14886   0.56250   0.00000  Uiso   1.00
H374   H     0.09500   0.14295   0.58311   0.00000  Uiso   1.00
H375   H     0.14535   0.17776   0.58052   0.00000  Uiso   1.00
H376   H     0.14544   0.11548   0.56376   0.00000  Uiso   1.00
Cl377  Cl    0.27661   0.02921   0.60002   0.00000  Uiso   1.00
Cl378  Cl    0.22087   0.46984   0.40008   0.00000  Uiso   1.00
Cl379  Cl    0.16174   0.03108   0.46184   0.00000  Uiso   1.00
Cl380  Cl    0.33745   0.47027   0.53746   0.00000  Uiso   1.00
O381   O     0.68573   0.29072   0.50000   0.00000  Uiso   1.00
O382   O     0.81427   0.20929   0.50000   0.00000  Uiso   1.00
O383   O     0.81427   0.29072   0.50000   0.00000  Uiso   1.00
O384   O     0.68573   0.20929   0.50000   0.00000  Uiso   1.00
C385   C     0.66474   0.25002   0.50148   0.00000  Uiso   1.00
C386   C     0.83478   0.25009   0.50005   0.00000  Uiso   1.00
O387   O     0.75000   0.29071   0.42946   0.00000  Uiso   1.00
O388   O     0.75000   0.20929   0.57054   0.00000  Uiso   1.00
O389   O     0.75000   0.29071   0.57054   0.00000  Uiso   1.00
O390   O     0.75000   0.20929   0.42946   0.00000  Uiso   1.00
C391   C     0.76924   0.05386   0.54004   0.00000  Uiso   1.00
C392   C     0.72919   0.44574   0.46016   0.00000  Uiso   1.00
C393   C     0.71523   0.05460   0.47463   0.00000  Uiso   1.00
C394   C     0.78436   0.44575   0.52451   0.00000  Uiso   1.00
C395   C     0.75002   0.25007   0.40693   0.00000  Uiso   1.00
C396   C     0.75010   0.24993   0.59308   0.00000  Uiso   1.00
Cu397  Cu    0.75000   0.29822   0.50000   0.00000  Uiso   1.00
Cu398  Cu    0.75000   0.20179   0.50000   0.00000  Uiso   1.00
N399   N     0.75000   0.12935   0.50000   0.00000  Uiso   1.00
N400   N     0.75000   0.37066   0.50000   0.00000  Uiso   1.00
C401   C     0.74678   0.02736   0.50256   0.00000  Uiso   1.00
C402   C     0.75215   0.47259   0.49707   0.00000  Uiso   1.00
C403   C     0.75012   0.25010   0.35520   0.00000  Uiso   1.00
C404   C     0.75014   0.24991   0.64480   0.00000  Uiso   1.00
C405   C     0.54528   0.29225   0.49824   0.00000  Uiso   1.00
C406   C     0.95339   0.22535   0.53592   0.00000  Uiso   1.00
C407   C     0.95036   0.27274   0.46092   0.00000  Uiso   1.00
C408   C     0.54627   0.20591   0.50220   0.00000  Uiso   1.00
H409   H     0.52605   0.32490   0.49765   0.00000  Uiso   1.00
H410   H     0.97254   0.20760   0.56515   0.00000  Uiso   1.00
H411   H     0.96706   0.29059   0.43143   0.00000  Uiso   1.00
H412   H     0.52856   0.17224   0.50353   0.00000  Uiso   1.00
C413   C     0.59153   0.29386   0.50168   0.00000  Uiso   1.00
C414   C     0.90753   0.22697   0.53791   0.00000  Uiso   1.00
C415   C     0.90435   0.27425   0.46187   0.00000  Uiso   1.00
C416   C     0.59226   0.20589   0.50554   0.00000  Uiso   1.00
C417   C     0.61574   0.24999   0.50344   0.00000  Uiso   1.00
C418   C     0.88282   0.25060   0.50010   0.00000  Uiso   1.00
C419   C     0.52295   0.24871   0.49813   0.00000  Uiso   1.00
C420   C     0.97477   0.24831   0.49778   0.00000  Uiso   1.00
C421   C     0.77376   0.10404   0.53546   0.00000  Uiso   1.00
C422   C     0.72526   0.39551   0.46499   0.00000  Uiso   1.00
C423   C     0.72004   0.10482   0.47040   0.00000  Uiso   1.00
C424   C     0.78024   0.39548   0.52884   0.00000  Uiso   1.00
Cl425  Cl    0.80970   0.13306   0.57778   0.00000  Uiso   1.00
Cl426  Cl    0.68904   0.36566   0.42323   0.00000  Uiso   1.00
Cl427  Cl    0.68521   0.13507   0.42720   0.00000  Uiso   1.00
Cl428  Cl    0.81626   0.36547   0.57098   0.00000  Uiso   1.00
N429   N     0.61377   0.33886   0.50676   0.00000  Uiso   1.00
H430   H     0.63037   0.34330   0.54026   0.00000  Uiso   1.00
C431   C     0.59290   0.38203   0.48746   0.00000  Uiso   1.00
H432   H     0.56633   0.39372   0.51173   0.00000  Uiso   1.00
H433   H     0.57939   0.37605   0.44941   0.00000  Uiso   1.00
H434   H     0.61780   0.41111   0.48627   0.00000  Uiso   1.00
N435   N     0.88665   0.20590   0.57868   0.00000  Uiso   1.00
H436   H     0.90341   0.17678   0.59360   0.00000  Uiso   1.00
C437   C     0.87453   0.23962   0.61611   0.00000  Uiso   1.00
H438   H     0.90458   0.25667   0.63295   0.00000  Uiso   1.00
H439   H     0.85678   0.22054   0.64532   0.00000  Uiso   1.00
H440   H     0.85228   0.26772   0.60023   0.00000  Uiso   1.00
N441   N     0.87974   0.29793   0.42337   0.00000  Uiso   1.00
H442   H     0.88991   0.28891   0.38884   0.00000  Uiso   1.00
C443   C     0.87682   0.34927   0.42927   0.00000  Uiso   1.00
H444   H     0.90988   0.36592   0.42594   0.00000  Uiso   1.00
H445   H     0.86374   0.35835   0.46567   0.00000  Uiso   1.00
H446   H     0.85407   0.36433   0.40018   0.00000  Uiso   1.00
N447   N     0.61432   0.16114   0.51178   0.00000  Uiso   1.00
H448   H     0.59891   0.13322   0.49328   0.00000  Uiso   1.00
C449   C     0.62551   0.14886   0.56250   0.00000  Uiso   1.00
H450   H     0.59500   0.14295   0.58311   0.00000  Uiso   1.00
H451   H     0.64535   0.17776   0.58052   0.00000  Uiso   1.00
H452   H     0.64544   0.11548   0.56376   0.00000  Uiso   1.00
Cl453  Cl    0.77661   0.02921   0.60002   0.00000  Uiso   1.00
Cl454  Cl    0.72087   0.46984   0.40008   0.00000  Uiso   1.00
Cl455  Cl    0.66174   0.03108   0.46184   0.00000  Uiso   1.00
Cl456  Cl    0.83745   0.47027   0.53746   0.00000  Uiso   1.00
O457   O     0.18573   0.79072   0.50000   0.00000  Uiso   1.00
O458   O     0.31427   0.70929   0.50000   0.00000  Uiso   1.00
O459   O     0.31427   0.79072   0.50000   0.00000  Uiso   1.00
O460   O     0.18573   0.70929   0.50000   0.00000  Uiso   1.00
C461   C     0.16474   0.75002   0.50148   0.00000  Uiso   1.00
C462   C     0.33478   0.75009   0.50005   0.00000  Uiso   1.00
O463   O     0.25000   0.79071   0.42946   0.00000  Uiso   1.00
O464   O     0.25000   0.70929   0.57054   0.00000  Uiso   1.00
O465   O     0.25000   0.79071   0.57054   0.00000  Uiso   1.00
O466   O     0.25000   0.70929   0.42946   0.00000  Uiso   1.00
C467   C     0.26924   0.55386   0.54004   0.00000  Uiso   1.00
C468   C     0.22919   0.94574   0.46016   0.00000  Uiso   1.00
C469   C     0.21523   0.55460   0.47463   0.00000  Uiso   1.00
C470   C     0.28436   0.94575   0.52451   0.00000  Uiso   1.00
C471   C     0.25002   0.75007   0.40693   0.00000  Uiso   1.00
C472   C     0.25010   0.74993   0.59308   0.00000  Uiso   1.00
Cu473  Cu    0.25000   0.79822   0.50000   0.00000  Uiso   1.00
Cu474  Cu    0.25000   0.70179   0.50000   0.00000  Uiso   1.00
N475   N     0.25000   0.62935   0.50000   0.00000  Uiso   1.00
N476   N     0.25000   0.87066   0.50000   0.00000  Uiso   1.00
C477   C     0.24678   0.52736   0.50256   0.00000  Uiso   1.00
C478   C     0.25215   0.97259   0.49707   0.00000  Uiso   1.00
C479   C     0.25012   0.75010   0.35520   0.00000  Uiso   1.00
C480   C     0.25014   0.74991   0.64480   0.00000  Uiso   1.00
C481   C     0.04528   0.79225   0.49824   0.00000  Uiso   1.00
C482   C     0.45339   0.72535   0.53592   0.00000  Uiso   1.00
C483   C     0.45036   0.77274   0.46092   0.00000  Uiso   1.00
C484   C     0.04627   0.70591   0.50220   0.00000  Uiso   1.00
H485   H     0.02605   0.82490   0.49765   0.00000  Uiso   1.00
H486   H     0.47254   0.70760   0.56515   0.00000  Uiso   1.00
H487   H     0.46706   0.79059   0.43143   0.00000  Uiso   1.00
H488   H     0.02856   0.67224   0.50353   0.00000  Uiso   1.00
C489   C     0.09153   0.79386   0.50168   0.00000  Uiso   1.00
C490   C     0.40753   0.72697   0.53791   0.00000  Uiso   1.00
C491   C     0.40435   0.77425   0.46187   0.00000  Uiso   1.00
C492   C     0.09226   0.70589   0.50554   0.00000  Uiso   1.00
C493   C     0.11574   0.74999   0.50344   0.00000  Uiso   1.00
C494   C     0.38282   0.75060   0.50010   0.00000  Uiso   1.00
C495   C     0.02295   0.74871   0.49813   0.00000  Uiso   1.00
C496   C     0.47477   0.74831   0.49778   0.00000  Uiso   1.00
C497   C     0.27376   0.60404   0.53546   0.00000  Uiso   1.00
C498   C     0.22526   0.89551   0.46499   0.00000  Uiso   1.00
C499   C     0.22004   0.60482   0.47040   0.00000  Uiso   1.00
C500   C     0.28024   0.89548   0.52884   0.00000  Uiso   1.00
Cl501  Cl    0.30970   0.63306   0.57778   0.00000  Uiso   1.00
Cl502  Cl    0.18904   0.86566   0.42323   0.00000  Uiso   1.00
Cl503  Cl    0.18521   0.63507   0.42720   0.00000  Uiso   1.00
Cl504  Cl    0.31626   0.86547   0.57098   0.00000  Uiso   1.00
N505   N     0.11377   0.83886   0.50676   0.00000  Uiso   1.00
H506   H     0.13037   0.84330   0.54026   0.00000  Uiso   1.00
C507   C     0.09290   0.88203   0.48746   0.00000  Uiso   1.00
H508   H     0.06633   0.89372   0.51173   0.00000  Uiso   1.00
H509   H     0.07939   0.87605   0.44941   0.00000  Uiso   1.00
H510   H     0.11780   0.91111   0.48627   0.00000  Uiso   1.00
N511   N     0.38665   0.70590   0.57868   0.00000  Uiso   1.00
H512   H     0.40341   0.67678   0.59360   0.00000  Uiso   1.00
C513   C     0.37453   0.73962   0.61611   0.00000  Uiso   1.00
H514   H     0.40458   0.75667   0.63295   0.00000  Uiso   1.00
H515   H     0.35678   0.72054   0.64532   0.00000  Uiso   1.00
H516   H     0.35228   0.76772   0.60023   0.00000  Uiso   1.00
N517   N     0.37974   0.79793   0.42337   0.00000  Uiso   1.00
H518   H     0.38991   0.78891   0.38884   0.00000  Uiso   1.00
C519   C     0.37682   0.84927   0.42927   0.00000  Uiso   1.00
H520   H     0.40988   0.86592   0.42594   0.00000  Uiso   1.00
H521   H     0.36374   0.85835   0.46567   0.00000  Uiso   1.00
H522   H     0.35407   0.86433   0.40018   0.00000  Uiso   1.00
N523   N     0.11432   0.66114   0.51178   0.00000  Uiso   1.00
H524   H     0.09891   0.63322   0.49328   0.00000  Uiso   1.00
C525   C     0.12551   0.64886   0.56250   0.00000  Uiso   1.00
H526   H     0.09500   0.64295   0.58311   0.00000  Uiso   1.00
H527   H     0.14535   0.67776   0.58052   0.00000  Uiso   1.00
H528   H     0.14544   0.61548   0.56376   0.00000  Uiso   1.00
Cl529  Cl    0.27661   0.52921   0.60002   0.00000  Uiso   1.00
Cl530  Cl    0.22087   0.96984   0.40008   0.00000  Uiso   1.00
Cl531  Cl    0.16174   0.53108   0.46184   0.00000  Uiso   1.00
Cl532  Cl    0.33745   0.97027   0.53746   0.00000  Uiso   1.00
O533   O     0.68573   0.79072   0.50000   0.00000  Uiso   1.00
O534   O     0.81427   0.70929   0.50000   0.00000  Uiso   1.00
O535   O     0.81427   0.79072   0.50000   0.00000  Uiso   1.00
O536   O     0.68573   0.70929   0.50000   0.00000  Uiso   1.00
C537   C     0.66474   0.75002   0.50148   0.00000  Uiso   1.00
C538   C     0.83478   0.75009   0.50005   0.00000  Uiso   1.00
O539   O     0.75000   0.79071   0.42946   0.00000  Uiso   1.00
O540   O     0.75000   0.70929   0.57054   0.00000  Uiso   1.00
O541   O     0.75000   0.79071   0.57054   0.00000  Uiso   1.00
O542   O     0.75000   0.70929   0.42946   0.00000  Uiso   1.00
C543   C     0.76924   0.55386   0.54004   0.00000  Uiso   1.00
C544   C     0.72919   0.94574   0.46016   0.00000  Uiso   1.00
C545   C     0.71523   0.55460   0.47463   0.00000  Uiso   1.00
C546   C     0.78436   0.94575   0.52451   0.00000  Uiso   1.00
C547   C     0.75002   0.75007   0.40693   0.00000  Uiso   1.00
C548   C     0.75010   0.74993   0.59308   0.00000  Uiso   1.00
Cu549  Cu    0.75000   0.79822   0.50000   0.00000  Uiso   1.00
Cu550  Cu    0.75000   0.70179   0.50000   0.00000  Uiso   1.00
N551   N     0.75000   0.62935   0.50000   0.00000  Uiso   1.00
N552   N     0.75000   0.87066   0.50000   0.00000  Uiso   1.00
C553   C     0.74678   0.52736   0.50256   0.00000  Uiso   1.00
C554   C     0.75215   0.97259   0.49707   0.00000  Uiso   1.00
C555   C     0.75012   0.75010   0.35520   0.00000  Uiso   1.00
C556   C     0.75014   0.74991   0.64480   0.00000  Uiso   1.00
C557   C     0.54528   0.79225   0.49824   0.00000  Uiso   1.00
C558   C     0.95339   0.72535   0.53592   0.00000  Uiso   1.00
C559   C     0.95036   0.77274   0.46092   0.00000  Uiso   1.00
C560   C     0.54627   0.70591   0.50220   0.00000  Uiso   1.00
H561   H     0.52605   0.82490   0.49765   0.00000  Uiso   1.00
H562   H     0.97254   0.70760   0.56515   0.00000  Uiso   1.00
H563   H     0.96706   0.79059   0.43143   0.00000  Uiso   1.00
H564   H     0.52856   0.67224   0.50353   0.00000  Uiso   1.00
C565   C     0.59153   0.79386   0.50168   0.00000  Uiso   1.00
C566   C     0.90753   0.72697   0.53791   0.00000  Uiso   1.00
C567   C     0.90435   0.77425   0.46187   0.00000  Uiso   1.00
C568   C     0.59226   0.70589   0.50554   0.00000  Uiso   1.00
C569   C     0.61574   0.74999   0.50344   0.00000  Uiso   1.00
C570   C     0.88282   0.75060   0.50010   0.00000  Uiso   1.00
C571   C     0.52295   0.74871   0.49813   0.00000  Uiso   1.00
C572   C     0.97477   0.74831   0.49778   0.00000  Uiso   1.00
C573   C     0.77376   0.60404   0.53546   0.00000  Uiso   1.00
C574   C     0.72526   0.89551   0.46499   0.00000  Uiso   1.00
C575   C     0.72004   0.60482   0.47040   0.00000  Uiso   1.00
C576   C     0.78024   0.89548   0.52884   0.00000  Uiso   1.00
Cl577  Cl    0.80970   0.63306   0.57778   0.00000  Uiso   1.00
Cl578  Cl    0.68904   0.86566   0.42323   0.00000  Uiso   1.00
Cl579  Cl    0.68521   0.63507   0.42720   0.00000  Uiso   1.00
Cl580  Cl    0.81626   0.86547   0.57098   0.00000  Uiso   1.00
N581   N     0.61377   0.83886   0.50676   0.00000  Uiso   1.00
H582   H     0.63037   0.84330   0.54026   0.00000  Uiso   1.00
C583   C     0.59290   0.88203   0.48746   0.00000  Uiso   1.00
H584   H     0.56633   0.89372   0.51173   0.00000  Uiso   1.00
H585   H     0.57939   0.87605   0.44941   0.00000  Uiso   1.00
H586   H     0.61780   0.91111   0.48627   0.00000  Uiso   1.00
N587   N     0.88665   0.70590   0.57868   0.00000  Uiso   1.00
H588   H     0.90341   0.67678   0.59360   0.00000  Uiso   1.00
C589   C     0.87453   0.73962   0.61611   0.00000  Uiso   1.00
H590   H     0.90458   0.75667   0.63295   0.00000  Uiso   1.00
H591   H     0.85678   0.72054   0.64532   0.00000  Uiso   1.00
H592   H     0.85228   0.76772   0.60023   0.00000  Uiso   1.00
N593   N     0.87974   0.79793   0.42337   0.00000  Uiso   1.00
H594   H     0.88991   0.78891   0.38884   0.00000  Uiso   1.00
C595   C     0.87682   0.84927   0.42927   0.00000  Uiso   1.00
H596   H     0.90988   0.86592   0.42594   0.00000  Uiso   1.00
H597   H     0.86374   0.85835   0.46567   0.00000  Uiso   1.00
H598   H     0.85407   0.86433   0.40018   0.00000  Uiso   1.00
N599   N     0.61432   0.66114   0.51178   0.00000  Uiso   1.00
H600   H     0.59891   0.63322   0.49328   0.00000  Uiso   1.00
C601   C     0.62551   0.64886   0.56250   0.00000  Uiso   1.00
H602   H     0.59500   0.64295   0.58311   0.00000  Uiso   1.00
H603   H     0.64535   0.67776   0.58052   0.00000  Uiso   1.00
H604   H     0.64544   0.61548   0.56376   0.00000  Uiso   1.00
Cl605  Cl    0.77661   0.52921   0.60002   0.00000  Uiso   1.00
Cl606  Cl    0.72087   0.96984   0.40008   0.00000  Uiso   1.00
Cl607  Cl    0.66174   0.53108   0.46184   0.00000  Uiso   1.00
Cl608  Cl    0.83745   0.97027   0.53746   0.00000  Uiso   1.00
O609   O     0.18573   0.29072   0.83334   0.00000  Uiso   1.00
O610   O     0.31427   0.20929   0.83333   0.00000  Uiso   1.00
O611   O     0.31427   0.29072   0.83333   0.00000  Uiso   1.00
O612   O     0.18573   0.20929   0.83334   0.00000  Uiso   1.00
C613   C     0.16474   0.25002   0.83482   0.00000  Uiso   1.00
C614   C     0.33478   0.25009   0.83338   0.00000  Uiso   1.00
O615   O     0.25000   0.29071   0.76280   0.00000  Uiso   1.00
O616   O     0.25000   0.20929   0.90387   0.00000  Uiso   1.00
O617   O     0.25000   0.29071   0.90387   0.00000  Uiso   1.00
O618   O     0.25000   0.20929   0.76280   0.00000  Uiso   1.00
C619   C     0.26924   0.05386   0.87337   0.00000  Uiso   1.00
C620   C     0.22919   0.44574   0.79349   0.00000  Uiso   1.00
C621   C     0.21523   0.05460   0.80796   0.00000  Uiso   1.00
C622   C     0.28436   0.44575   0.85785   0.00000  Uiso   1.00
C623   C     0.25002   0.25007   0.74026   0.00000  Uiso   1.00
C624   C     0.25010   0.24993   0.92641   0.00000  Uiso   1.00
Cu625  Cu    0.25000   0.29822   0.83333   0.00000  Uiso   1.00
Cu626  Cu    0.25000   0.20179   0.83333   0.00000  Uiso   1.00
N627   N     0.25000   0.12935   0.83333   0.00000  Uiso   1.00
N628   N     0.25000   0.37066   0.83333   0.00000  Uiso   1.00
C629   C     0.24678   0.02736   0.83589   0.00000  Uiso   1.00
C630   C     0.25215   0.47259   0.83040   0.00000  Uiso   1.00
C631   C     0.25012   0.25010   0.68853   0.00000  Uiso   1.00
C632   C     0.25014   0.24991   0.97814   0.00000  Uiso   1.00
C633   C     0.04528   0.29225   0.83157   0.00000  Uiso   1.00
C634   C     0.45339   0.22535   0.86926   0.00000  Uiso   1.00
C635   C     0.45036   0.27274   0.79425   0.00000  Uiso   1.00
C636   C     0.04627   0.20591   0.83554   0.00000  Uiso   1.00
H637   H     0.02605   0.32490   0.83098   0.00000  Uiso   1.00
H638   H     0.47254   0.20760   0.89849   0.00000  Uiso   1.00
H639   H     0.46706   0.29059   0.76476   0.00000  Uiso   1.00
H640   H     0.02856   0.17224   0.83686   0.00000  Uiso   1.00
C641   C     0.09153   0.29386   0.83501   0.00000  Uiso   1.00
C642   C     0.40753   0.22697   0.87124   0.00000  Uiso   1.00
C643   C     0.40435   0.27425   0.79521   0.00000  Uiso   1.00
C644   C     0.09226   0.20589   0.83887   0.00000  Uiso   1.00
C645   C     0.11574   0.24999   0.83677   0.00000  Uiso   1.00
C646   C     0.38282   0.25060   0.83343   0.00000  Uiso   1.00
C647   C     0.02295   0.24871   0.83146   0.00000  Uiso   1.00
C648   C     0.47477   0.24831   0.83112   0.00000  Uiso   1.00
C649   C     0.27376   0.10404   0.86879   0.00000  Uiso   1.00
C650   C     0.22526   0.39551   0.79833   0.00000  Uiso   1.00
C651   C     0.22004   0.10482   0.80373   0.00000  Uiso   1.00
C652   C     0.28024   0.39548   0.86218   0.00000  Uiso   1.00
Cl653  Cl    0.30970   0.13306   0.91111   0.00000  Uiso   1.00
Cl654  Cl    0.18904   0.36566   0.75657   0.00000  Uiso   1.00
Cl655  Cl    0.18521   0.13507   0.76053   0.00000  Uiso   1.00
Cl656  Cl    0.31626   0.36547   0.90432   0.00000  Uiso   1.00
N657   N     0.11377   0.33886   0.84010   0.00000  Uiso   1.00
H658   H     0.13037   0.34330   0.87359   0.00000  Uiso   1.00
C659   C     0.09290   0.38203   0.82079   0.00000  Uiso   1.00
H660   H     0.06633   0.39372   0.84506   0.00000  Uiso   1.00
H661   H     0.07939   0.37605   0.78274   0.00000  Uiso   1.00
H662   H     0.11780   0.41111   0.81961   0.00000  Uiso   1.00
N663   N     0.38665   0.20590   0.91202   0.00000  Uiso   1.00
H664   H     0.40341   0.17678   0.92694   0.00000  Uiso   1.00
C665   C     0.37453   0.23962   0.94944   0.00000  Uiso   1.00
H666   H     0.40458   0.25667   0.96629   0.00000  Uiso   1.00
H667   H     0.35678   0.22054   0.97866   0.00000  Uiso   1.00
H668   H     0.35228   0.26772   0.93356   0.00000  Uiso   1.00
N669   N     0.37974   0.29793   0.75670   0.00000  Uiso   1.00
H670   H     0.38991   0.28891   0.72217   0.00000  Uiso   1.00
C671   C     0.37682   0.34927   0.76260   0.00000  Uiso   1.00
H672   H     0.40988   0.36592   0.75927   0.00000  Uiso   1.00
H673   H     0.36374   0.35835   0.79900   0.00000  Uiso   1.00
H674   H     0.35407   0.36433   0.73352   0.00000  Uiso   1.00
N675   N     0.11432   0.16114   0.84511   0.00000  Uiso   1.00
H676   H     0.09891   0.13322   0.82661   0.00000  Uiso   1.00
C677   C     0.12551   0.14886   0.89583   0.00000  Uiso   1.00
H678   H     0.09500   0.14295   0.91644   0.00000  Uiso   1.00
H679   H     0.14535   0.17776   0.91385   0.00000  Uiso   1.00
H680   H     0.14544   0.11548   0.89709   0.00000  Uiso   1.00
Cl681  Cl    0.27661   0.02921   0.93335   0.00000  Uiso   1.00
Cl682  Cl    0.22087   0.46984   0.73342   0.00000  Uiso   1.00
Cl683  Cl    0.16174   0.03108   0.79518   0.00000  Uiso   1.00
Cl684  Cl    0.33745   0.47027   0.87079   0.00000  Uiso   1.00
O685   O     0.68573   0.29072   0.83334   0.00000  Uiso   1.00
O686   O     0.81427   0.20929   0.83333   0.00000  Uiso   1.00
O687   O     0.81427   0.29072   0.83333   0.00000  Uiso   1.00
O688   O     0.68573   0.20929   0.83334   0.00000  Uiso   1.00
C689   C     0.66474   0.25002   0.83482   0.00000  Uiso   1.00
C690   C     0.83478   0.25009   0.83338   0.00000  Uiso   1.00
O691   O     0.75000   0.29071   0.76280   0.00000  Uiso   1.00
O692   O     0.75000   0.20929   0.90387   0.00000  Uiso   1.00
O693   O     0.75000   0.29071   0.90387   0.00000  Uiso   1.00
O694   O     0.75000   0.20929   0.76280   0.00000  Uiso   1.00
C695   C     0.76924   0.05386   0.87337   0.00000  Uiso   1.00
C696   C     0.72919   0.44574   0.79349   0.00000  Uiso   1.00
C697   C     0.71523   0.05460   0.80796   0.00000  Uiso   1.00
C698   C     0.78436   0.44575   0.85785   0.00000  Uiso   1.00
C699   C     0.75002   0.25007   0.74026   0.00000  Uiso   1.00
C700   C     0.75010   0.24993   0.92641   0.00000  Uiso   1.00
Cu701  Cu    0.75000   0.29822   0.83333   0.00000  Uiso   1.00
Cu702  Cu    0.75000   0.20179   0.83333   0.00000  Uiso   1.00
N703   N     0.75000   0.12935   0.83333   0.00000  Uiso   1.00
N704   N     0.75000   0.37066   0.83333   0.00000  Uiso   1.00
C705   C     0.74678   0.02736   0.83589   0.00000  Uiso   1.00
C706   C     0.75215   0.47259   0.83040   0.00000  Uiso   1.00
C707   C     0.75012   0.25010   0.68853   0.00000  Uiso   1.00
C708   C     0.75014   0.24991   0.97814   0.00000  Uiso   1.00
C709   C     0.54528   0.29225   0.83157   0.00000  Uiso   1.00
C710   C     0.95339   0.22535   0.86926   0.00000  Uiso   1.00
C711   C     0.95036   0.27274   0.79425   0.00000  Uiso   1.00
C712   C     0.54627   0.20591   0.83554   0.00000  Uiso   1.00
H713   H     0.52605   0.32490   0.83098   0.00000  Uiso   1.00
H714   H     0.97254   0.20760   0.89849   0.00000  Uiso   1.00
H715   H     0.96706   0.29059   0.76476   0.00000  Uiso   1.00
H716   H     0.52856   0.17224   0.83686   0.00000  Uiso   1.00
C717   C     0.59153   0.29386   0.83501   0.00000  Uiso   1.00
C718   C     0.90753   0.22697   0.87124   0.00000  Uiso   1.00
C719   C     0.90435   0.27425   0.79521   0.00000  Uiso   1.00
C720   C     0.59226   0.20589   0.83887   0.00000  Uiso   1.00
C721   C     0.61574   0.24999   0.83677   0.00000  Uiso   1.00
C722   C     0.88282   0.25060   0.83343   0.00000  Uiso   1.00
C723   C     0.52295   0.24871   0.83146   0.00000  Uiso   1.00
C724   C     0.97477   0.24831   0.83112   0.00000  Uiso   1.00
C725   C     0.77376   0.10404   0.86879   0.00000  Uiso   1.00
C726   C     0.72526   0.39551   0.79833   0.00000  Uiso   1.00
C727   C     0.72004   0.10482   0.80373   0.00000  Uiso   1.00
C728   C     0.78024   0.39548   0.86218   0.00000  Uiso   1.00
Cl729  Cl    0.80970   0.13306   0.91111   0.00000  Uiso   1.00
Cl730  Cl    0.68904   0.36566   0.75657   0.00000  Uiso   1.00
Cl731  Cl    0.68521   0.13507   0.76053   0.00000  Uiso   1.00
Cl732  Cl    0.81626   0.36547   0.90432   0.00000  Uiso   1.00
N733   N     0.61377   0.33886   0.84010   0.00000  Uiso   1.00
H734   H     0.63037   0.34330   0.87359   0.00000  Uiso   1.00
C735   C     0.59290   0.38203   0.82079   0.00000  Uiso   1.00
H736   H     0.56633   0.39372   0.84506   0.00000  Uiso   1.00
H737   H     0.57939   0.37605   0.78274   0.00000  Uiso   1.00
H738   H     0.61780   0.41111   0.81961   0.00000  Uiso   1.00
N739   N     0.88665   0.20590   0.91202   0.00000  Uiso   1.00
H740   H     0.90341   0.17678   0.92694   0.00000  Uiso   1.00
C741   C     0.87453   0.23962   0.94944   0.00000  Uiso   1.00
H742   H     0.90458   0.25667   0.96629   0.00000  Uiso   1.00
H743   H     0.85678   0.22054   0.97866   0.00000  Uiso   1.00
H744   H     0.85228   0.26772   0.93356   0.00000  Uiso   1.00
N745   N     0.87974   0.29793   0.75670   0.00000  Uiso   1.00
H746   H     0.88991   0.28891   0.72217   0.00000  Uiso   1.00
C747   C     0.87682   0.34927   0.76260   0.00000  Uiso   1.00
H748   H     0.90988   0.36592   0.75927   0.00000  Uiso   1.00
H749   H     0.86374   0.35835   0.79900   0.00000  Uiso   1.00
H750   H     0.85407   0.36433   0.73352   0.00000  Uiso   1.00
N751   N     0.61432   0.16114   0.84511   0.00000  Uiso   1.00
H752   H     0.59891   0.13322   0.82661   0.00000  Uiso   1.00
C753   C     0.62551   0.14886   0.89583   0.00000  Uiso   1.00
H754   H     0.59500   0.14295   0.91644   0.00000  Uiso   1.00
H755   H     0.64535   0.17776   0.91385   0.00000  Uiso   1.00
H756   H     0.64544   0.11548   0.89709   0.00000  Uiso   1.00
Cl757  Cl    0.77661   0.02921   0.93335   0.00000  Uiso   1.00
Cl758  Cl    0.72087   0.46984   0.73342   0.00000  Uiso   1.00
Cl759  Cl    0.66174   0.03108   0.79518   0.00000  Uiso   1.00
Cl760  Cl    0.83745   0.47027   0.87079   0.00000  Uiso   1.00
O761   O     0.18573   0.79072   0.83334   0.00000  Uiso   1.00
O762   O     0.31427   0.70929   0.83333   0.00000  Uiso   1.00
O763   O     0.31427   0.79072   0.83333   0.00000  Uiso   1.00
O764   O     0.18573   0.70929   0.83334   0.00000  Uiso   1.00
C765   C     0.16474   0.75002   0.83482   0.00000  Uiso   1.00
C766   C     0.33478   0.75009   0.83338   0.00000  Uiso   1.00
O767   O     0.25000   0.79071   0.76280   0.00000  Uiso   1.00
O768   O     0.25000   0.70929   0.90387   0.00000  Uiso   1.00
O769   O     0.25000   0.79071   0.90387   0.00000  Uiso   1.00
O770   O     0.25000   0.70929   0.76280   0.00000  Uiso   1.00
C771   C     0.26924   0.55386   0.87337   0.00000  Uiso   1.00
C772   C     0.22919   0.94574   0.79349   0.00000  Uiso   1.00
C773   C     0.21523   0.55460   0.80796   0.00000  Uiso   1.00
C774   C     0.28436   0.94575   0.85785   0.00000  Uiso   1.00
C775   C     0.25002   0.75007   0.74026   0.00000  Uiso   1.00
C776   C     0.25010   0.74993   0.92641   0.00000  Uiso   1.00
Cu777  Cu    0.25000   0.79822   0.83333   0.00000  Uiso   1.00
Cu778  Cu    0.25000   0.70179   0.83333   0.00000  Uiso   1.00
N779   N     0.25000   0.62935   0.83333   0.00000  Uiso   1.00
N780   N     0.25000   0.87066   0.83333   0.00000  Uiso   1.00
C781   C     0.24678   0.52736   0.83589   0.00000  Uiso   1.00
C782   C     0.25215   0.97259   0.83040   0.00000  Uiso   1.00
C783   C     0.25012   0.75010   0.68853   0.00000  Uiso   1.00
C784   C     0.25014   0.74991   0.97814   0.00000  Uiso   1.00
C785   C     0.04528   0.79225   0.83157   0.00000  Uiso   1.00
C786   C     0.45339   0.72535   0.86926   0.00000  Uiso   1.00
C787   C     0.45036   0.77274   0.79425   0.00000  Uiso   1.00
C788   C     0.04627   0.70591   0.83554   0.00000  Uiso   1.00
H789   H     0.02605   0.82490   0.83098   0.00000  Uiso   1.00
H790   H     0.47254   0.70760   0.89849   0.00000  Uiso   1.00
H791   H     0.46706   0.79059   0.76476   0.00000  Uiso   1.00
H792   H     0.02856   0.67224   0.83686   0.00000  Uiso   1.00
C793   C     0.09153   0.79386   0.83501   0.00000  Uiso   1.00
C794   C     0.40753   0.72697   0.87124   0.00000  Uiso   1.00
C795   C     0.40435   0.77425   0.79521   0.00000  Uiso   1.00
C796   C     0.09226   0.70589   0.83887   0.00000  Uiso   1.00
C797   C     0.11574   0.74999   0.83677   0.00000  Uiso   1.00
C798   C     0.38282   0.75060   0.83343   0.00000  Uiso   1.00
C799   C     0.02295   0.74871   0.83146   0.00000  Uiso   1.00
C800   C     0.47477   0.74831   0.83112   0.00000  Uiso   1.00
C801   C     0.27376   0.60404   0.86879   0.00000  Uiso   1.00
C802   C     0.22526   0.89551   0.79833   0.00000  Uiso   1.00
C803   C     0.22004   0.60482   0.80373   0.00000  Uiso   1.00
C804   C     0.28024   0.89548   0.86218   0.00000  Uiso   1.00
Cl805  Cl    0.30970   0.63306   0.91111   0.00000  Uiso   1.00
Cl806  Cl    0.18904   0.86566   0.75657   0.00000  Uiso   1.00
Cl807  Cl    0.18521   0.63507   0.76053   0.00000  Uiso   1.00
Cl808  Cl    0.31626   0.86547   0.90432   0.00000  Uiso   1.00
N809   N     0.11377   0.83886   0.84010   0.00000  Uiso   1.00
H810   H     0.13037   0.84330   0.87359   0.00000  Uiso   1.00
C811   C     0.09290   0.88203   0.82079   0.00000  Uiso   1.00
H812   H     0.06633   0.89372   0.84506   0.00000  Uiso   1.00
H813   H     0.07939   0.87605   0.78274   0.00000  Uiso   1.00
H814   H     0.11780   0.91111   0.81961   0.00000  Uiso   1.00
N815   N     0.38665   0.70590   0.91202   0.00000  Uiso   1.00
H816   H     0.40341   0.67678   0.92694   0.00000  Uiso   1.00
C817   C     0.37453   0.73962   0.94944   0.00000  Uiso   1.00
H818   H     0.40458   0.75667   0.96629   0.00000  Uiso   1.00
H819   H     0.35678   0.72054   0.97866   0.00000  Uiso   1.00
H820   H     0.35228   0.76772   0.93356   0.00000  Uiso   1.00
N821   N     0.37974   0.79793   0.75670   0.00000  Uiso   1.00
H822   H     0.38991   0.78891   0.72217   0.00000  Uiso   1.00
C823   C     0.37682   0.84927   0.76260   0.00000  Uiso   1.00
H824   H     0.40988   0.86592   0.75927   0.00000  Uiso   1.00
H825   H     0.36374   0.85835   0.79900   0.00000  Uiso   1.00
H826   H     0.35407   0.86433   0.73352   0.00000  Uiso   1.00
N827   N     0.11432   0.66114   0.84511   0.00000  Uiso   1.00
H828   H     0.09891   0.63322   0.82661   0.00000  Uiso   1.00
C829   C     0.12551   0.64886   0.89583   0.00000  Uiso   1.00
H830   H     0.09500   0.64295   0.91644   0.00000  Uiso   1.00
H831   H     0.14535   0.67776   0.91385   0.00000  Uiso   1.00
H832   H     0.14544   0.61548   0.89709   0.00000  Uiso   1.00
Cl833  Cl    0.27661   0.52921   0.93335   0.00000  Uiso   1.00
Cl834  Cl    0.22087   0.96984   0.73342   0.00000  Uiso   1.00
Cl835  Cl    0.16174   0.53108   0.79518   0.00000  Uiso   1.00
Cl836  Cl    0.33745   0.97027   0.87079   0.00000  Uiso   1.00
O837   O     0.68573   0.79072   0.83334   0.00000  Uiso   1.00
O838   O     0.81427   0.70929   0.83333   0.00000  Uiso   1.00
O839   O     0.81427   0.79072   0.83333   0.00000  Uiso   1.00
O840   O     0.68573   0.70929   0.83334   0.00000  Uiso   1.00
C841   C     0.66474   0.75002   0.83482   0.00000  Uiso   1.00
C842   C     0.83478   0.75009   0.83338   0.00000  Uiso   1.00
O843   O     0.75000   0.79071   0.76280   0.00000  Uiso   1.00
O844   O     0.75000   0.70929   0.90387   0.00000  Uiso   1.00
O845   O     0.75000   0.79071   0.90387   0.00000  Uiso   1.00
O846   O     0.75000   0.70929   0.76280   0.00000  Uiso   1.00
C847   C     0.76924   0.55386   0.87337   0.00000  Uiso   1.00
C848   C     0.72919   0.94574   0.79349   0.00000  Uiso   1.00
C849   C     0.71523   0.55460   0.80796   0.00000  Uiso   1.00
C850   C     0.78436   0.94575   0.85785   0.00000  Uiso   1.00
C851   C     0.75002   0.75007   0.74026   0.00000  Uiso   1.00
C852   C     0.75010   0.74993   0.92641   0.00000  Uiso   1.00
Cu853  Cu    0.75000   0.79822   0.83333   0.00000  Uiso   1.00
Cu854  Cu    0.75000   0.70179   0.83333   0.00000  Uiso   1.00
N855   N     0.75000   0.62935   0.83333   0.00000  Uiso   1.00
N856   N     0.75000   0.87066   0.83333   0.00000  Uiso   1.00
C857   C     0.74678   0.52736   0.83589   0.00000  Uiso   1.00
C858   C     0.75215   0.97259   0.83040   0.00000  Uiso   1.00
C859   C     0.75012   0.75010   0.68853   0.00000  Uiso   1.00
C860   C     0.75014   0.74991   0.97814   0.00000  Uiso   1.00
C861   C     0.54528   0.79225   0.83157   0.00000  Uiso   1.00
C862   C     0.95339   0.72535   0.86926   0.00000  Uiso   1.00
C863   C     0.95036   0.77274   0.79425   0.00000  Uiso   1.00
C864   C     0.54627   0.70591   0.83554   0.00000  Uiso   1.00
H865   H     0.52605   0.82490   0.83098   0.00000  Uiso   1.00
H866   H     0.97254   0.70760   0.89849   0.00000  Uiso   1.00
H867   H     0.96706   0.79059   0.76476   0.00000  Uiso   1.00
H868   H     0.52856   0.67224   0.83686   0.00000  Uiso   1.00
C869   C     0.59153   0.79386   0.83501   0.00000  Uiso   1.00
C870   C     0.90753   0.72697   0.87124   0.00000  Uiso   1.00
C871   C     0.90435   0.77425   0.79521   0.00000  Uiso   1.00
C872   C     0.59226   0.70589   0.83887   0.00000  Uiso   1.00
C873   C     0.61574   0.74999   0.83677   0.00000  Uiso   1.00
C874   C     0.88282   0.75060   0.83343   0.00000  Uiso   1.00
C875   C     0.52295   0.74871   0.83146   0.00000  Uiso   1.00
C876   C     0.97477   0.74831   0.83112   0.00000  Uiso   1.00
C877   C     0.77376   0.60404   0.86879   0.00000  Uiso   1.00
C878   C     0.72526   0.89551   0.79833   0.00000  Uiso   1.00
C879   C     0.72004   0.60482   0.80373   0.00000  Uiso   1.00
C880   C     0.78024   0.89548   0.86218   0.00000  Uiso   1.00
Cl881  Cl    0.80970   0.63306   0.91111   0.00000  Uiso   1.00
Cl882  Cl    0.68904   0.86566   0.75657   0.00000  Uiso   1.00
Cl883  Cl    0.68521   0.63507   0.76053   0.00000  Uiso   1.00
Cl884  Cl    0.81626   0.86547   0.90432   0.00000  Uiso   1.00
N885   N     0.61377   0.83886   0.84010   0.00000  Uiso   1.00
H886   H     0.63037   0.84330   0.87359   0.00000  Uiso   1.00
C887   C     0.59290   0.88203   0.82079   0.00000  Uiso   1.00
H888   H     0.56633   0.89372   0.84506   0.00000  Uiso   1.00
H889   H     0.57939   0.87605   0.78274   0.00000  Uiso   1.00
H890   H     0.61780   0.91111   0.81961   0.00000  Uiso   1.00
N891   N     0.88665   0.70590   0.91202   0.00000  Uiso   1.00
H892   H     0.90341   0.67678   0.92694   0.00000  Uiso   1.00
C893   C     0.87453   0.73962   0.94944   0.00000  Uiso   1.00
H894   H     0.90458   0.75667   0.96629   0.00000  Uiso   1.00
H895   H     0.85678   0.72054   0.97866   0.00000  Uiso   1.00
H896   H     0.85228   0.76772   0.93356   0.00000  Uiso   1.00
N897   N     0.87974   0.79793   0.75670   0.00000  Uiso   1.00
H898   H     0.88991   0.78891   0.72217   0.00000  Uiso   1.00
C899   C     0.87682   0.84927   0.76260   0.00000  Uiso   1.00
H900   H     0.90988   0.86592   0.75927   0.00000  Uiso   1.00
H901   H     0.86374   0.85835   0.79900   0.00000  Uiso   1.00
H902   H     0.85407   0.86433   0.73352   0.00000  Uiso   1.00
N903   N     0.61432   0.66114   0.84511   0.00000  Uiso   1.00
H904   H     0.59891   0.63322   0.82661   0.00000  Uiso   1.00
C905   C     0.62551   0.64886   0.89583   0.00000  Uiso   1.00
H906   H     0.59500   0.64295   0.91644   0.00000  Uiso   1.00
H907   H     0.64535   0.67776   0.91385   0.00000  Uiso   1.00
H908   H     0.64544   0.61548   0.89709   0.00000  Uiso   1.00
Cl909  Cl    0.77661   0.52921   0.93335   0.00000  Uiso   1.00
Cl910  Cl    0.72087   0.96984   0.73342   0.00000  Uiso   1.00
Cl911  Cl    0.66174   0.53108   0.79518   0.00000  Uiso   1.00
Cl912  Cl    0.83745   0.97027   0.87079   0.00000  Uiso   1.00
loop_
_geom_bond_atom_site_label_1
_geom_bond_atom_site_label_2
_geom_bond_distance
_geom_bond_site_symmetry_2
_ccdc_geom_bond_type
O1     C5      1.304   .     A
O1     Cu17    1.960   .     S
O2     Cu18    1.960   .     S
O2     C6      1.298   .     A
O3     C6      1.294   .     A
O3     Cu17    1.960   .     S
O4     Cu18    1.960   .     S
O4     C5      1.305   .     A
C5     C37     1.488   .     S
C6     C38     1.456   .     S
O7     Cu17    1.930   .     S
O7     C15     1.293   .     A
O8     C16     1.293   .     A
O8     Cu18    1.930   .     S
O9     C16     1.291   .     A
O9     Cu17    1.928   .     S
O10    C15     1.291   .     A
O10    Cu18    1.928   .     S
C11    C41     1.414   .     A
C11    Cl73    1.773   .     S
C11    C21     1.416   .     A
C12    Cl74    1.773   .     S
C12    C22     1.417   .     A
C12    C42     1.414   .     A
C13    Cl75    1.772   .     S
C13    C21     1.417   .     A
C13    C43     1.415   .     A
C14    Cl76    1.772   .     S
C14    C44     1.414   .     A
C14    C22     1.418   .     A
C15    C23     1.406   .     S
C16    C24     1.406   .     S
Cu17   N20     2.023   .     S
Cu17   Cu18    2.694   .     S
Cu18   N19     2.023   .     S
N19    C43     1.375   .     A
N19    C41     1.374   .     A
N20    C44     1.373   .     A
N20    C42     1.375   .     A
C21    C174    1.547   1_545 S
C22    C173    1.547   .     S
C23    C632    1.189   1_554 S
C24    C327    1.189   .     S
C25    H29     1.082   .     S
C25    C39     1.392   .     A
C25    C33     1.402   .     A
C26    C34     1.394   .     A
C26    H30     1.084   .     S
C26    C40     1.397   .     A
C27    H31     1.084   .     S
C27    C35     1.396   .     A
C27    C40     1.398   .     A
C28    H32     1.084   .     S
C28    C39     1.391   .     A
C28    C36     1.393   .     A
C33    N49     1.431   .     S
C33    C37     1.428   .     A
C34    N55     1.423   .     S
C34    C38     1.410   .     A
C35    C38     1.410   .     A
C35    N61     1.423   .     S
C36    N67     1.424   .     S
C36    C37     1.425   .     A
C39    C116    1.460   1_455 S
C40    C115    1.460   .     S
C41    Cl45    1.756   .     S
C42    Cl46    1.762   .     S
C43    Cl47    1.762   .     S
C44    Cl48    1.762   .     S
N49    C51     1.448   .     S
N49    H50     1.032   .     S
C51    H52     1.111   .     S
C51    H53     1.111   .     S
C51    H54     1.110   .     S
N55    H56     1.032   .     S
N55    C57     1.447   .     S
C57    H59     1.111   .     S
C57    H60     1.110   .     S
C57    H58     1.112   .     S
N61    C63     1.447   .     S
N61    H62     1.031   .     S
C63    H65     1.111   .     S
C63    H66     1.110   .     S
C63    H64     1.112   .     S
N67    H68     1.032   .     S
N67    C69     1.447   .     S
C69    H71     1.111   .     S
C69    H72     1.111   .     S
C69    H70     1.112   .     S
O77    C81     1.304   .     A
O77    Cu93    1.960   .     S
O78    Cu94    1.960   .     S
O78    C82     1.298   .     A
O79    C82     1.294   .     A
O79    Cu93    1.960   .     S
O80    Cu94    1.960   .     S
O80    C81     1.305   .     A
C81    C113    1.488   .     S
C82    C114    1.456   .     S
O83    Cu93    1.930   .     S
O83    C91     1.293   .     A
O84    C92     1.293   .     A
O84    Cu94    1.930   .     S
O85    C92     1.291   .     A
O85    Cu93    1.928   .     S
O86    C91     1.291   .     A
O86    Cu94    1.928   .     S
C87    C117    1.414   .     A
C87    Cl149   1.773   .     S
C87    C97     1.416   .     A
C88    Cl150   1.773   .     S
C88    C98     1.417   .     A
C88    C118    1.414   .     A
C89    Cl151   1.772   .     S
C89    C97     1.417   .     A
C89    C119    1.415   .     A
C90    Cl152   1.772   .     S
C90    C120    1.414   .     A
C90    C98     1.418   .     A
C91    C99     1.406   .     S
C92    C100    1.406   .     S
Cu93   N96     2.023   .     S
Cu93   Cu94    2.694   .     S
Cu94   N95     2.023   .     S
N95    C119    1.375   .     A
N95    C117    1.374   .     A
N96    C120    1.373   .     A
N96    C118    1.375   .     A
C97    C250    1.547   1_545 S
C98    C249    1.547   .     S
C99    C708    1.189   1_554 S
C100   C403    1.189   .     S
C101   H105    1.082   .     S
C101   C115    1.392   .     A
C101   C109    1.402   .     A
C102   C110    1.394   .     A
C102   H106    1.084   .     S
C102   C116    1.397   .     A
C103   H107    1.084   .     S
C103   C111    1.396   .     A
C103   C116    1.398   .     A
C104   H108    1.084   .     S
C104   C115    1.391   .     A
C104   C112    1.393   .     A
C109   N125    1.431   .     S
C109   C113    1.428   .     A
C110   N131    1.423   .     S
C110   C114    1.410   .     A
C111   C114    1.410   .     A
C111   N137    1.423   .     S
C112   N143    1.424   .     S
C112   C113    1.425   .     A
C116   C39     1.460   1_655 S
C117   Cl121   1.756   .     S
C118   Cl122   1.762   .     S
C119   Cl123   1.762   .     S
C120   Cl124   1.762   .     S
N125   C127    1.448   .     S
N125   H126    1.032   .     S
C127   H128    1.111   .     S
C127   H129    1.111   .     S
C127   H130    1.110   .     S
N131   H132    1.032   .     S
N131   C133    1.447   .     S
C133   H135    1.111   .     S
C133   H136    1.110   .     S
C133   H134    1.112   .     S
N137   C139    1.447   .     S
N137   H138    1.031   .     S
C139   H141    1.111   .     S
C139   H142    1.110   .     S
C139   H140    1.112   .     S
N143   H144    1.032   .     S
N143   C145    1.447   .     S
C145   H147    1.111   .     S
C145   H148    1.111   .     S
C145   H146    1.112   .     S
O153   C157    1.304   .     A
O153   Cu169   1.960   .     S
O154   Cu170   1.960   .     S
O154   C158    1.298   .     A
O155   C158    1.294   .     A
O155   Cu169   1.960   .     S
O156   Cu170   1.960   .     S
O156   C157    1.305   .     A
C157   C189    1.488   .     S
C158   C190    1.456   .     S
O159   Cu169   1.930   .     S
O159   C167    1.293   .     A
O160   C168    1.293   .     A
O160   Cu170   1.930   .     S
O161   C168    1.291   .     A
O161   Cu169   1.928   .     S
O162   C167    1.291   .     A
O162   Cu170   1.928   .     S
C163   C193    1.414   .     A
C163   Cl225   1.773   .     S
C163   C173    1.416   .     A
C164   Cl226   1.773   .     S
C164   C174    1.417   .     A
C164   C194    1.414   .     A
C165   Cl227   1.772   .     S
C165   C173    1.417   .     A
C165   C195    1.415   .     A
C166   Cl228   1.772   .     S
C166   C196    1.414   .     A
C166   C174    1.418   .     A
C167   C175    1.406   .     S
C168   C176    1.406   .     S
Cu169  N172    2.023   .     S
Cu169  Cu170   2.694   .     S
Cu170  N171    2.023   .     S
N171   C195    1.375   .     A
N171   C193    1.374   .     A
N172   C196    1.373   .     A
N172   C194    1.375   .     A
C174   C21     1.547   1_565 S
C175   C784    1.189   1_554 S
C176   C479    1.189   .     S
C177   H181    1.082   .     S
C177   C191    1.392   .     A
C177   C185    1.402   .     A
C178   C186    1.394   .     A
C178   H182    1.084   .     S
C178   C192    1.397   .     A
C179   H183    1.084   .     S
C179   C187    1.396   .     A
C179   C192    1.398   .     A
C180   H184    1.084   .     S
C180   C191    1.391   .     A
C180   C188    1.393   .     A
C185   N201    1.431   .     S
C185   C189    1.428   .     A
C186   N207    1.423   .     S
C186   C190    1.410   .     A
C187   C190    1.410   .     A
C187   N213    1.423   .     S
C188   N219    1.424   .     S
C188   C189    1.425   .     A
C191   C268    1.460   1_455 S
C192   C267    1.460   .     S
C193   Cl197   1.756   .     S
C194   Cl198   1.762   .     S
C195   Cl199   1.762   .     S
C196   Cl200   1.762   .     S
N201   C203    1.448   .     S
N201   H202    1.032   .     S
C203   H204    1.111   .     S
C203   H205    1.111   .     S
C203   H206    1.110   .     S
N207   H208    1.032   .     S
N207   C209    1.447   .     S
C209   H211    1.111   .     S
C209   H212    1.110   .     S
C209   H210    1.112   .     S
N213   C215    1.447   .     S
N213   H214    1.031   .     S
C215   H217    1.111   .     S
C215   H218    1.110   .     S
C215   H216    1.112   .     S
N219   H220    1.032   .     S
N219   C221    1.447   .     S
C221   H223    1.111   .     S
C221   H224    1.111   .     S
C221   H222    1.112   .     S
O229   C233    1.304   .     A
O229   Cu245   1.960   .     S
O230   Cu246   1.960   .     S
O230   C234    1.298   .     A
O231   C234    1.294   .     A
O231   Cu245   1.960   .     S
O232   Cu246   1.960   .     S
O232   C233    1.305   .     A
C233   C265    1.488   .     S
C234   C266    1.456   .     S
O235   Cu245   1.930   .     S
O235   C243    1.293   .     A
O236   C244    1.293   .     A
O236   Cu246   1.930   .     S
O237   C244    1.291   .     A
O237   Cu245   1.928   .     S
O238   C243    1.291   .     A
O238   Cu246   1.928   .     S
C239   C269    1.414   .     A
C239   Cl301   1.773   .     S
C239   C249    1.416   .     A
C240   Cl302   1.773   .     S
C240   C250    1.417   .     A
C240   C270    1.414   .     A
C241   Cl303   1.772   .     S
C241   C249    1.417   .     A
C241   C271    1.415   .     A
C242   Cl304   1.772   .     S
C242   C272    1.414   .     A
C242   C250    1.418   .     A
C243   C251    1.406   .     S
C244   C252    1.406   .     S
Cu245  N248    2.023   .     S
Cu245  Cu246   2.694   .     S
Cu246  N247    2.023   .     S
N247   C271    1.375   .     A
N247   C269    1.374   .     A
N248   C272    1.373   .     A
N248   C270    1.375   .     A
C250   C97     1.547   1_565 S
C251   C860    1.189   1_554 S
C252   C555    1.189   .     S
C253   H257    1.082   .     S
C253   C267    1.392   .     A
C253   C261    1.402   .     A
C254   C262    1.394   .     A
C254   H258    1.084   .     S
C254   C268    1.397   .     A
C255   H259    1.084   .     S
C255   C263    1.396   .     A
C255   C268    1.398   .     A
C256   H260    1.084   .     S
C256   C267    1.391   .     A
C256   C264    1.393   .     A
C261   N277    1.431   .     S
C261   C265    1.428   .     A
C262   N283    1.423   .     S
C262   C266    1.410   .     A
C263   C266    1.410   .     A
C263   N289    1.423   .     S
C264   N295    1.424   .     S
C264   C265    1.425   .     A
C268   C191    1.460   1_655 S
C269   Cl273   1.756   .     S
C270   Cl274   1.762   .     S
C271   Cl275   1.762   .     S
C272   Cl276   1.762   .     S
N277   C279    1.448   .     S
N277   H278    1.032   .     S
C279   H280    1.111   .     S
C279   H281    1.111   .     S
C279   H282    1.110   .     S
N283   H284    1.032   .     S
N283   C285    1.447   .     S
C285   H287    1.111   .     S
C285   H288    1.110   .     S
C285   H286    1.112   .     S
N289   C291    1.447   .     S
N289   H290    1.031   .     S
C291   H293    1.111   .     S
C291   H294    1.110   .     S
C291   H292    1.112   .     S
N295   H296    1.032   .     S
N295   C297    1.447   .     S
C297   H299    1.111   .     S
C297   H300    1.111   .     S
C297   H298    1.112   .     S
O305   C309    1.304   .     A
O305   Cu321   1.960   .     S
O306   Cu322   1.960   .     S
O306   C310    1.298   .     A
O307   C310    1.294   .     A
O307   Cu321   1.960   .     S
O308   Cu322   1.960   .     S
O308   C309    1.305   .     A
C309   C341    1.488   .     S
C310   C342    1.456   .     S
O311   Cu321   1.930   .     S
O311   C319    1.293   .     A
O312   C320    1.293   .     A
O312   Cu322   1.930   .     S
O313   C320    1.291   .     A
O313   Cu321   1.928   .     S
O314   C319    1.291   .     A
O314   Cu322   1.928   .     S
C315   C345    1.414   .     A
C315   Cl377   1.773   .     S
C315   C325    1.416   .     A
C316   Cl378   1.773   .     S
C316   C326    1.417   .     A
C316   C346    1.414   .     A
C317   Cl379   1.772   .     S
C317   C325    1.417   .     A
C317   C347    1.415   .     A
C318   Cl380   1.772   .     S
C318   C348    1.414   .     A
C318   C326    1.418   .     A
C319   C327    1.406   .     S
C320   C328    1.406   .     S
Cu321  N324    2.023   .     S
Cu321  Cu322   2.694   .     S
Cu322  N323    2.023   .     S
N323   C347    1.375   .     A
N323   C345    1.374   .     A
N324   C348    1.373   .     A
N324   C346    1.375   .     A
C325   C478    1.547   1_545 S
C326   C477    1.547   .     S
C328   C631    1.189   .     S
C329   H333    1.082   .     S
C329   C343    1.392   .     A
C329   C337    1.402   .     A
C330   C338    1.394   .     A
C330   H334    1.084   .     S
C330   C344    1.397   .     A
C331   H335    1.084   .     S
C331   C339    1.396   .     A
C331   C344    1.398   .     A
C332   H336    1.084   .     S
C332   C343    1.391   .     A
C332   C340    1.393   .     A
C337   N353    1.431   .     S
C337   C341    1.428   .     A
C338   N359    1.423   .     S
C338   C342    1.410   .     A
C339   C342    1.410   .     A
C339   N365    1.423   .     S
C340   N371    1.424   .     S
C340   C341    1.425   .     A
C343   C420    1.460   1_455 S
C344   C419    1.460   .     S
C345   Cl349   1.756   .     S
C346   Cl350   1.762   .     S
C347   Cl351   1.762   .     S
C348   Cl352   1.762   .     S
N353   C355    1.448   .     S
N353   H354    1.032   .     S
C355   H356    1.111   .     S
C355   H357    1.111   .     S
C355   H358    1.110   .     S
N359   H360    1.032   .     S
N359   C361    1.447   .     S
C361   H363    1.111   .     S
C361   H364    1.110   .     S
C361   H362    1.112   .     S
N365   C367    1.447   .     S
N365   H366    1.031   .     S
C367   H369    1.111   .     S
C367   H370    1.110   .     S
C367   H368    1.112   .     S
N371   H372    1.032   .     S
N371   C373    1.447   .     S
C373   H375    1.111   .     S
C373   H376    1.111   .     S
C373   H374    1.112   .     S
O381   C385    1.304   .     A
O381   Cu397   1.960   .     S
O382   Cu398   1.960   .     S
O382   C386    1.298   .     A
O383   C386    1.294   .     A
O383   Cu397   1.960   .     S
O384   Cu398   1.960   .     S
O384   C385    1.305   .     A
C385   C417    1.488   .     S
C386   C418    1.456   .     S
O387   Cu397   1.930   .     S
O387   C395    1.293   .     A
O388   C396    1.293   .     A
O388   Cu398   1.930   .     S
O389   C396    1.291   .     A
O389   Cu397   1.928   .     S
O390   C395    1.291   .     A
O390   Cu398   1.928   .     S
C391   C421    1.414   .     A
C391   Cl453   1.773   .     S
C391   C401    1.416   .     A
C392   Cl454   1.773   .     S
C392   C402    1.417   .     A
C392   C422    1.414   .     A
C393   Cl455   1.772   .     S
C393   C401    1.417   .     A
C393   C423    1.415   .     A
C394   Cl456   1.772   .     S
C394   C424    1.414   .     A
C394   C402    1.418   .     A
C395   C403    1.406   .     S
C396   C404    1.406   .     S
Cu397  N400    2.023   .     S
Cu397  Cu398   2.694   .     S
Cu398  N399    2.023   .     S
N399   C423    1.375   .     A
N399   C421    1.374   .     A
N400   C424    1.373   .     A
N400   C422    1.375   .     A
C401   C554    1.547   1_545 S
C402   C553    1.547   .     S
C404   C707    1.189   .     S
C405   H409    1.082   .     S
C405   C419    1.392   .     A
C405   C413    1.402   .     A
C406   C414    1.394   .     A
C406   H410    1.084   .     S
C406   C420    1.397   .     A
C407   H411    1.084   .     S
C407   C415    1.396   .     A
C407   C420    1.398   .     A
C408   H412    1.084   .     S
C408   C419    1.391   .     A
C408   C416    1.393   .     A
C413   N429    1.431   .     S
C413   C417    1.428   .     A
C414   N435    1.423   .     S
C414   C418    1.410   .     A
C415   C418    1.410   .     A
C415   N441    1.423   .     S
C416   N447    1.424   .     S
C416   C417    1.425   .     A
C420   C343    1.460   1_655 S
C421   Cl425   1.756   .     S
C422   Cl426   1.762   .     S
C423   Cl427   1.762   .     S
C424   Cl428   1.762   .     S
N429   C431    1.448   .     S
N429   H430    1.032   .     S
C431   H432    1.111   .     S
C431   H433    1.111   .     S
C431   H434    1.110   .     S
N435   H436    1.032   .     S
N435   C437    1.447   .     S
C437   H439    1.111   .     S
C437   H440    1.110   .     S
C437   H438    1.112   .     S
N441   C443    1.447   .     S
N441   H442    1.031   .     S
C443   H445    1.111   .     S
C443   H446    1.110   .     S
C443   H444    1.112   .     S
N447   H448    1.032   .     S
N447   C449    1.447   .     S
C449   H451    1.111   .     S
C449   H452    1.111   .     S
C449   H450    1.112   .     S
O457   C461    1.304   .     A
O457   Cu473   1.960   .     S
O458   Cu474   1.960   .     S
O458   C462    1.298   .     A
O459   C462    1.294   .     A
O459   Cu473   1.960   .     S
O460   Cu474   1.960   .     S
O460   C461    1.305   .     A
C461   C493    1.488   .     S
C462   C494    1.456   .     S
O463   Cu473   1.930   .     S
O463   C471    1.293   .     A
O464   C472    1.293   .     A
O464   Cu474   1.930   .     S
O465   C472    1.291   .     A
O465   Cu473   1.928   .     S
O466   C471    1.291   .     A
O466   Cu474   1.928   .     S
C467   C497    1.414   .     A
C467   Cl529   1.773   .     S
C467   C477    1.416   .     A
C468   Cl530   1.773   .     S
C468   C478    1.417   .     A
C468   C498    1.414   .     A
C469   Cl531   1.772   .     S
C469   C477    1.417   .     A
C469   C499    1.415   .     A
C470   Cl532   1.772   .     S
C470   C500    1.414   .     A
C470   C478    1.418   .     A
C471   C479    1.406   .     S
C472   C480    1.406   .     S
Cu473  N476    2.023   .     S
Cu473  Cu474   2.694   .     S
Cu474  N475    2.023   .     S
N475   C499    1.375   .     A
N475   C497    1.374   .     A
N476   C500    1.373   .     A
N476   C498    1.375   .     A
C478   C325    1.547   1_565 S
C480   C783    1.189   .     S
C481   H485    1.082   .     S
C481   C495    1.392   .     A
C481   C489    1.402   .     A
C482   C490    1.394   .     A
C482   H486    1.084   .     S
C482   C496    1.397   .     A
C483   H487    1.084   .     S
C483   C491    1.396   .     A
C483   C496    1.398   .     A
C484   H488    1.084   .     S
C484   C495    1.391   .     A
C484   C492    1.393   .     A
C489   N505    1.431   .     S
C489   C493    1.428   .     A
C490   N511    1.423   .     S
C490   C494    1.410   .     A
C491   C494    1.410   .     A
C491   N517    1.423   .     S
C492   N523    1.424   .     S
C492   C493    1.425   .     A
C495   C572    1.460   1_455 S
C496   C571    1.460   .     S
C497   Cl501   1.756   .     S
C498   Cl502   1.762   .     S
C499   Cl503   1.762   .     S
C500   Cl504   1.762   .     S
N505   C507    1.448   .     S
N505   H506    1.032   .     S
C507   H508    1.111   .     S
C507   H509    1.111   .     S
C507   H510    1.110   .     S
N511   H512    1.032   .     S
N511   C513    1.447   .     S
C513   H515    1.111   .     S
C513   H516    1.110   .     S
C513   H514    1.112   .     S
N517   C519    1.447   .     S
N517   H518    1.031   .     S
C519   H521    1.111   .     S
C519   H522    1.110   .     S
C519   H520    1.112   .     S
N523   H524    1.032   .     S
N523   C525    1.447   .     S
C525   H527    1.111   .     S
C525   H528    1.111   .     S
C525   H526    1.112   .     S
O533   C537    1.304   .     A
O533   Cu549   1.960   .     S
O534   Cu550   1.960   .     S
O534   C538    1.298   .     A
O535   C538    1.294   .     A
O535   Cu549   1.960   .     S
O536   Cu550   1.960   .     S
O536   C537    1.305   .     A
C537   C569    1.488   .     S
C538   C570    1.456   .     S
O539   Cu549   1.930   .     S
O539   C547    1.293   .     A
O540   C548    1.293   .     A
O540   Cu550   1.930   .     S
O541   C548    1.291   .     A
O541   Cu549   1.928   .     S
O542   C547    1.291   .     A
O542   Cu550   1.928   .     S
C543   C573    1.414   .     A
C543   Cl605   1.773   .     S
C543   C553    1.416   .     A
C544   Cl606   1.773   .     S
C544   C554    1.417   .     A
C544   C574    1.414   .     A
C545   Cl607   1.772   .     S
C545   C553    1.417   .     A
C545   C575    1.415   .     A
C546   Cl608   1.772   .     S
C546   C576    1.414   .     A
C546   C554    1.418   .     A
C547   C555    1.406   .     S
C548   C556    1.406   .     S
Cu549  N552    2.023   .     S
Cu549  Cu550   2.694   .     S
Cu550  N551    2.023   .     S
N551   C575    1.375   .     A
N551   C573    1.374   .     A
N552   C576    1.373   .     A
N552   C574    1.375   .     A
C554   C401    1.547   1_565 S
C556   C859    1.189   .     S
C557   H561    1.082   .     S
C557   C571    1.392   .     A
C557   C565    1.402   .     A
C558   C566    1.394   .     A
C558   H562    1.084   .     S
C558   C572    1.397   .     A
C559   H563    1.084   .     S
C559   C567    1.396   .     A
C559   C572    1.398   .     A
C560   H564    1.084   .     S
C560   C571    1.391   .     A
C560   C568    1.393   .     A
C565   N581    1.431   .     S
C565   C569    1.428   .     A
C566   N587    1.423   .     S
C566   C570    1.410   .     A
C567   C570    1.410   .     A
C567   N593    1.423   .     S
C568   N599    1.424   .     S
C568   C569    1.425   .     A
C572   C495    1.460   1_655 S
C573   Cl577   1.756   .     S
C574   Cl578   1.762   .     S
C575   Cl579   1.762   .     S
C576   Cl580   1.762   .     S
N581   C583    1.448   .     S
N581   H582    1.032   .     S
C583   H584    1.111   .     S
C583   H585    1.111   .     S
C583   H586    1.110   .     S
N587   H588    1.032   .     S
N587   C589    1.447   .     S
C589   H591    1.111   .     S
C589   H592    1.110   .     S
C589   H590    1.112   .     S
N593   C595    1.447   .     S
N593   H594    1.031   .     S
C595   H597    1.111   .     S
C595   H598    1.110   .     S
C595   H596    1.112   .     S
N599   H600    1.032   .     S
N599   C601    1.447   .     S
C601   H603    1.111   .     S
C601   H604    1.111   .     S
C601   H602    1.112   .     S
O609   C613    1.304   .     A
O609   Cu625   1.960   .     S
O610   Cu626   1.960   .     S
O610   C614    1.298   .     A
O611   C614    1.294   .     A
O611   Cu625   1.960   .     S
O612   Cu626   1.960   .     S
O612   C613    1.305   .     A
C613   C645    1.488   .     S
C614   C646    1.456   .     S
O615   Cu625   1.930   .     S
O615   C623    1.293   .     A
O616   C624    1.293   .     A
O616   Cu626   1.930   .     S
O617   C624    1.291   .     A
O617   Cu625   1.928   .     S
O618   C623    1.291   .     A
O618   Cu626   1.928   .     S
C619   C649    1.414   .     A
C619   Cl681   1.773   .     S
C619   C629    1.416   .     A
C620   Cl682   1.773   .     S
C620   C630    1.417   .     A
C620   C650    1.414   .     A
C621   Cl683   1.772   .     S
C621   C629    1.417   .     A
C621   C651    1.415   .     A
C622   Cl684   1.772   .     S
C622   C652    1.414   .     A
C622   C630    1.418   .     A
C623   C631    1.406   .     S
C624   C632    1.406   .     S
Cu625  N628    2.023   .     S
Cu625  Cu626   2.694   .     S
Cu626  N627    2.023   .     S
N627   C651    1.375   .     A
N627   C649    1.374   .     A
N628   C652    1.373   .     A
N628   C650    1.375   .     A
C629   C782    1.547   1_545 S
C630   C781    1.547   .     S
C632   C23     1.189   1_556 S
C633   H637    1.082   .     S
C633   C647    1.392   .     A
C633   C641    1.402   .     A
C634   C642    1.394   .     A
C634   H638    1.084   .     S
C634   C648    1.397   .     A
C635   H639    1.084   .     S
C635   C643    1.396   .     A
C635   C648    1.398   .     A
C636   H640    1.084   .     S
C636   C647    1.391   .     A
C636   C644    1.393   .     A
C641   N657    1.431   .     S
C641   C645    1.428   .     A
C642   N663    1.423   .     S
C642   C646    1.410   .     A
C643   C646    1.410   .     A
C643   N669    1.423   .     S
C644   N675    1.424   .     S
C644   C645    1.425   .     A
C647   C724    1.460   1_455 S
C648   C723    1.460   .     S
C649   Cl653   1.756   .     S
C650   Cl654   1.762   .     S
C651   Cl655   1.762   .     S
C652   Cl656   1.762   .     S
N657   C659    1.448   .     S
N657   H658    1.032   .     S
C659   H660    1.111   .     S
C659   H661    1.111   .     S
C659   H662    1.110   .     S
N663   H664    1.032   .     S
N663   C665    1.447   .     S
C665   H667    1.111   .     S
C665   H668    1.110   .     S
C665   H666    1.112   .     S
N669   C671    1.447   .     S
N669   H670    1.031   .     S
C671   H673    1.111   .     S
C671   H674    1.110   .     S
C671   H672    1.112   .     S
N675   H676    1.032   .     S
N675   C677    1.447   .     S
C677   H679    1.111   .     S
C677   H680    1.111   .     S
C677   H678    1.112   .     S
O685   C689    1.304   .     A
O685   Cu701   1.960   .     S
O686   Cu702   1.960   .     S
O686   C690    1.298   .     A
O687   C690    1.294   .     A
O687   Cu701   1.960   .     S
O688   Cu702   1.960   .     S
O688   C689    1.305   .     A
C689   C721    1.488   .     S
C690   C722    1.456   .     S
O691   Cu701   1.930   .     S
O691   C699    1.293   .     A
O692   C700    1.293   .     A
O692   Cu702   1.930   .     S
O693   C700    1.291   .     A
O693   Cu701   1.928   .     S
O694   C699    1.291   .     A
O694   Cu702   1.928   .     S
C695   C725    1.414   .     A
C695   Cl757   1.773   .     S
C695   C705    1.416   .     A
C696   Cl758   1.773   .     S
C696   C706    1.417   .     A
C696   C726    1.414   .     A
C697   Cl759   1.772   .     S
C697   C705    1.417   .     A
C697   C727    1.415   .     A
C698   Cl760   1.772   .     S
C698   C728    1.414   .     A
C698   C706    1.418   .     A
C699   C707    1.406   .     S
C700   C708    1.406   .     S
Cu701  N704    2.023   .     S
Cu701  Cu702   2.694   .     S
Cu702  N703    2.023   .     S
N703   C727    1.375   .     A
N703   C725    1.374   .     A
N704   C728    1.373   .     A
N704   C726    1.375   .     A
C705   C858    1.547   1_545 S
C706   C857    1.547   .     S
C708   C99     1.189   1_556 S
C709   H713    1.082   .     S
C709   C723    1.392   .     A
C709   C717    1.402   .     A
C710   C718    1.394   .     A
C710   H714    1.084   .     S
C710   C724    1.397   .     A
C711   H715    1.084   .     S
C711   C719    1.396   .     A
C711   C724    1.398   .     A
C712   H716    1.084   .     S
C712   C723    1.391   .     A
C712   C720    1.393   .     A
C717   N733    1.431   .     S
C717   C721    1.428   .     A
C718   N739    1.423   .     S
C718   C722    1.410   .     A
C719   C722    1.410   .     A
C719   N745    1.423   .     S
C720   N751    1.424   .     S
C720   C721    1.425   .     A
C724   C647    1.460   1_655 S
C725   Cl729   1.756   .     S
C726   Cl730   1.762   .     S
C727   Cl731   1.762   .     S
C728   Cl732   1.762   .     S
N733   C735    1.448   .     S
N733   H734    1.032   .     S
C735   H736    1.111   .     S
C735   H737    1.111   .     S
C735   H738    1.110   .     S
N739   H740    1.032   .     S
N739   C741    1.447   .     S
C741   H743    1.111   .     S
C741   H744    1.110   .     S
C741   H742    1.112   .     S
N745   C747    1.447   .     S
N745   H746    1.031   .     S
C747   H749    1.111   .     S
C747   H750    1.110   .     S
C747   H748    1.112   .     S
N751   H752    1.032   .     S
N751   C753    1.447   .     S
C753   H755    1.111   .     S
C753   H756    1.111   .     S
C753   H754    1.112   .     S
O761   C765    1.304   .     A
O761   Cu777   1.960   .     S
O762   Cu778   1.960   .     S
O762   C766    1.298   .     A
O763   C766    1.294   .     A
O763   Cu777   1.960   .     S
O764   Cu778   1.960   .     S
O764   C765    1.305   .     A
C765   C797    1.488   .     S
C766   C798    1.456   .     S
O767   Cu777   1.930   .     S
O767   C775    1.293   .     A
O768   C776    1.293   .     A
O768   Cu778   1.930   .     S
O769   C776    1.291   .     A
O769   Cu777   1.928   .     S
O770   C775    1.291   .     A
O770   Cu778   1.928   .     S
C771   C801    1.414   .     A
C771   Cl833   1.773   .     S
C771   C781    1.416   .     A
C772   Cl834   1.773   .     S
C772   C782    1.417   .     A
C772   C802    1.414   .     A
C773   Cl835   1.772   .     S
C773   C781    1.417   .     A
C773   C803    1.415   .     A
C774   Cl836   1.772   .     S
C774   C804    1.414   .     A
C774   C782    1.418   .     A
C775   C783    1.406   .     S
C776   C784    1.406   .     S
Cu777  N780    2.023   .     S
Cu777  Cu778   2.694   .     S
Cu778  N779    2.023   .     S
N779   C803    1.375   .     A
N779   C801    1.374   .     A
N780   C804    1.373   .     A
N780   C802    1.375   .     A
C782   C629    1.547   1_565 S
C784   C175    1.189   1_556 S
C785   H789    1.082   .     S
C785   C799    1.392   .     A
C785   C793    1.402   .     A
C786   C794    1.394   .     A
C786   H790    1.084   .     S
C786   C800    1.397   .     A
C787   H791    1.084   .     S
C787   C795    1.396   .     A
C787   C800    1.398   .     A
C788   H792    1.084   .     S
C788   C799    1.391   .     A
C788   C796    1.393   .     A
C793   N809    1.431   .     S
C793   C797    1.428   .     A
C794   N815    1.423   .     S
C794   C798    1.410   .     A
C795   C798    1.410   .     A
C795   N821    1.423   .     S
C796   N827    1.424   .     S
C796   C797    1.425   .     A
C799   C876    1.460   1_455 S
C800   C875    1.460   .     S
C801   Cl805   1.756   .     S
C802   Cl806   1.762   .     S
C803   Cl807   1.762   .     S
C804   Cl808   1.762   .     S
N809   C811    1.448   .     S
N809   H810    1.032   .     S
C811   H812    1.111   .     S
C811   H813    1.111   .     S
C811   H814    1.110   .     S
N815   H816    1.032   .     S
N815   C817    1.447   .     S
C817   H819    1.111   .     S
C817   H820    1.110   .     S
C817   H818    1.112   .     S
N821   C823    1.447   .     S
N821   H822    1.031   .     S
C823   H825    1.111   .     S
C823   H826    1.110   .     S
C823   H824    1.112   .     S
N827   H828    1.032   .     S
N827   C829    1.447   .     S
C829   H831    1.111   .     S
C829   H832    1.111   .     S
C829   H830    1.112   .     S
O837   C841    1.304   .     A
O837   Cu853   1.960   .     S
O838   Cu854   1.960   .     S
O838   C842    1.298   .     A
O839   C842    1.294   .     A
O839   Cu853   1.960   .     S
O840   Cu854   1.960   .     S
O840   C841    1.305   .     A
C841   C873    1.488   .     S
C842   C874    1.456   .     S
O843   Cu853   1.930   .     S
O843   C851    1.293   .     A
O844   C852    1.293   .     A
O844   Cu854   1.930   .     S
O845   C852    1.291   .     A
O845   Cu853   1.928   .     S
O846   C851    1.291   .     A
O846   Cu854   1.928   .     S
C847   C877    1.414   .     A
C847   Cl909   1.773   .     S
C847   C857    1.416   .     A
C848   Cl910   1.773   .     S
C848   C858    1.417   .     A
C848   C878    1.414   .     A
C849   Cl911   1.772   .     S
C849   C857    1.417   .     A
C849   C879    1.415   .     A
C850   Cl912   1.772   .     S
C850   C880    1.414   .     A
C850   C858    1.418   .     A
C851   C859    1.406   .     S
C852   C860    1.406   .     S
Cu853  N856    2.023   .     S
Cu853  Cu854   2.694   .     S
Cu854  N855    2.023   .     S
N855   C879    1.375   .     A
N855   C877    1.374   .     A
N856   C880    1.373   .     A
N856   C878    1.375   .     A
C858   C705    1.547   1_565 S
C860   C251    1.189   1_556 S
C861   H865    1.082   .     S
C861   C875    1.392   .     A
C861   C869    1.402   .     A
C862   C870    1.394   .     A
C862   H866    1.084   .     S
C862   C876    1.397   .     A
C863   H867    1.084   .     S
C863   C871    1.396   .     A
C863   C876    1.398   .     A
C864   H868    1.084   .     S
C864   C875    1.391   .     A
C864   C872    1.393   .     A
C869   N885    1.431   .     S
C869   C873    1.428   .     A
C870   N891    1.423   .     S
C870   C874    1.410   .     A
C871   C874    1.410   .     A
C871   N897    1.423   .     S
C872   N903    1.424   .     S
C872   C873    1.425   .     A
C876   C799    1.460   1_655 S
C877   Cl881   1.756   .     S
C878   Cl882   1.762   .     S
C879   Cl883   1.762   .     S
C880   Cl884   1.762   .     S
N885   C887    1.448   .     S
N885   H886    1.032   .     S
C887   H888    1.111   .     S
C887   H889    1.111   .     S
C887   H890    1.110   .     S
N891   H892    1.032   .     S
N891   C893    1.447   .     S
C893   H895    1.111   .     S
C893   H896    1.110   .     S
C893   H894    1.112   .     S
N897   C899    1.447   .     S
N897   H898    1.031   .     S
C899   H901    1.111   .     S
C899   H902    1.110   .     S
C899   H900    1.112   .     S
N903   H904    1.032   .     S
N903   C905    1.447   .     S
C905   H907    1.111   .     S
C905   H908    1.111   .     S
C905   H906    1.112   .     S
