data_str_m2_o1_o17_pcu_sym.222
_audit_creation_date              2020-01-03
_audit_creation_method            'Materials Studio'
_symmetry_space_group_name_H-M    'P1'
_symmetry_Int_Tables_number       1
_symmetry_cell_setting            triclinic
loop_
_symmetry_equiv_pos_as_xyz
  x,y,z
_cell_length_a                    32.8042
_cell_length_b                    28.8884
_cell_length_c                    29.9942
_cell_angle_alpha                 89.5223
_cell_angle_beta                  93.0166
_cell_angle_gamma                 88.9072
loop_
_atom_site_label
_atom_site_type_symbol
_atom_site_fract_x
_atom_site_fract_y
_atom_site_fract_z
_atom_site_U_iso_or_equiv
_atom_site_adp_type
_atom_site_occupancy
O1     O     0.10655   0.20625   0.25000   0.00000  Uiso   1.00
O2     O     0.22679   0.12709   0.25001   0.00000  Uiso   1.00
O3     O     0.22679   0.20625   0.25001   0.00000  Uiso   1.00
O4     O     0.10655   0.12709   0.25000   0.00000  Uiso   1.00
C5     C     0.08758   0.16714   0.25266   0.00000  Uiso   1.00
C6     C     0.24575   0.16620   0.24734   0.00000  Uiso   1.00
O7     O     0.16666   0.20627   0.18513   0.00000  Uiso   1.00
O8     O     0.16668   0.12707   0.31487   0.00000  Uiso   1.00
O9     O     0.16668   0.20627   0.31487   0.00000  Uiso   1.00
O10    O     0.16666   0.12707   0.18513   0.00000  Uiso   1.00
C11    C     0.16563   0.16685   0.16460   0.00000  Uiso   1.00
C12    C     0.16770   0.16648   0.33540   0.00000  Uiso   1.00
Cu13   Cu    0.16667   0.21355   0.25000   0.00000  Uiso   1.00
Cu14   Cu    0.16667   0.11978   0.25000   0.00000  Uiso   1.00
C15    C     0.20577   0.16008   0.40926   0.00000  Uiso   1.00
C16    C     0.12756   0.17326   0.09074   0.00000  Uiso   1.00
C17    C     0.16873   0.16623   0.38366   0.00000  Uiso   1.00
C18    C     0.16461   0.16710   0.11634   0.00000  Uiso   1.00
C19    C     0.13168   0.17155   0.40387   0.00000  Uiso   1.00
C20    C     0.20166   0.16179   0.09613   0.00000  Uiso   1.00
C21    C     0.13059   0.17109   0.45012   0.00000  Uiso   1.00
C22    C     0.20275   0.16224   0.04988   0.00000  Uiso   1.00
C23    C     0.16728   0.16634   0.47657   0.00000  Uiso   1.00
C24    C     0.16605   0.16700   0.02343   0.00000  Uiso   1.00
C25    C     0.20516   0.16107   0.45626   0.00000  Uiso   1.00
C26    C     0.12818   0.17227   0.04374   0.00000  Uiso   1.00
C27    C     0.09323   0.17520   0.47022   0.00000  Uiso   1.00
C28    C     0.24011   0.15813   0.02978   0.00000  Uiso   1.00
C29    C     0.09194   0.17531   0.01649   0.00000  Uiso   1.00
C30    C     0.24140   0.15802   0.48351   0.00000  Uiso   1.00
H31    H     0.06225   0.17726   0.03044   0.00000  Uiso   1.00
H32    H     0.27108   0.15608   0.46956   0.00000  Uiso   1.00
C33    C     0.02248   0.12581   0.26125   0.00000  Uiso   1.00
C34    C     0.31085   0.20753   0.23875   0.00000  Uiso   1.00
C35    C     0.31353   0.12388   0.25314   0.00000  Uiso   1.00
C36    C     0.01981   0.20946   0.24686   0.00000  Uiso   1.00
C37    C     0.29055   0.16536   0.24463   0.00000  Uiso   1.00
C38    C     0.04278   0.16798   0.25537   0.00000  Uiso   1.00
C39    C     0.14988   0.02534   0.21440   0.00000  Uiso   1.00
C40    C     0.18345   0.30800   0.28560   0.00000  Uiso   1.00
C41    C     0.18293   0.02386   0.28587   0.00000  Uiso   1.00
C42    C     0.15040   0.30947   0.21413   0.00000  Uiso   1.00
N43    N     0.16667   0.28402   0.25000   0.00000  Uiso   1.00
N44    N     0.16667   0.04931   0.25000   0.00000  Uiso   1.00
N45    N     0.24340   0.15217   0.38764   0.00000  Uiso   1.00
O46    O     0.25383   0.17953   0.35572   0.00000  Uiso   1.00
O47    O     0.26639   0.11614   0.39830   0.00000  Uiso   1.00
N48    N     0.08993   0.18117   0.11236   0.00000  Uiso   1.00
O49    O     0.07951   0.15381   0.14428   0.00000  Uiso   1.00
O50    O     0.06694   0.21719   0.10170   0.00000  Uiso   1.00
H51    H     0.10357   0.17561   0.38332   0.00000  Uiso   1.00
H52    H     0.22977   0.15772   0.11668   0.00000  Uiso   1.00
H53    H     0.06485   0.17808   0.45009   0.00000  Uiso   1.00
H54    H     0.26848   0.15525   0.04991   0.00000  Uiso   1.00
N55    N     0.04451   0.08502   0.27745   0.00000  Uiso   1.00
O56    O     0.06382   0.08525   0.31648   0.00000  Uiso   1.00
O57    O     0.04507   0.04760   0.25365   0.00000  Uiso   1.00
N58    N     0.28883   0.24831   0.22255   0.00000  Uiso   1.00
O59    O     0.26951   0.24809   0.18352   0.00000  Uiso   1.00
O60    O     0.28826   0.28573   0.24634   0.00000  Uiso   1.00
N61    N     0.29465   0.07936   0.25163   0.00000  Uiso   1.00
O62    O     0.27721   0.06539   0.21428   0.00000  Uiso   1.00
O63    O     0.30162   0.04959   0.28406   0.00000  Uiso   1.00
N64    N     0.03868   0.25398   0.24837   0.00000  Uiso   1.00
O65    O     0.05612   0.26794   0.28572   0.00000  Uiso   1.00
O66    O     0.03171   0.28374   0.21594   0.00000  Uiso   1.00
N67    N     0.12952   0.04947   0.17760   0.00000  Uiso   1.00
O68    O     0.09127   0.06130   0.17969   0.00000  Uiso   1.00
O69    O     0.14602   0.05042   0.13909   0.00000  Uiso   1.00
N70    N     0.20381   0.28386   0.32240   0.00000  Uiso   1.00
O71    O     0.24206   0.27203   0.32031   0.00000  Uiso   1.00
O72    O     0.18731   0.28291   0.36091   0.00000  Uiso   1.00
N73    N     0.19941   0.04640   0.32477   0.00000  Uiso   1.00
O74    O     0.23347   0.06831   0.32360   0.00000  Uiso   1.00
O75    O     0.18111   0.04372   0.36213   0.00000  Uiso   1.00
N76    N     0.13392   0.28694   0.17523   0.00000  Uiso   1.00
O77    O     0.09986   0.26503   0.17640   0.00000  Uiso   1.00
O78    O     0.15223   0.28961   0.13787   0.00000  Uiso   1.00
O79    O     0.43988   0.20625   0.25000   0.00000  Uiso   1.00
O80    O     0.56012   0.12709   0.25001   0.00000  Uiso   1.00
O81    O     0.56012   0.20625   0.25001   0.00000  Uiso   1.00
O82    O     0.43988   0.12709   0.25000   0.00000  Uiso   1.00
C83    C     0.42092   0.16714   0.25266   0.00000  Uiso   1.00
C84    C     0.57908   0.16620   0.24734   0.00000  Uiso   1.00
O85    O     0.49999   0.20627   0.18513   0.00000  Uiso   1.00
O86    O     0.50001   0.12707   0.31487   0.00000  Uiso   1.00
O87    O     0.50001   0.20627   0.31487   0.00000  Uiso   1.00
O88    O     0.49999   0.12707   0.18513   0.00000  Uiso   1.00
C89    C     0.49897   0.16685   0.16460   0.00000  Uiso   1.00
C90    C     0.50104   0.16648   0.33540   0.00000  Uiso   1.00
Cu91   Cu    0.50000   0.21355   0.25000   0.00000  Uiso   1.00
Cu92   Cu    0.50000   0.11978   0.25000   0.00000  Uiso   1.00
C93    C     0.53911   0.16008   0.40926   0.00000  Uiso   1.00
C94    C     0.46089   0.17326   0.09074   0.00000  Uiso   1.00
C95    C     0.50206   0.16623   0.38366   0.00000  Uiso   1.00
C96    C     0.49794   0.16710   0.11634   0.00000  Uiso   1.00
C97    C     0.46501   0.17155   0.40387   0.00000  Uiso   1.00
C98    C     0.53499   0.16179   0.09613   0.00000  Uiso   1.00
C99    C     0.46392   0.17109   0.45012   0.00000  Uiso   1.00
C100   C     0.53608   0.16224   0.04988   0.00000  Uiso   1.00
C101   C     0.50062   0.16634   0.47657   0.00000  Uiso   1.00
C102   C     0.49938   0.16700   0.02343   0.00000  Uiso   1.00
C103   C     0.53849   0.16107   0.45626   0.00000  Uiso   1.00
C104   C     0.46151   0.17227   0.04374   0.00000  Uiso   1.00
C105   C     0.42656   0.17520   0.47022   0.00000  Uiso   1.00
C106   C     0.57344   0.15813   0.02978   0.00000  Uiso   1.00
C107   C     0.42527   0.17531   0.01649   0.00000  Uiso   1.00
C108   C     0.57473   0.15802   0.48351   0.00000  Uiso   1.00
H109   H     0.39558   0.17726   0.03044   0.00000  Uiso   1.00
H110   H     0.60442   0.15608   0.46956   0.00000  Uiso   1.00
C111   C     0.35582   0.12581   0.26125   0.00000  Uiso   1.00
C112   C     0.64419   0.20753   0.23875   0.00000  Uiso   1.00
C113   C     0.64686   0.12388   0.25314   0.00000  Uiso   1.00
C114   C     0.35314   0.20946   0.24686   0.00000  Uiso   1.00
C115   C     0.62388   0.16536   0.24463   0.00000  Uiso   1.00
C116   C     0.37612   0.16798   0.25537   0.00000  Uiso   1.00
C117   C     0.48321   0.02534   0.21440   0.00000  Uiso   1.00
C118   C     0.51679   0.30800   0.28560   0.00000  Uiso   1.00
C119   C     0.51626   0.02386   0.28587   0.00000  Uiso   1.00
C120   C     0.48374   0.30947   0.21413   0.00000  Uiso   1.00
N121   N     0.50000   0.28402   0.25000   0.00000  Uiso   1.00
N122   N     0.50000   0.04931   0.25000   0.00000  Uiso   1.00
N123   N     0.57673   0.15217   0.38764   0.00000  Uiso   1.00
O124   O     0.58716   0.17953   0.35572   0.00000  Uiso   1.00
O125   O     0.59973   0.11614   0.39830   0.00000  Uiso   1.00
N126   N     0.42327   0.18117   0.11236   0.00000  Uiso   1.00
O127   O     0.41284   0.15381   0.14428   0.00000  Uiso   1.00
O128   O     0.40027   0.21719   0.10170   0.00000  Uiso   1.00
H129   H     0.43690   0.17561   0.38332   0.00000  Uiso   1.00
H130   H     0.56310   0.15772   0.11668   0.00000  Uiso   1.00
H131   H     0.39818   0.17808   0.45009   0.00000  Uiso   1.00
H132   H     0.60182   0.15525   0.04991   0.00000  Uiso   1.00
N133   N     0.37784   0.08502   0.27745   0.00000  Uiso   1.00
O134   O     0.39715   0.08525   0.31648   0.00000  Uiso   1.00
O135   O     0.37840   0.04760   0.25365   0.00000  Uiso   1.00
N136   N     0.62216   0.24831   0.22255   0.00000  Uiso   1.00
O137   O     0.60285   0.24809   0.18352   0.00000  Uiso   1.00
O138   O     0.62160   0.28573   0.24634   0.00000  Uiso   1.00
N139   N     0.62798   0.07936   0.25163   0.00000  Uiso   1.00
O140   O     0.61054   0.06539   0.21428   0.00000  Uiso   1.00
O141   O     0.63495   0.04959   0.28406   0.00000  Uiso   1.00
N142   N     0.37202   0.25398   0.24837   0.00000  Uiso   1.00
O143   O     0.38946   0.26794   0.28572   0.00000  Uiso   1.00
O144   O     0.36505   0.28374   0.21594   0.00000  Uiso   1.00
N145   N     0.46285   0.04947   0.17760   0.00000  Uiso   1.00
O146   O     0.42461   0.06130   0.17969   0.00000  Uiso   1.00
O147   O     0.47936   0.05042   0.13909   0.00000  Uiso   1.00
N148   N     0.53715   0.28386   0.32240   0.00000  Uiso   1.00
O149   O     0.57540   0.27203   0.32031   0.00000  Uiso   1.00
O150   O     0.52064   0.28291   0.36091   0.00000  Uiso   1.00
N151   N     0.53275   0.04640   0.32477   0.00000  Uiso   1.00
O152   O     0.56681   0.06831   0.32360   0.00000  Uiso   1.00
O153   O     0.51445   0.04372   0.36213   0.00000  Uiso   1.00
N154   N     0.46725   0.28694   0.17523   0.00000  Uiso   1.00
O155   O     0.43319   0.26503   0.17640   0.00000  Uiso   1.00
O156   O     0.48556   0.28961   0.13787   0.00000  Uiso   1.00
O157   O     0.77321   0.20625   0.25000   0.00000  Uiso   1.00
O158   O     0.89345   0.12709   0.25001   0.00000  Uiso   1.00
O159   O     0.89345   0.20625   0.25001   0.00000  Uiso   1.00
O160   O     0.77321   0.12709   0.25000   0.00000  Uiso   1.00
C161   C     0.75425   0.16714   0.25266   0.00000  Uiso   1.00
C162   C     0.91242   0.16620   0.24734   0.00000  Uiso   1.00
O163   O     0.83332   0.20627   0.18513   0.00000  Uiso   1.00
O164   O     0.83334   0.12707   0.31487   0.00000  Uiso   1.00
O165   O     0.83334   0.20627   0.31487   0.00000  Uiso   1.00
O166   O     0.83332   0.12707   0.18513   0.00000  Uiso   1.00
C167   C     0.83230   0.16685   0.16460   0.00000  Uiso   1.00
C168   C     0.83437   0.16648   0.33540   0.00000  Uiso   1.00
Cu169  Cu    0.83333   0.21355   0.25000   0.00000  Uiso   1.00
Cu170  Cu    0.83333   0.11978   0.25000   0.00000  Uiso   1.00
C171   C     0.87244   0.16008   0.40926   0.00000  Uiso   1.00
C172   C     0.79423   0.17326   0.09074   0.00000  Uiso   1.00
C173   C     0.83539   0.16623   0.38366   0.00000  Uiso   1.00
C174   C     0.83128   0.16710   0.11634   0.00000  Uiso   1.00
C175   C     0.79834   0.17155   0.40387   0.00000  Uiso   1.00
C176   C     0.86832   0.16179   0.09613   0.00000  Uiso   1.00
C177   C     0.79725   0.17109   0.45012   0.00000  Uiso   1.00
C178   C     0.86941   0.16224   0.04988   0.00000  Uiso   1.00
C179   C     0.83395   0.16634   0.47657   0.00000  Uiso   1.00
C180   C     0.83272   0.16700   0.02343   0.00000  Uiso   1.00
C181   C     0.87182   0.16107   0.45626   0.00000  Uiso   1.00
C182   C     0.79484   0.17227   0.04374   0.00000  Uiso   1.00
C183   C     0.75989   0.17520   0.47022   0.00000  Uiso   1.00
C184   C     0.90677   0.15813   0.02978   0.00000  Uiso   1.00
C185   C     0.75860   0.17531   0.01649   0.00000  Uiso   1.00
C186   C     0.90806   0.15802   0.48351   0.00000  Uiso   1.00
H187   H     0.72892   0.17726   0.03044   0.00000  Uiso   1.00
H188   H     0.93775   0.15608   0.46956   0.00000  Uiso   1.00
C189   C     0.68915   0.12581   0.26125   0.00000  Uiso   1.00
C190   C     0.97752   0.20753   0.23875   0.00000  Uiso   1.00
C191   C     0.98019   0.12388   0.25314   0.00000  Uiso   1.00
C192   C     0.68647   0.20946   0.24686   0.00000  Uiso   1.00
C193   C     0.95722   0.16536   0.24463   0.00000  Uiso   1.00
C194   C     0.70945   0.16798   0.25537   0.00000  Uiso   1.00
C195   C     0.81655   0.02534   0.21440   0.00000  Uiso   1.00
C196   C     0.85012   0.30800   0.28560   0.00000  Uiso   1.00
C197   C     0.84960   0.02386   0.28587   0.00000  Uiso   1.00
C198   C     0.81707   0.30947   0.21413   0.00000  Uiso   1.00
N199   N     0.83333   0.28402   0.25000   0.00000  Uiso   1.00
N200   N     0.83333   0.04931   0.25000   0.00000  Uiso   1.00
N201   N     0.91007   0.15217   0.38764   0.00000  Uiso   1.00
O202   O     0.92049   0.17953   0.35572   0.00000  Uiso   1.00
O203   O     0.93306   0.11614   0.39830   0.00000  Uiso   1.00
N204   N     0.75660   0.18117   0.11236   0.00000  Uiso   1.00
O205   O     0.74617   0.15381   0.14428   0.00000  Uiso   1.00
O206   O     0.73361   0.21719   0.10170   0.00000  Uiso   1.00
H207   H     0.77023   0.17561   0.38332   0.00000  Uiso   1.00
H208   H     0.89643   0.15772   0.11668   0.00000  Uiso   1.00
H209   H     0.73152   0.17808   0.45009   0.00000  Uiso   1.00
H210   H     0.93515   0.15525   0.04991   0.00000  Uiso   1.00
N211   N     0.71117   0.08502   0.27745   0.00000  Uiso   1.00
O212   O     0.73049   0.08525   0.31648   0.00000  Uiso   1.00
O213   O     0.71174   0.04760   0.25365   0.00000  Uiso   1.00
N214   N     0.95549   0.24831   0.22255   0.00000  Uiso   1.00
O215   O     0.93618   0.24809   0.18352   0.00000  Uiso   1.00
O216   O     0.95493   0.28573   0.24634   0.00000  Uiso   1.00
N217   N     0.96132   0.07936   0.25163   0.00000  Uiso   1.00
O218   O     0.94388   0.06539   0.21428   0.00000  Uiso   1.00
O219   O     0.96829   0.04959   0.28406   0.00000  Uiso   1.00
N220   N     0.70535   0.25398   0.24837   0.00000  Uiso   1.00
O221   O     0.72279   0.26794   0.28572   0.00000  Uiso   1.00
O222   O     0.69838   0.28374   0.21594   0.00000  Uiso   1.00
N223   N     0.79619   0.04947   0.17760   0.00000  Uiso   1.00
O224   O     0.75794   0.06130   0.17969   0.00000  Uiso   1.00
O225   O     0.81269   0.05042   0.13909   0.00000  Uiso   1.00
N226   N     0.87048   0.28386   0.32240   0.00000  Uiso   1.00
O227   O     0.90873   0.27203   0.32031   0.00000  Uiso   1.00
O228   O     0.85398   0.28291   0.36091   0.00000  Uiso   1.00
N229   N     0.86608   0.04640   0.32477   0.00000  Uiso   1.00
O230   O     0.90014   0.06831   0.32360   0.00000  Uiso   1.00
O231   O     0.84778   0.04372   0.36213   0.00000  Uiso   1.00
N232   N     0.80059   0.28694   0.17523   0.00000  Uiso   1.00
O233   O     0.76653   0.26503   0.17640   0.00000  Uiso   1.00
O234   O     0.81890   0.28961   0.13787   0.00000  Uiso   1.00
O235   O     0.10655   0.53958   0.25000   0.00000  Uiso   1.00
O236   O     0.22679   0.46042   0.25001   0.00000  Uiso   1.00
O237   O     0.22679   0.53958   0.25001   0.00000  Uiso   1.00
O238   O     0.10655   0.46042   0.25000   0.00000  Uiso   1.00
C239   C     0.08758   0.50047   0.25266   0.00000  Uiso   1.00
C240   C     0.24575   0.49953   0.24734   0.00000  Uiso   1.00
O241   O     0.16666   0.53960   0.18513   0.00000  Uiso   1.00
O242   O     0.16668   0.46040   0.31487   0.00000  Uiso   1.00
O243   O     0.16668   0.53960   0.31487   0.00000  Uiso   1.00
O244   O     0.16666   0.46040   0.18513   0.00000  Uiso   1.00
C245   C     0.16563   0.50019   0.16460   0.00000  Uiso   1.00
C246   C     0.16770   0.49981   0.33540   0.00000  Uiso   1.00
Cu247  Cu    0.16667   0.54689   0.25000   0.00000  Uiso   1.00
Cu248  Cu    0.16667   0.45311   0.25000   0.00000  Uiso   1.00
C249   C     0.20577   0.49341   0.40926   0.00000  Uiso   1.00
C250   C     0.12756   0.50659   0.09074   0.00000  Uiso   1.00
C251   C     0.16873   0.49957   0.38366   0.00000  Uiso   1.00
C252   C     0.16461   0.50043   0.11634   0.00000  Uiso   1.00
C253   C     0.13168   0.50488   0.40387   0.00000  Uiso   1.00
C254   C     0.20166   0.49512   0.09613   0.00000  Uiso   1.00
C255   C     0.13059   0.50443   0.45012   0.00000  Uiso   1.00
C256   C     0.20275   0.49557   0.04988   0.00000  Uiso   1.00
C257   C     0.16728   0.49967   0.47657   0.00000  Uiso   1.00
C258   C     0.16605   0.50033   0.02343   0.00000  Uiso   1.00
C259   C     0.20516   0.49440   0.45626   0.00000  Uiso   1.00
C260   C     0.12818   0.50560   0.04374   0.00000  Uiso   1.00
C261   C     0.09323   0.50854   0.47022   0.00000  Uiso   1.00
C262   C     0.24011   0.49146   0.02978   0.00000  Uiso   1.00
C263   C     0.09194   0.50864   0.01649   0.00000  Uiso   1.00
C264   C     0.24140   0.49136   0.48351   0.00000  Uiso   1.00
H265   H     0.06225   0.51059   0.03044   0.00000  Uiso   1.00
H266   H     0.27108   0.48941   0.46956   0.00000  Uiso   1.00
C267   C     0.02248   0.45914   0.26125   0.00000  Uiso   1.00
C268   C     0.31085   0.54086   0.23875   0.00000  Uiso   1.00
C269   C     0.31353   0.45721   0.25314   0.00000  Uiso   1.00
C270   C     0.01981   0.54279   0.24686   0.00000  Uiso   1.00
C271   C     0.29055   0.49869   0.24463   0.00000  Uiso   1.00
C272   C     0.04278   0.50131   0.25537   0.00000  Uiso   1.00
C273   C     0.14988   0.35867   0.21440   0.00000  Uiso   1.00
C274   C     0.18345   0.64133   0.28560   0.00000  Uiso   1.00
C275   C     0.18293   0.35720   0.28587   0.00000  Uiso   1.00
C276   C     0.15040   0.64280   0.21413   0.00000  Uiso   1.00
N277   N     0.16667   0.61736   0.25000   0.00000  Uiso   1.00
N278   N     0.16667   0.38264   0.25000   0.00000  Uiso   1.00
N279   N     0.24340   0.48550   0.38764   0.00000  Uiso   1.00
O280   O     0.25383   0.51286   0.35572   0.00000  Uiso   1.00
O281   O     0.26639   0.44948   0.39830   0.00000  Uiso   1.00
N282   N     0.08993   0.51450   0.11236   0.00000  Uiso   1.00
O283   O     0.07951   0.48714   0.14428   0.00000  Uiso   1.00
O284   O     0.06694   0.55052   0.10170   0.00000  Uiso   1.00
H285   H     0.10357   0.50894   0.38332   0.00000  Uiso   1.00
H286   H     0.22977   0.49106   0.11668   0.00000  Uiso   1.00
H287   H     0.06485   0.51142   0.45009   0.00000  Uiso   1.00
H288   H     0.26848   0.48858   0.04991   0.00000  Uiso   1.00
N289   N     0.04451   0.41836   0.27745   0.00000  Uiso   1.00
O290   O     0.06382   0.41858   0.31648   0.00000  Uiso   1.00
O291   O     0.04507   0.38093   0.25365   0.00000  Uiso   1.00
N292   N     0.28883   0.58164   0.22255   0.00000  Uiso   1.00
O293   O     0.26951   0.58142   0.18352   0.00000  Uiso   1.00
O294   O     0.28826   0.61907   0.24634   0.00000  Uiso   1.00
N295   N     0.29465   0.41269   0.25163   0.00000  Uiso   1.00
O296   O     0.27721   0.39873   0.21428   0.00000  Uiso   1.00
O297   O     0.30162   0.38293   0.28406   0.00000  Uiso   1.00
N298   N     0.03868   0.58731   0.24837   0.00000  Uiso   1.00
O299   O     0.05612   0.60127   0.28572   0.00000  Uiso   1.00
O300   O     0.03171   0.61707   0.21594   0.00000  Uiso   1.00
N301   N     0.12952   0.38280   0.17760   0.00000  Uiso   1.00
O302   O     0.09127   0.39464   0.17969   0.00000  Uiso   1.00
O303   O     0.14602   0.38375   0.13909   0.00000  Uiso   1.00
N304   N     0.20381   0.61720   0.32240   0.00000  Uiso   1.00
O305   O     0.24206   0.60537   0.32031   0.00000  Uiso   1.00
O306   O     0.18731   0.61624   0.36091   0.00000  Uiso   1.00
N307   N     0.19941   0.37973   0.32477   0.00000  Uiso   1.00
O308   O     0.23347   0.40164   0.32360   0.00000  Uiso   1.00
O309   O     0.18111   0.37705   0.36213   0.00000  Uiso   1.00
N310   N     0.13392   0.62027   0.17523   0.00000  Uiso   1.00
O311   O     0.09986   0.59836   0.17640   0.00000  Uiso   1.00
O312   O     0.15223   0.62294   0.13787   0.00000  Uiso   1.00
O313   O     0.43988   0.53958   0.25000   0.00000  Uiso   1.00
O314   O     0.56012   0.46042   0.25001   0.00000  Uiso   1.00
O315   O     0.56012   0.53958   0.25001   0.00000  Uiso   1.00
O316   O     0.43988   0.46042   0.25000   0.00000  Uiso   1.00
C317   C     0.42092   0.50047   0.25266   0.00000  Uiso   1.00
C318   C     0.57908   0.49953   0.24734   0.00000  Uiso   1.00
O319   O     0.49999   0.53960   0.18513   0.00000  Uiso   1.00
O320   O     0.50001   0.46040   0.31487   0.00000  Uiso   1.00
O321   O     0.50001   0.53960   0.31487   0.00000  Uiso   1.00
O322   O     0.49999   0.46040   0.18513   0.00000  Uiso   1.00
C323   C     0.49897   0.50019   0.16460   0.00000  Uiso   1.00
C324   C     0.50104   0.49981   0.33540   0.00000  Uiso   1.00
Cu325  Cu    0.50000   0.54689   0.25000   0.00000  Uiso   1.00
Cu326  Cu    0.50000   0.45311   0.25000   0.00000  Uiso   1.00
C327   C     0.53911   0.49341   0.40926   0.00000  Uiso   1.00
C328   C     0.46089   0.50659   0.09074   0.00000  Uiso   1.00
C329   C     0.50206   0.49957   0.38366   0.00000  Uiso   1.00
C330   C     0.49794   0.50043   0.11634   0.00000  Uiso   1.00
C331   C     0.46501   0.50488   0.40387   0.00000  Uiso   1.00
C332   C     0.53499   0.49512   0.09613   0.00000  Uiso   1.00
C333   C     0.46392   0.50443   0.45012   0.00000  Uiso   1.00
C334   C     0.53608   0.49557   0.04988   0.00000  Uiso   1.00
C335   C     0.50062   0.49967   0.47657   0.00000  Uiso   1.00
C336   C     0.49938   0.50033   0.02343   0.00000  Uiso   1.00
C337   C     0.53849   0.49440   0.45626   0.00000  Uiso   1.00
C338   C     0.46151   0.50560   0.04374   0.00000  Uiso   1.00
C339   C     0.42656   0.50854   0.47022   0.00000  Uiso   1.00
C340   C     0.57344   0.49146   0.02978   0.00000  Uiso   1.00
C341   C     0.42527   0.50864   0.01649   0.00000  Uiso   1.00
C342   C     0.57473   0.49136   0.48351   0.00000  Uiso   1.00
H343   H     0.39558   0.51059   0.03044   0.00000  Uiso   1.00
H344   H     0.60442   0.48941   0.46956   0.00000  Uiso   1.00
C345   C     0.35582   0.45914   0.26125   0.00000  Uiso   1.00
C346   C     0.64419   0.54086   0.23875   0.00000  Uiso   1.00
C347   C     0.64686   0.45721   0.25314   0.00000  Uiso   1.00
C348   C     0.35314   0.54279   0.24686   0.00000  Uiso   1.00
C349   C     0.62388   0.49869   0.24463   0.00000  Uiso   1.00
C350   C     0.37612   0.50131   0.25537   0.00000  Uiso   1.00
C351   C     0.48321   0.35867   0.21440   0.00000  Uiso   1.00
C352   C     0.51679   0.64133   0.28560   0.00000  Uiso   1.00
C353   C     0.51626   0.35720   0.28587   0.00000  Uiso   1.00
C354   C     0.48374   0.64280   0.21413   0.00000  Uiso   1.00
N355   N     0.50000   0.61736   0.25000   0.00000  Uiso   1.00
N356   N     0.50000   0.38264   0.25000   0.00000  Uiso   1.00
N357   N     0.57673   0.48550   0.38764   0.00000  Uiso   1.00
O358   O     0.58716   0.51286   0.35572   0.00000  Uiso   1.00
O359   O     0.59973   0.44948   0.39830   0.00000  Uiso   1.00
N360   N     0.42327   0.51450   0.11236   0.00000  Uiso   1.00
O361   O     0.41284   0.48714   0.14428   0.00000  Uiso   1.00
O362   O     0.40027   0.55052   0.10170   0.00000  Uiso   1.00
H363   H     0.43690   0.50894   0.38332   0.00000  Uiso   1.00
H364   H     0.56310   0.49106   0.11668   0.00000  Uiso   1.00
H365   H     0.39818   0.51142   0.45009   0.00000  Uiso   1.00
H366   H     0.60182   0.48858   0.04991   0.00000  Uiso   1.00
N367   N     0.37784   0.41836   0.27745   0.00000  Uiso   1.00
O368   O     0.39715   0.41858   0.31648   0.00000  Uiso   1.00
O369   O     0.37840   0.38093   0.25365   0.00000  Uiso   1.00
N370   N     0.62216   0.58164   0.22255   0.00000  Uiso   1.00
O371   O     0.60285   0.58142   0.18352   0.00000  Uiso   1.00
O372   O     0.62160   0.61907   0.24634   0.00000  Uiso   1.00
N373   N     0.62798   0.41269   0.25163   0.00000  Uiso   1.00
O374   O     0.61054   0.39873   0.21428   0.00000  Uiso   1.00
O375   O     0.63495   0.38293   0.28406   0.00000  Uiso   1.00
N376   N     0.37202   0.58731   0.24837   0.00000  Uiso   1.00
O377   O     0.38946   0.60127   0.28572   0.00000  Uiso   1.00
O378   O     0.36505   0.61707   0.21594   0.00000  Uiso   1.00
N379   N     0.46285   0.38280   0.17760   0.00000  Uiso   1.00
O380   O     0.42461   0.39464   0.17969   0.00000  Uiso   1.00
O381   O     0.47936   0.38375   0.13909   0.00000  Uiso   1.00
N382   N     0.53715   0.61720   0.32240   0.00000  Uiso   1.00
O383   O     0.57540   0.60537   0.32031   0.00000  Uiso   1.00
O384   O     0.52064   0.61624   0.36091   0.00000  Uiso   1.00
N385   N     0.53275   0.37973   0.32477   0.00000  Uiso   1.00
O386   O     0.56681   0.40164   0.32360   0.00000  Uiso   1.00
O387   O     0.51445   0.37705   0.36213   0.00000  Uiso   1.00
N388   N     0.46725   0.62027   0.17523   0.00000  Uiso   1.00
O389   O     0.43319   0.59836   0.17640   0.00000  Uiso   1.00
O390   O     0.48556   0.62294   0.13787   0.00000  Uiso   1.00
O391   O     0.77321   0.53958   0.25000   0.00000  Uiso   1.00
O392   O     0.89345   0.46042   0.25001   0.00000  Uiso   1.00
O393   O     0.89345   0.53958   0.25001   0.00000  Uiso   1.00
O394   O     0.77321   0.46042   0.25000   0.00000  Uiso   1.00
C395   C     0.75425   0.50047   0.25266   0.00000  Uiso   1.00
C396   C     0.91242   0.49953   0.24734   0.00000  Uiso   1.00
O397   O     0.83332   0.53960   0.18513   0.00000  Uiso   1.00
O398   O     0.83334   0.46040   0.31487   0.00000  Uiso   1.00
O399   O     0.83334   0.53960   0.31487   0.00000  Uiso   1.00
O400   O     0.83332   0.46040   0.18513   0.00000  Uiso   1.00
C401   C     0.83230   0.50019   0.16460   0.00000  Uiso   1.00
C402   C     0.83437   0.49981   0.33540   0.00000  Uiso   1.00
Cu403  Cu    0.83333   0.54689   0.25000   0.00000  Uiso   1.00
Cu404  Cu    0.83333   0.45311   0.25000   0.00000  Uiso   1.00
C405   C     0.87244   0.49341   0.40926   0.00000  Uiso   1.00
C406   C     0.79423   0.50659   0.09074   0.00000  Uiso   1.00
C407   C     0.83539   0.49957   0.38366   0.00000  Uiso   1.00
C408   C     0.83128   0.50043   0.11634   0.00000  Uiso   1.00
C409   C     0.79834   0.50488   0.40387   0.00000  Uiso   1.00
C410   C     0.86832   0.49512   0.09613   0.00000  Uiso   1.00
C411   C     0.79725   0.50443   0.45012   0.00000  Uiso   1.00
C412   C     0.86941   0.49557   0.04988   0.00000  Uiso   1.00
C413   C     0.83395   0.49967   0.47657   0.00000  Uiso   1.00
C414   C     0.83272   0.50033   0.02343   0.00000  Uiso   1.00
C415   C     0.87182   0.49440   0.45626   0.00000  Uiso   1.00
C416   C     0.79484   0.50560   0.04374   0.00000  Uiso   1.00
C417   C     0.75989   0.50854   0.47022   0.00000  Uiso   1.00
C418   C     0.90677   0.49146   0.02978   0.00000  Uiso   1.00
C419   C     0.75860   0.50864   0.01649   0.00000  Uiso   1.00
C420   C     0.90806   0.49136   0.48351   0.00000  Uiso   1.00
H421   H     0.72892   0.51059   0.03044   0.00000  Uiso   1.00
H422   H     0.93775   0.48941   0.46956   0.00000  Uiso   1.00
C423   C     0.68915   0.45914   0.26125   0.00000  Uiso   1.00
C424   C     0.97752   0.54086   0.23875   0.00000  Uiso   1.00
C425   C     0.98019   0.45721   0.25314   0.00000  Uiso   1.00
C426   C     0.68647   0.54279   0.24686   0.00000  Uiso   1.00
C427   C     0.95722   0.49869   0.24463   0.00000  Uiso   1.00
C428   C     0.70945   0.50131   0.25537   0.00000  Uiso   1.00
C429   C     0.81655   0.35867   0.21440   0.00000  Uiso   1.00
C430   C     0.85012   0.64133   0.28560   0.00000  Uiso   1.00
C431   C     0.84960   0.35720   0.28587   0.00000  Uiso   1.00
C432   C     0.81707   0.64280   0.21413   0.00000  Uiso   1.00
N433   N     0.83333   0.61736   0.25000   0.00000  Uiso   1.00
N434   N     0.83333   0.38264   0.25000   0.00000  Uiso   1.00
N435   N     0.91007   0.48550   0.38764   0.00000  Uiso   1.00
O436   O     0.92049   0.51286   0.35572   0.00000  Uiso   1.00
O437   O     0.93306   0.44948   0.39830   0.00000  Uiso   1.00
N438   N     0.75660   0.51450   0.11236   0.00000  Uiso   1.00
O439   O     0.74617   0.48714   0.14428   0.00000  Uiso   1.00
O440   O     0.73361   0.55052   0.10170   0.00000  Uiso   1.00
H441   H     0.77023   0.50894   0.38332   0.00000  Uiso   1.00
H442   H     0.89643   0.49106   0.11668   0.00000  Uiso   1.00
H443   H     0.73152   0.51142   0.45009   0.00000  Uiso   1.00
H444   H     0.93515   0.48858   0.04991   0.00000  Uiso   1.00
N445   N     0.71117   0.41836   0.27745   0.00000  Uiso   1.00
O446   O     0.73049   0.41858   0.31648   0.00000  Uiso   1.00
O447   O     0.71174   0.38093   0.25365   0.00000  Uiso   1.00
N448   N     0.95549   0.58164   0.22255   0.00000  Uiso   1.00
O449   O     0.93618   0.58142   0.18352   0.00000  Uiso   1.00
O450   O     0.95493   0.61907   0.24634   0.00000  Uiso   1.00
N451   N     0.96132   0.41269   0.25163   0.00000  Uiso   1.00
O452   O     0.94388   0.39873   0.21428   0.00000  Uiso   1.00
O453   O     0.96829   0.38293   0.28406   0.00000  Uiso   1.00
N454   N     0.70535   0.58731   0.24837   0.00000  Uiso   1.00
O455   O     0.72279   0.60127   0.28572   0.00000  Uiso   1.00
O456   O     0.69838   0.61707   0.21594   0.00000  Uiso   1.00
N457   N     0.79619   0.38280   0.17760   0.00000  Uiso   1.00
O458   O     0.75794   0.39464   0.17969   0.00000  Uiso   1.00
O459   O     0.81269   0.38375   0.13909   0.00000  Uiso   1.00
N460   N     0.87048   0.61720   0.32240   0.00000  Uiso   1.00
O461   O     0.90873   0.60537   0.32031   0.00000  Uiso   1.00
O462   O     0.85398   0.61624   0.36091   0.00000  Uiso   1.00
N463   N     0.86608   0.37973   0.32477   0.00000  Uiso   1.00
O464   O     0.90014   0.40164   0.32360   0.00000  Uiso   1.00
O465   O     0.84778   0.37705   0.36213   0.00000  Uiso   1.00
N466   N     0.80059   0.62027   0.17523   0.00000  Uiso   1.00
O467   O     0.76653   0.59836   0.17640   0.00000  Uiso   1.00
O468   O     0.81890   0.62294   0.13787   0.00000  Uiso   1.00
O469   O     0.10655   0.87291   0.25000   0.00000  Uiso   1.00
O470   O     0.22679   0.79375   0.25001   0.00000  Uiso   1.00
O471   O     0.22679   0.87291   0.25001   0.00000  Uiso   1.00
O472   O     0.10655   0.79375   0.25000   0.00000  Uiso   1.00
C473   C     0.08758   0.83380   0.25266   0.00000  Uiso   1.00
C474   C     0.24575   0.83286   0.24734   0.00000  Uiso   1.00
O475   O     0.16666   0.87293   0.18513   0.00000  Uiso   1.00
O476   O     0.16668   0.79373   0.31487   0.00000  Uiso   1.00
O477   O     0.16668   0.87293   0.31487   0.00000  Uiso   1.00
O478   O     0.16666   0.79373   0.18513   0.00000  Uiso   1.00
C479   C     0.16563   0.83352   0.16460   0.00000  Uiso   1.00
C480   C     0.16770   0.83315   0.33540   0.00000  Uiso   1.00
Cu481  Cu    0.16667   0.88022   0.25000   0.00000  Uiso   1.00
Cu482  Cu    0.16667   0.78645   0.25000   0.00000  Uiso   1.00
C483   C     0.20577   0.82674   0.40926   0.00000  Uiso   1.00
C484   C     0.12756   0.83992   0.09074   0.00000  Uiso   1.00
C485   C     0.16873   0.83290   0.38366   0.00000  Uiso   1.00
C486   C     0.16461   0.83377   0.11634   0.00000  Uiso   1.00
C487   C     0.13168   0.83821   0.40387   0.00000  Uiso   1.00
C488   C     0.20166   0.82845   0.09613   0.00000  Uiso   1.00
C489   C     0.13059   0.83776   0.45012   0.00000  Uiso   1.00
C490   C     0.20275   0.82891   0.04988   0.00000  Uiso   1.00
C491   C     0.16728   0.83300   0.47657   0.00000  Uiso   1.00
C492   C     0.16605   0.83366   0.02343   0.00000  Uiso   1.00
C493   C     0.20516   0.82773   0.45626   0.00000  Uiso   1.00
C494   C     0.12818   0.83893   0.04374   0.00000  Uiso   1.00
C495   C     0.09323   0.84187   0.47022   0.00000  Uiso   1.00
C496   C     0.24011   0.82480   0.02978   0.00000  Uiso   1.00
C497   C     0.09194   0.84198   0.01649   0.00000  Uiso   1.00
C498   C     0.24140   0.82469   0.48351   0.00000  Uiso   1.00
H499   H     0.06225   0.84392   0.03044   0.00000  Uiso   1.00
H500   H     0.27108   0.82274   0.46956   0.00000  Uiso   1.00
C501   C     0.02248   0.79247   0.26125   0.00000  Uiso   1.00
C502   C     0.31085   0.87419   0.23875   0.00000  Uiso   1.00
C503   C     0.31353   0.79054   0.25314   0.00000  Uiso   1.00
C504   C     0.01981   0.87612   0.24686   0.00000  Uiso   1.00
C505   C     0.29055   0.83202   0.24463   0.00000  Uiso   1.00
C506   C     0.04278   0.83464   0.25537   0.00000  Uiso   1.00
C507   C     0.14988   0.69200   0.21440   0.00000  Uiso   1.00
C508   C     0.18345   0.97466   0.28560   0.00000  Uiso   1.00
C509   C     0.18293   0.69053   0.28587   0.00000  Uiso   1.00
C510   C     0.15040   0.97614   0.21413   0.00000  Uiso   1.00
N511   N     0.16667   0.95069   0.25000   0.00000  Uiso   1.00
N512   N     0.16667   0.71598   0.25000   0.00000  Uiso   1.00
N513   N     0.24340   0.81884   0.38764   0.00000  Uiso   1.00
O514   O     0.25383   0.84619   0.35572   0.00000  Uiso   1.00
O515   O     0.26639   0.78281   0.39830   0.00000  Uiso   1.00
N516   N     0.08993   0.84783   0.11236   0.00000  Uiso   1.00
O517   O     0.07951   0.82048   0.14428   0.00000  Uiso   1.00
O518   O     0.06694   0.88386   0.10170   0.00000  Uiso   1.00
H519   H     0.10357   0.84228   0.38332   0.00000  Uiso   1.00
H520   H     0.22977   0.82439   0.11668   0.00000  Uiso   1.00
H521   H     0.06485   0.84475   0.45009   0.00000  Uiso   1.00
H522   H     0.26848   0.82192   0.04991   0.00000  Uiso   1.00
N523   N     0.04451   0.75169   0.27745   0.00000  Uiso   1.00
O524   O     0.06382   0.75191   0.31648   0.00000  Uiso   1.00
O525   O     0.04507   0.71427   0.25365   0.00000  Uiso   1.00
N526   N     0.28883   0.91498   0.22255   0.00000  Uiso   1.00
O527   O     0.26951   0.91475   0.18352   0.00000  Uiso   1.00
O528   O     0.28826   0.95240   0.24634   0.00000  Uiso   1.00
N529   N     0.29465   0.74602   0.25163   0.00000  Uiso   1.00
O530   O     0.27721   0.73206   0.21428   0.00000  Uiso   1.00
O531   O     0.30162   0.71626   0.28406   0.00000  Uiso   1.00
N532   N     0.03868   0.92064   0.24837   0.00000  Uiso   1.00
O533   O     0.05612   0.93461   0.28572   0.00000  Uiso   1.00
O534   O     0.03171   0.95041   0.21594   0.00000  Uiso   1.00
N535   N     0.12952   0.71614   0.17760   0.00000  Uiso   1.00
O536   O     0.09127   0.72797   0.17969   0.00000  Uiso   1.00
O537   O     0.14602   0.71709   0.13909   0.00000  Uiso   1.00
N538   N     0.20381   0.95053   0.32240   0.00000  Uiso   1.00
O539   O     0.24206   0.93870   0.32031   0.00000  Uiso   1.00
O540   O     0.18731   0.94958   0.36091   0.00000  Uiso   1.00
N541   N     0.19941   0.71306   0.32477   0.00000  Uiso   1.00
O542   O     0.23347   0.73498   0.32360   0.00000  Uiso   1.00
O543   O     0.18111   0.71038   0.36213   0.00000  Uiso   1.00
N544   N     0.13392   0.95360   0.17523   0.00000  Uiso   1.00
O545   O     0.09986   0.93170   0.17640   0.00000  Uiso   1.00
O546   O     0.15223   0.95628   0.13787   0.00000  Uiso   1.00
O547   O     0.43988   0.87291   0.25000   0.00000  Uiso   1.00
O548   O     0.56012   0.79375   0.25001   0.00000  Uiso   1.00
O549   O     0.56012   0.87291   0.25001   0.00000  Uiso   1.00
O550   O     0.43988   0.79375   0.25000   0.00000  Uiso   1.00
C551   C     0.42092   0.83380   0.25266   0.00000  Uiso   1.00
C552   C     0.57908   0.83286   0.24734   0.00000  Uiso   1.00
O553   O     0.49999   0.87293   0.18513   0.00000  Uiso   1.00
O554   O     0.50001   0.79373   0.31487   0.00000  Uiso   1.00
O555   O     0.50001   0.87293   0.31487   0.00000  Uiso   1.00
O556   O     0.49999   0.79373   0.18513   0.00000  Uiso   1.00
C557   C     0.49897   0.83352   0.16460   0.00000  Uiso   1.00
C558   C     0.50104   0.83315   0.33540   0.00000  Uiso   1.00
Cu559  Cu    0.50000   0.88022   0.25000   0.00000  Uiso   1.00
Cu560  Cu    0.50000   0.78645   0.25000   0.00000  Uiso   1.00
C561   C     0.53911   0.82674   0.40926   0.00000  Uiso   1.00
C562   C     0.46089   0.83992   0.09074   0.00000  Uiso   1.00
C563   C     0.50206   0.83290   0.38366   0.00000  Uiso   1.00
C564   C     0.49794   0.83377   0.11634   0.00000  Uiso   1.00
C565   C     0.46501   0.83821   0.40387   0.00000  Uiso   1.00
C566   C     0.53499   0.82845   0.09613   0.00000  Uiso   1.00
C567   C     0.46392   0.83776   0.45012   0.00000  Uiso   1.00
C568   C     0.53608   0.82891   0.04988   0.00000  Uiso   1.00
C569   C     0.50062   0.83300   0.47657   0.00000  Uiso   1.00
C570   C     0.49938   0.83366   0.02343   0.00000  Uiso   1.00
C571   C     0.53849   0.82773   0.45626   0.00000  Uiso   1.00
C572   C     0.46151   0.83893   0.04374   0.00000  Uiso   1.00
C573   C     0.42656   0.84187   0.47022   0.00000  Uiso   1.00
C574   C     0.57344   0.82480   0.02978   0.00000  Uiso   1.00
C575   C     0.42527   0.84198   0.01649   0.00000  Uiso   1.00
C576   C     0.57473   0.82469   0.48351   0.00000  Uiso   1.00
H577   H     0.39558   0.84392   0.03044   0.00000  Uiso   1.00
H578   H     0.60442   0.82274   0.46956   0.00000  Uiso   1.00
C579   C     0.35582   0.79247   0.26125   0.00000  Uiso   1.00
C580   C     0.64419   0.87419   0.23875   0.00000  Uiso   1.00
C581   C     0.64686   0.79054   0.25314   0.00000  Uiso   1.00
C582   C     0.35314   0.87612   0.24686   0.00000  Uiso   1.00
C583   C     0.62388   0.83202   0.24463   0.00000  Uiso   1.00
C584   C     0.37612   0.83464   0.25537   0.00000  Uiso   1.00
C585   C     0.48321   0.69200   0.21440   0.00000  Uiso   1.00
C586   C     0.51679   0.97466   0.28560   0.00000  Uiso   1.00
C587   C     0.51626   0.69053   0.28587   0.00000  Uiso   1.00
C588   C     0.48374   0.97614   0.21413   0.00000  Uiso   1.00
N589   N     0.50000   0.95069   0.25000   0.00000  Uiso   1.00
N590   N     0.50000   0.71598   0.25000   0.00000  Uiso   1.00
N591   N     0.57673   0.81884   0.38764   0.00000  Uiso   1.00
O592   O     0.58716   0.84619   0.35572   0.00000  Uiso   1.00
O593   O     0.59973   0.78281   0.39830   0.00000  Uiso   1.00
N594   N     0.42327   0.84783   0.11236   0.00000  Uiso   1.00
O595   O     0.41284   0.82048   0.14428   0.00000  Uiso   1.00
O596   O     0.40027   0.88386   0.10170   0.00000  Uiso   1.00
H597   H     0.43690   0.84228   0.38332   0.00000  Uiso   1.00
H598   H     0.56310   0.82439   0.11668   0.00000  Uiso   1.00
H599   H     0.39818   0.84475   0.45009   0.00000  Uiso   1.00
H600   H     0.60182   0.82192   0.04991   0.00000  Uiso   1.00
N601   N     0.37784   0.75169   0.27745   0.00000  Uiso   1.00
O602   O     0.39715   0.75191   0.31648   0.00000  Uiso   1.00
O603   O     0.37840   0.71427   0.25365   0.00000  Uiso   1.00
N604   N     0.62216   0.91498   0.22255   0.00000  Uiso   1.00
O605   O     0.60285   0.91475   0.18352   0.00000  Uiso   1.00
O606   O     0.62160   0.95240   0.24634   0.00000  Uiso   1.00
N607   N     0.62798   0.74602   0.25163   0.00000  Uiso   1.00
O608   O     0.61054   0.73206   0.21428   0.00000  Uiso   1.00
O609   O     0.63495   0.71626   0.28406   0.00000  Uiso   1.00
N610   N     0.37202   0.92064   0.24837   0.00000  Uiso   1.00
O611   O     0.38946   0.93461   0.28572   0.00000  Uiso   1.00
O612   O     0.36505   0.95041   0.21594   0.00000  Uiso   1.00
N613   N     0.46285   0.71614   0.17760   0.00000  Uiso   1.00
O614   O     0.42461   0.72797   0.17969   0.00000  Uiso   1.00
O615   O     0.47936   0.71709   0.13909   0.00000  Uiso   1.00
N616   N     0.53715   0.95053   0.32240   0.00000  Uiso   1.00
O617   O     0.57540   0.93870   0.32031   0.00000  Uiso   1.00
O618   O     0.52064   0.94958   0.36091   0.00000  Uiso   1.00
N619   N     0.53275   0.71306   0.32477   0.00000  Uiso   1.00
O620   O     0.56681   0.73498   0.32360   0.00000  Uiso   1.00
O621   O     0.51445   0.71038   0.36213   0.00000  Uiso   1.00
N622   N     0.46725   0.95360   0.17523   0.00000  Uiso   1.00
O623   O     0.43319   0.93170   0.17640   0.00000  Uiso   1.00
O624   O     0.48556   0.95628   0.13787   0.00000  Uiso   1.00
O625   O     0.77321   0.87291   0.25000   0.00000  Uiso   1.00
O626   O     0.89345   0.79375   0.25001   0.00000  Uiso   1.00
O627   O     0.89345   0.87291   0.25001   0.00000  Uiso   1.00
O628   O     0.77321   0.79375   0.25000   0.00000  Uiso   1.00
C629   C     0.75425   0.83380   0.25266   0.00000  Uiso   1.00
C630   C     0.91242   0.83286   0.24734   0.00000  Uiso   1.00
O631   O     0.83332   0.87293   0.18513   0.00000  Uiso   1.00
O632   O     0.83334   0.79373   0.31487   0.00000  Uiso   1.00
O633   O     0.83334   0.87293   0.31487   0.00000  Uiso   1.00
O634   O     0.83332   0.79373   0.18513   0.00000  Uiso   1.00
C635   C     0.83230   0.83352   0.16460   0.00000  Uiso   1.00
C636   C     0.83437   0.83315   0.33540   0.00000  Uiso   1.00
Cu637  Cu    0.83333   0.88022   0.25000   0.00000  Uiso   1.00
Cu638  Cu    0.83333   0.78645   0.25000   0.00000  Uiso   1.00
C639   C     0.87244   0.82674   0.40926   0.00000  Uiso   1.00
C640   C     0.79423   0.83992   0.09074   0.00000  Uiso   1.00
C641   C     0.83539   0.83290   0.38366   0.00000  Uiso   1.00
C642   C     0.83128   0.83377   0.11634   0.00000  Uiso   1.00
C643   C     0.79834   0.83821   0.40387   0.00000  Uiso   1.00
C644   C     0.86832   0.82845   0.09613   0.00000  Uiso   1.00
C645   C     0.79725   0.83776   0.45012   0.00000  Uiso   1.00
C646   C     0.86941   0.82891   0.04988   0.00000  Uiso   1.00
C647   C     0.83395   0.83300   0.47657   0.00000  Uiso   1.00
C648   C     0.83272   0.83366   0.02343   0.00000  Uiso   1.00
C649   C     0.87182   0.82773   0.45626   0.00000  Uiso   1.00
C650   C     0.79484   0.83893   0.04374   0.00000  Uiso   1.00
C651   C     0.75989   0.84187   0.47022   0.00000  Uiso   1.00
C652   C     0.90677   0.82480   0.02978   0.00000  Uiso   1.00
C653   C     0.75860   0.84198   0.01649   0.00000  Uiso   1.00
C654   C     0.90806   0.82469   0.48351   0.00000  Uiso   1.00
H655   H     0.72892   0.84392   0.03044   0.00000  Uiso   1.00
H656   H     0.93775   0.82274   0.46956   0.00000  Uiso   1.00
C657   C     0.68915   0.79247   0.26125   0.00000  Uiso   1.00
C658   C     0.97752   0.87419   0.23875   0.00000  Uiso   1.00
C659   C     0.98019   0.79054   0.25314   0.00000  Uiso   1.00
C660   C     0.68647   0.87612   0.24686   0.00000  Uiso   1.00
C661   C     0.95722   0.83202   0.24463   0.00000  Uiso   1.00
C662   C     0.70945   0.83464   0.25537   0.00000  Uiso   1.00
C663   C     0.81655   0.69200   0.21440   0.00000  Uiso   1.00
C664   C     0.85012   0.97466   0.28560   0.00000  Uiso   1.00
C665   C     0.84960   0.69053   0.28587   0.00000  Uiso   1.00
C666   C     0.81707   0.97614   0.21413   0.00000  Uiso   1.00
N667   N     0.83333   0.95069   0.25000   0.00000  Uiso   1.00
N668   N     0.83333   0.71598   0.25000   0.00000  Uiso   1.00
N669   N     0.91007   0.81884   0.38764   0.00000  Uiso   1.00
O670   O     0.92049   0.84619   0.35572   0.00000  Uiso   1.00
O671   O     0.93306   0.78281   0.39830   0.00000  Uiso   1.00
N672   N     0.75660   0.84783   0.11236   0.00000  Uiso   1.00
O673   O     0.74617   0.82048   0.14428   0.00000  Uiso   1.00
O674   O     0.73361   0.88386   0.10170   0.00000  Uiso   1.00
H675   H     0.77023   0.84228   0.38332   0.00000  Uiso   1.00
H676   H     0.89643   0.82439   0.11668   0.00000  Uiso   1.00
H677   H     0.73152   0.84475   0.45009   0.00000  Uiso   1.00
H678   H     0.93515   0.82192   0.04991   0.00000  Uiso   1.00
N679   N     0.71117   0.75169   0.27745   0.00000  Uiso   1.00
O680   O     0.73049   0.75191   0.31648   0.00000  Uiso   1.00
O681   O     0.71174   0.71427   0.25365   0.00000  Uiso   1.00
N682   N     0.95549   0.91498   0.22255   0.00000  Uiso   1.00
O683   O     0.93618   0.91475   0.18352   0.00000  Uiso   1.00
O684   O     0.95493   0.95240   0.24634   0.00000  Uiso   1.00
N685   N     0.96132   0.74602   0.25163   0.00000  Uiso   1.00
O686   O     0.94388   0.73206   0.21428   0.00000  Uiso   1.00
O687   O     0.96829   0.71626   0.28406   0.00000  Uiso   1.00
N688   N     0.70535   0.92064   0.24837   0.00000  Uiso   1.00
O689   O     0.72279   0.93461   0.28572   0.00000  Uiso   1.00
O690   O     0.69838   0.95041   0.21594   0.00000  Uiso   1.00
N691   N     0.79619   0.71614   0.17760   0.00000  Uiso   1.00
O692   O     0.75794   0.72797   0.17969   0.00000  Uiso   1.00
O693   O     0.81269   0.71709   0.13909   0.00000  Uiso   1.00
N694   N     0.87048   0.95053   0.32240   0.00000  Uiso   1.00
O695   O     0.90873   0.93870   0.32031   0.00000  Uiso   1.00
O696   O     0.85398   0.94958   0.36091   0.00000  Uiso   1.00
N697   N     0.86608   0.71306   0.32477   0.00000  Uiso   1.00
O698   O     0.90014   0.73498   0.32360   0.00000  Uiso   1.00
O699   O     0.84778   0.71038   0.36213   0.00000  Uiso   1.00
N700   N     0.80059   0.95360   0.17523   0.00000  Uiso   1.00
O701   O     0.76653   0.93170   0.17640   0.00000  Uiso   1.00
O702   O     0.81890   0.95628   0.13787   0.00000  Uiso   1.00
O703   O     0.10655   0.20625   0.75000   0.00000  Uiso   1.00
O704   O     0.22679   0.12709   0.75001   0.00000  Uiso   1.00
O705   O     0.22679   0.20625   0.75001   0.00000  Uiso   1.00
O706   O     0.10655   0.12709   0.75000   0.00000  Uiso   1.00
C707   C     0.08758   0.16714   0.75266   0.00000  Uiso   1.00
C708   C     0.24575   0.16620   0.74734   0.00000  Uiso   1.00
O709   O     0.16666   0.20627   0.68513   0.00000  Uiso   1.00
O710   O     0.16668   0.12707   0.81487   0.00000  Uiso   1.00
O711   O     0.16668   0.20627   0.81487   0.00000  Uiso   1.00
O712   O     0.16666   0.12707   0.68513   0.00000  Uiso   1.00
C713   C     0.16563   0.16685   0.66460   0.00000  Uiso   1.00
C714   C     0.16770   0.16648   0.83540   0.00000  Uiso   1.00
Cu715  Cu    0.16667   0.21355   0.75000   0.00000  Uiso   1.00
Cu716  Cu    0.16667   0.11978   0.75000   0.00000  Uiso   1.00
C717   C     0.20577   0.16008   0.90926   0.00000  Uiso   1.00
C718   C     0.12756   0.17326   0.59074   0.00000  Uiso   1.00
C719   C     0.16873   0.16623   0.88366   0.00000  Uiso   1.00
C720   C     0.16461   0.16710   0.61634   0.00000  Uiso   1.00
C721   C     0.13168   0.17155   0.90387   0.00000  Uiso   1.00
C722   C     0.20166   0.16179   0.59613   0.00000  Uiso   1.00
C723   C     0.13059   0.17109   0.95012   0.00000  Uiso   1.00
C724   C     0.20275   0.16224   0.54988   0.00000  Uiso   1.00
C725   C     0.16728   0.16634   0.97657   0.00000  Uiso   1.00
C726   C     0.16605   0.16700   0.52343   0.00000  Uiso   1.00
C727   C     0.20516   0.16107   0.95626   0.00000  Uiso   1.00
C728   C     0.12818   0.17227   0.54374   0.00000  Uiso   1.00
C729   C     0.09323   0.17520   0.97022   0.00000  Uiso   1.00
C730   C     0.24011   0.15813   0.52978   0.00000  Uiso   1.00
C731   C     0.09194   0.17531   0.51649   0.00000  Uiso   1.00
C732   C     0.24140   0.15802   0.98351   0.00000  Uiso   1.00
H733   H     0.06225   0.17726   0.53044   0.00000  Uiso   1.00
H734   H     0.27108   0.15608   0.96956   0.00000  Uiso   1.00
C735   C     0.02248   0.12581   0.76125   0.00000  Uiso   1.00
C736   C     0.31085   0.20753   0.73875   0.00000  Uiso   1.00
C737   C     0.31353   0.12388   0.75314   0.00000  Uiso   1.00
C738   C     0.01981   0.20946   0.74686   0.00000  Uiso   1.00
C739   C     0.29055   0.16536   0.74463   0.00000  Uiso   1.00
C740   C     0.04278   0.16798   0.75537   0.00000  Uiso   1.00
C741   C     0.14988   0.02534   0.71440   0.00000  Uiso   1.00
C742   C     0.18345   0.30800   0.78560   0.00000  Uiso   1.00
C743   C     0.18293   0.02386   0.78587   0.00000  Uiso   1.00
C744   C     0.15040   0.30947   0.71413   0.00000  Uiso   1.00
N745   N     0.16667   0.28402   0.75000   0.00000  Uiso   1.00
N746   N     0.16667   0.04931   0.75000   0.00000  Uiso   1.00
N747   N     0.24340   0.15217   0.88764   0.00000  Uiso   1.00
O748   O     0.25383   0.17953   0.85572   0.00000  Uiso   1.00
O749   O     0.26639   0.11614   0.89830   0.00000  Uiso   1.00
N750   N     0.08993   0.18117   0.61236   0.00000  Uiso   1.00
O751   O     0.07951   0.15381   0.64428   0.00000  Uiso   1.00
O752   O     0.06694   0.21719   0.60170   0.00000  Uiso   1.00
H753   H     0.10357   0.17561   0.88332   0.00000  Uiso   1.00
H754   H     0.22977   0.15772   0.61668   0.00000  Uiso   1.00
H755   H     0.06485   0.17808   0.95009   0.00000  Uiso   1.00
H756   H     0.26848   0.15525   0.54991   0.00000  Uiso   1.00
N757   N     0.04451   0.08502   0.77745   0.00000  Uiso   1.00
O758   O     0.06382   0.08525   0.81648   0.00000  Uiso   1.00
O759   O     0.04507   0.04760   0.75365   0.00000  Uiso   1.00
N760   N     0.28883   0.24831   0.72255   0.00000  Uiso   1.00
O761   O     0.26951   0.24809   0.68352   0.00000  Uiso   1.00
O762   O     0.28826   0.28573   0.74634   0.00000  Uiso   1.00
N763   N     0.29465   0.07936   0.75163   0.00000  Uiso   1.00
O764   O     0.27721   0.06539   0.71428   0.00000  Uiso   1.00
O765   O     0.30162   0.04959   0.78406   0.00000  Uiso   1.00
N766   N     0.03868   0.25398   0.74837   0.00000  Uiso   1.00
O767   O     0.05612   0.26794   0.78572   0.00000  Uiso   1.00
O768   O     0.03171   0.28374   0.71594   0.00000  Uiso   1.00
N769   N     0.12952   0.04947   0.67760   0.00000  Uiso   1.00
O770   O     0.09127   0.06130   0.67969   0.00000  Uiso   1.00
O771   O     0.14602   0.05042   0.63909   0.00000  Uiso   1.00
N772   N     0.20381   0.28386   0.82240   0.00000  Uiso   1.00
O773   O     0.24206   0.27203   0.82031   0.00000  Uiso   1.00
O774   O     0.18731   0.28291   0.86091   0.00000  Uiso   1.00
N775   N     0.19941   0.04640   0.82477   0.00000  Uiso   1.00
O776   O     0.23347   0.06831   0.82360   0.00000  Uiso   1.00
O777   O     0.18111   0.04372   0.86213   0.00000  Uiso   1.00
N778   N     0.13392   0.28694   0.67523   0.00000  Uiso   1.00
O779   O     0.09986   0.26503   0.67640   0.00000  Uiso   1.00
O780   O     0.15223   0.28961   0.63787   0.00000  Uiso   1.00
O781   O     0.43988   0.20625   0.75000   0.00000  Uiso   1.00
O782   O     0.56012   0.12709   0.75001   0.00000  Uiso   1.00
O783   O     0.56012   0.20625   0.75001   0.00000  Uiso   1.00
O784   O     0.43988   0.12709   0.75000   0.00000  Uiso   1.00
C785   C     0.42092   0.16714   0.75266   0.00000  Uiso   1.00
C786   C     0.57908   0.16620   0.74734   0.00000  Uiso   1.00
O787   O     0.49999   0.20627   0.68513   0.00000  Uiso   1.00
O788   O     0.50001   0.12707   0.81487   0.00000  Uiso   1.00
O789   O     0.50001   0.20627   0.81487   0.00000  Uiso   1.00
O790   O     0.49999   0.12707   0.68513   0.00000  Uiso   1.00
C791   C     0.49897   0.16685   0.66460   0.00000  Uiso   1.00
C792   C     0.50104   0.16648   0.83540   0.00000  Uiso   1.00
Cu793  Cu    0.50000   0.21355   0.75000   0.00000  Uiso   1.00
Cu794  Cu    0.50000   0.11978   0.75000   0.00000  Uiso   1.00
C795   C     0.53911   0.16008   0.90926   0.00000  Uiso   1.00
C796   C     0.46089   0.17326   0.59074   0.00000  Uiso   1.00
C797   C     0.50206   0.16623   0.88366   0.00000  Uiso   1.00
C798   C     0.49794   0.16710   0.61634   0.00000  Uiso   1.00
C799   C     0.46501   0.17155   0.90387   0.00000  Uiso   1.00
C800   C     0.53499   0.16179   0.59613   0.00000  Uiso   1.00
C801   C     0.46392   0.17109   0.95012   0.00000  Uiso   1.00
C802   C     0.53608   0.16224   0.54988   0.00000  Uiso   1.00
C803   C     0.50062   0.16634   0.97657   0.00000  Uiso   1.00
C804   C     0.49938   0.16700   0.52343   0.00000  Uiso   1.00
C805   C     0.53849   0.16107   0.95626   0.00000  Uiso   1.00
C806   C     0.46151   0.17227   0.54374   0.00000  Uiso   1.00
C807   C     0.42656   0.17520   0.97022   0.00000  Uiso   1.00
C808   C     0.57344   0.15813   0.52978   0.00000  Uiso   1.00
C809   C     0.42527   0.17531   0.51649   0.00000  Uiso   1.00
C810   C     0.57473   0.15802   0.98351   0.00000  Uiso   1.00
H811   H     0.39558   0.17726   0.53044   0.00000  Uiso   1.00
H812   H     0.60442   0.15608   0.96956   0.00000  Uiso   1.00
C813   C     0.35582   0.12581   0.76125   0.00000  Uiso   1.00
C814   C     0.64419   0.20753   0.73875   0.00000  Uiso   1.00
C815   C     0.64686   0.12388   0.75314   0.00000  Uiso   1.00
C816   C     0.35314   0.20946   0.74686   0.00000  Uiso   1.00
C817   C     0.62388   0.16536   0.74463   0.00000  Uiso   1.00
C818   C     0.37612   0.16798   0.75537   0.00000  Uiso   1.00
C819   C     0.48321   0.02534   0.71440   0.00000  Uiso   1.00
C820   C     0.51679   0.30800   0.78560   0.00000  Uiso   1.00
C821   C     0.51626   0.02386   0.78587   0.00000  Uiso   1.00
C822   C     0.48374   0.30947   0.71413   0.00000  Uiso   1.00
N823   N     0.50000   0.28402   0.75000   0.00000  Uiso   1.00
N824   N     0.50000   0.04931   0.75000   0.00000  Uiso   1.00
N825   N     0.57673   0.15217   0.88764   0.00000  Uiso   1.00
O826   O     0.58716   0.17953   0.85572   0.00000  Uiso   1.00
O827   O     0.59973   0.11614   0.89830   0.00000  Uiso   1.00
N828   N     0.42327   0.18117   0.61236   0.00000  Uiso   1.00
O829   O     0.41284   0.15381   0.64428   0.00000  Uiso   1.00
O830   O     0.40027   0.21719   0.60170   0.00000  Uiso   1.00
H831   H     0.43690   0.17561   0.88332   0.00000  Uiso   1.00
H832   H     0.56310   0.15772   0.61668   0.00000  Uiso   1.00
H833   H     0.39818   0.17808   0.95009   0.00000  Uiso   1.00
H834   H     0.60182   0.15525   0.54991   0.00000  Uiso   1.00
N835   N     0.37784   0.08502   0.77745   0.00000  Uiso   1.00
O836   O     0.39715   0.08525   0.81648   0.00000  Uiso   1.00
O837   O     0.37840   0.04760   0.75365   0.00000  Uiso   1.00
N838   N     0.62216   0.24831   0.72255   0.00000  Uiso   1.00
O839   O     0.60285   0.24809   0.68352   0.00000  Uiso   1.00
O840   O     0.62160   0.28573   0.74634   0.00000  Uiso   1.00
N841   N     0.62798   0.07936   0.75163   0.00000  Uiso   1.00
O842   O     0.61054   0.06539   0.71428   0.00000  Uiso   1.00
O843   O     0.63495   0.04959   0.78406   0.00000  Uiso   1.00
N844   N     0.37202   0.25398   0.74837   0.00000  Uiso   1.00
O845   O     0.38946   0.26794   0.78572   0.00000  Uiso   1.00
O846   O     0.36505   0.28374   0.71594   0.00000  Uiso   1.00
N847   N     0.46285   0.04947   0.67760   0.00000  Uiso   1.00
O848   O     0.42461   0.06130   0.67969   0.00000  Uiso   1.00
O849   O     0.47936   0.05042   0.63909   0.00000  Uiso   1.00
N850   N     0.53715   0.28386   0.82240   0.00000  Uiso   1.00
O851   O     0.57540   0.27203   0.82031   0.00000  Uiso   1.00
O852   O     0.52064   0.28291   0.86091   0.00000  Uiso   1.00
N853   N     0.53275   0.04640   0.82477   0.00000  Uiso   1.00
O854   O     0.56681   0.06831   0.82360   0.00000  Uiso   1.00
O855   O     0.51445   0.04372   0.86213   0.00000  Uiso   1.00
N856   N     0.46725   0.28694   0.67523   0.00000  Uiso   1.00
O857   O     0.43319   0.26503   0.67640   0.00000  Uiso   1.00
O858   O     0.48556   0.28961   0.63787   0.00000  Uiso   1.00
O859   O     0.77321   0.20625   0.75000   0.00000  Uiso   1.00
O860   O     0.89345   0.12709   0.75001   0.00000  Uiso   1.00
O861   O     0.89345   0.20625   0.75001   0.00000  Uiso   1.00
O862   O     0.77321   0.12709   0.75000   0.00000  Uiso   1.00
C863   C     0.75425   0.16714   0.75266   0.00000  Uiso   1.00
C864   C     0.91242   0.16620   0.74734   0.00000  Uiso   1.00
O865   O     0.83332   0.20627   0.68513   0.00000  Uiso   1.00
O866   O     0.83334   0.12707   0.81487   0.00000  Uiso   1.00
O867   O     0.83334   0.20627   0.81487   0.00000  Uiso   1.00
O868   O     0.83332   0.12707   0.68513   0.00000  Uiso   1.00
C869   C     0.83230   0.16685   0.66460   0.00000  Uiso   1.00
C870   C     0.83437   0.16648   0.83540   0.00000  Uiso   1.00
Cu871  Cu    0.83333   0.21355   0.75000   0.00000  Uiso   1.00
Cu872  Cu    0.83333   0.11978   0.75000   0.00000  Uiso   1.00
C873   C     0.87244   0.16008   0.90926   0.00000  Uiso   1.00
C874   C     0.79423   0.17326   0.59074   0.00000  Uiso   1.00
C875   C     0.83539   0.16623   0.88366   0.00000  Uiso   1.00
C876   C     0.83128   0.16710   0.61634   0.00000  Uiso   1.00
C877   C     0.79834   0.17155   0.90387   0.00000  Uiso   1.00
C878   C     0.86832   0.16179   0.59613   0.00000  Uiso   1.00
C879   C     0.79725   0.17109   0.95012   0.00000  Uiso   1.00
C880   C     0.86941   0.16224   0.54988   0.00000  Uiso   1.00
C881   C     0.83395   0.16634   0.97657   0.00000  Uiso   1.00
C882   C     0.83272   0.16700   0.52343   0.00000  Uiso   1.00
C883   C     0.87182   0.16107   0.95626   0.00000  Uiso   1.00
C884   C     0.79484   0.17227   0.54374   0.00000  Uiso   1.00
C885   C     0.75989   0.17520   0.97022   0.00000  Uiso   1.00
C886   C     0.90677   0.15813   0.52978   0.00000  Uiso   1.00
C887   C     0.75860   0.17531   0.51649   0.00000  Uiso   1.00
C888   C     0.90806   0.15802   0.98351   0.00000  Uiso   1.00
H889   H     0.72892   0.17726   0.53044   0.00000  Uiso   1.00
H890   H     0.93775   0.15608   0.96956   0.00000  Uiso   1.00
C891   C     0.68915   0.12581   0.76125   0.00000  Uiso   1.00
C892   C     0.97752   0.20753   0.73875   0.00000  Uiso   1.00
C893   C     0.98019   0.12388   0.75314   0.00000  Uiso   1.00
C894   C     0.68647   0.20946   0.74686   0.00000  Uiso   1.00
C895   C     0.95722   0.16536   0.74463   0.00000  Uiso   1.00
C896   C     0.70945   0.16798   0.75537   0.00000  Uiso   1.00
C897   C     0.81655   0.02534   0.71440   0.00000  Uiso   1.00
C898   C     0.85012   0.30800   0.78560   0.00000  Uiso   1.00
C899   C     0.84960   0.02386   0.78587   0.00000  Uiso   1.00
C900   C     0.81707   0.30947   0.71413   0.00000  Uiso   1.00
N901   N     0.83333   0.28402   0.75000   0.00000  Uiso   1.00
N902   N     0.83333   0.04931   0.75000   0.00000  Uiso   1.00
N903   N     0.91007   0.15217   0.88764   0.00000  Uiso   1.00
O904   O     0.92049   0.17953   0.85572   0.00000  Uiso   1.00
O905   O     0.93306   0.11614   0.89830   0.00000  Uiso   1.00
N906   N     0.75660   0.18117   0.61236   0.00000  Uiso   1.00
O907   O     0.74617   0.15381   0.64428   0.00000  Uiso   1.00
O908   O     0.73361   0.21719   0.60170   0.00000  Uiso   1.00
H909   H     0.77023   0.17561   0.88332   0.00000  Uiso   1.00
H910   H     0.89643   0.15772   0.61668   0.00000  Uiso   1.00
H911   H     0.73152   0.17808   0.95009   0.00000  Uiso   1.00
H912   H     0.93515   0.15525   0.54991   0.00000  Uiso   1.00
N913   N     0.71117   0.08502   0.77745   0.00000  Uiso   1.00
O914   O     0.73049   0.08525   0.81648   0.00000  Uiso   1.00
O915   O     0.71174   0.04760   0.75365   0.00000  Uiso   1.00
N916   N     0.95549   0.24831   0.72255   0.00000  Uiso   1.00
O917   O     0.93618   0.24809   0.68352   0.00000  Uiso   1.00
O918   O     0.95493   0.28573   0.74634   0.00000  Uiso   1.00
N919   N     0.96132   0.07936   0.75163   0.00000  Uiso   1.00
O920   O     0.94388   0.06539   0.71428   0.00000  Uiso   1.00
O921   O     0.96829   0.04959   0.78406   0.00000  Uiso   1.00
N922   N     0.70535   0.25398   0.74837   0.00000  Uiso   1.00
O923   O     0.72279   0.26794   0.78572   0.00000  Uiso   1.00
O924   O     0.69838   0.28374   0.71594   0.00000  Uiso   1.00
N925   N     0.79619   0.04947   0.67760   0.00000  Uiso   1.00
O926   O     0.75794   0.06130   0.67969   0.00000  Uiso   1.00
O927   O     0.81269   0.05042   0.63909   0.00000  Uiso   1.00
N928   N     0.87048   0.28386   0.82240   0.00000  Uiso   1.00
O929   O     0.90873   0.27203   0.82031   0.00000  Uiso   1.00
O930   O     0.85398   0.28291   0.86091   0.00000  Uiso   1.00
N931   N     0.86608   0.04640   0.82477   0.00000  Uiso   1.00
O932   O     0.90014   0.06831   0.82360   0.00000  Uiso   1.00
O933   O     0.84778   0.04372   0.86213   0.00000  Uiso   1.00
N934   N     0.80059   0.28694   0.67523   0.00000  Uiso   1.00
O935   O     0.76653   0.26503   0.67640   0.00000  Uiso   1.00
O936   O     0.81890   0.28961   0.63787   0.00000  Uiso   1.00
O937   O     0.10655   0.53958   0.75000   0.00000  Uiso   1.00
O938   O     0.22679   0.46042   0.75001   0.00000  Uiso   1.00
O939   O     0.22679   0.53958   0.75001   0.00000  Uiso   1.00
O940   O     0.10655   0.46042   0.75000   0.00000  Uiso   1.00
C941   C     0.08758   0.50047   0.75266   0.00000  Uiso   1.00
C942   C     0.24575   0.49953   0.74734   0.00000  Uiso   1.00
O943   O     0.16666   0.53960   0.68513   0.00000  Uiso   1.00
O944   O     0.16668   0.46040   0.81487   0.00000  Uiso   1.00
O945   O     0.16668   0.53960   0.81487   0.00000  Uiso   1.00
O946   O     0.16666   0.46040   0.68513   0.00000  Uiso   1.00
C947   C     0.16563   0.50019   0.66460   0.00000  Uiso   1.00
C948   C     0.16770   0.49981   0.83540   0.00000  Uiso   1.00
Cu949  Cu    0.16667   0.54689   0.75000   0.00000  Uiso   1.00
Cu950  Cu    0.16667   0.45311   0.75000   0.00000  Uiso   1.00
C951   C     0.20577   0.49341   0.90926   0.00000  Uiso   1.00
C952   C     0.12756   0.50659   0.59074   0.00000  Uiso   1.00
C953   C     0.16873   0.49957   0.88366   0.00000  Uiso   1.00
C954   C     0.16461   0.50043   0.61634   0.00000  Uiso   1.00
C955   C     0.13168   0.50488   0.90387   0.00000  Uiso   1.00
C956   C     0.20166   0.49512   0.59613   0.00000  Uiso   1.00
C957   C     0.13059   0.50443   0.95012   0.00000  Uiso   1.00
C958   C     0.20275   0.49557   0.54988   0.00000  Uiso   1.00
C959   C     0.16728   0.49967   0.97657   0.00000  Uiso   1.00
C960   C     0.16605   0.50033   0.52343   0.00000  Uiso   1.00
C961   C     0.20516   0.49440   0.95626   0.00000  Uiso   1.00
C962   C     0.12818   0.50560   0.54374   0.00000  Uiso   1.00
C963   C     0.09323   0.50854   0.97022   0.00000  Uiso   1.00
C964   C     0.24011   0.49146   0.52978   0.00000  Uiso   1.00
C965   C     0.09194   0.50864   0.51649   0.00000  Uiso   1.00
C966   C     0.24140   0.49136   0.98351   0.00000  Uiso   1.00
H967   H     0.06225   0.51059   0.53044   0.00000  Uiso   1.00
H968   H     0.27108   0.48941   0.96956   0.00000  Uiso   1.00
C969   C     0.02248   0.45914   0.76125   0.00000  Uiso   1.00
C970   C     0.31085   0.54086   0.73875   0.00000  Uiso   1.00
C971   C     0.31353   0.45721   0.75314   0.00000  Uiso   1.00
C972   C     0.01981   0.54279   0.74686   0.00000  Uiso   1.00
C973   C     0.29055   0.49869   0.74463   0.00000  Uiso   1.00
C974   C     0.04278   0.50131   0.75537   0.00000  Uiso   1.00
C975   C     0.14988   0.35867   0.71440   0.00000  Uiso   1.00
C976   C     0.18345   0.64133   0.78560   0.00000  Uiso   1.00
C977   C     0.18293   0.35720   0.78587   0.00000  Uiso   1.00
C978   C     0.15040   0.64280   0.71413   0.00000  Uiso   1.00
N979   N     0.16667   0.61736   0.75000   0.00000  Uiso   1.00
N980   N     0.16667   0.38264   0.75000   0.00000  Uiso   1.00
N981   N     0.24340   0.48550   0.88764   0.00000  Uiso   1.00
O982   O     0.25383   0.51286   0.85572   0.00000  Uiso   1.00
O983   O     0.26639   0.44948   0.89830   0.00000  Uiso   1.00
N984   N     0.08993   0.51450   0.61236   0.00000  Uiso   1.00
O985   O     0.07951   0.48714   0.64428   0.00000  Uiso   1.00
O986   O     0.06694   0.55052   0.60170   0.00000  Uiso   1.00
H987   H     0.10357   0.50894   0.88332   0.00000  Uiso   1.00
H988   H     0.22977   0.49106   0.61668   0.00000  Uiso   1.00
H989   H     0.06485   0.51142   0.95009   0.00000  Uiso   1.00
H990   H     0.26848   0.48858   0.54991   0.00000  Uiso   1.00
N991   N     0.04451   0.41836   0.77745   0.00000  Uiso   1.00
O992   O     0.06382   0.41858   0.81648   0.00000  Uiso   1.00
O993   O     0.04507   0.38093   0.75365   0.00000  Uiso   1.00
N994   N     0.28883   0.58164   0.72255   0.00000  Uiso   1.00
O995   O     0.26951   0.58142   0.68352   0.00000  Uiso   1.00
O996   O     0.28826   0.61907   0.74634   0.00000  Uiso   1.00
N997   N     0.29465   0.41269   0.75163   0.00000  Uiso   1.00
O998   O     0.27721   0.39873   0.71428   0.00000  Uiso   1.00
O999   O     0.30162   0.38293   0.78406   0.00000  Uiso   1.00
N1000  N     0.03868   0.58731   0.74837   0.00000  Uiso   1.00
O1001  O     0.05612   0.60127   0.78572   0.00000  Uiso   1.00
O1002  O     0.03171   0.61707   0.71594   0.00000  Uiso   1.00
N1003  N     0.12952   0.38280   0.67760   0.00000  Uiso   1.00
O1004  O     0.09127   0.39464   0.67969   0.00000  Uiso   1.00
O1005  O     0.14602   0.38375   0.63909   0.00000  Uiso   1.00
N1006  N     0.20381   0.61720   0.82240   0.00000  Uiso   1.00
O1007  O     0.24206   0.60537   0.82031   0.00000  Uiso   1.00
O1008  O     0.18731   0.61624   0.86091   0.00000  Uiso   1.00
N1009  N     0.19941   0.37973   0.82477   0.00000  Uiso   1.00
O1010  O     0.23347   0.40164   0.82360   0.00000  Uiso   1.00
O1011  O     0.18111   0.37705   0.86213   0.00000  Uiso   1.00
N1012  N     0.13392   0.62027   0.67523   0.00000  Uiso   1.00
O1013  O     0.09986   0.59836   0.67640   0.00000  Uiso   1.00
O1014  O     0.15223   0.62294   0.63787   0.00000  Uiso   1.00
O1015  O     0.43988   0.53958   0.75000   0.00000  Uiso   1.00
O1016  O     0.56012   0.46042   0.75001   0.00000  Uiso   1.00
O1017  O     0.56012   0.53958   0.75001   0.00000  Uiso   1.00
O1018  O     0.43988   0.46042   0.75000   0.00000  Uiso   1.00
C1019  C     0.42092   0.50047   0.75266   0.00000  Uiso   1.00
C1020  C     0.57908   0.49953   0.74734   0.00000  Uiso   1.00
O1021  O     0.49999   0.53960   0.68513   0.00000  Uiso   1.00
O1022  O     0.50001   0.46040   0.81487   0.00000  Uiso   1.00
O1023  O     0.50001   0.53960   0.81487   0.00000  Uiso   1.00
O1024  O     0.49999   0.46040   0.68513   0.00000  Uiso   1.00
C1025  C     0.49897   0.50019   0.66460   0.00000  Uiso   1.00
C1026  C     0.50104   0.49981   0.83540   0.00000  Uiso   1.00
Cu1027 Cu    0.50000   0.54689   0.75000   0.00000  Uiso   1.00
Cu1028 Cu    0.50000   0.45311   0.75000   0.00000  Uiso   1.00
C1029  C     0.53911   0.49341   0.90926   0.00000  Uiso   1.00
C1030  C     0.46089   0.50659   0.59074   0.00000  Uiso   1.00
C1031  C     0.50206   0.49957   0.88366   0.00000  Uiso   1.00
C1032  C     0.49794   0.50043   0.61634   0.00000  Uiso   1.00
C1033  C     0.46501   0.50488   0.90387   0.00000  Uiso   1.00
C1034  C     0.53499   0.49512   0.59613   0.00000  Uiso   1.00
C1035  C     0.46392   0.50443   0.95012   0.00000  Uiso   1.00
C1036  C     0.53608   0.49557   0.54988   0.00000  Uiso   1.00
C1037  C     0.50062   0.49967   0.97657   0.00000  Uiso   1.00
C1038  C     0.49938   0.50033   0.52343   0.00000  Uiso   1.00
C1039  C     0.53849   0.49440   0.95626   0.00000  Uiso   1.00
C1040  C     0.46151   0.50560   0.54374   0.00000  Uiso   1.00
C1041  C     0.42656   0.50854   0.97022   0.00000  Uiso   1.00
C1042  C     0.57344   0.49146   0.52978   0.00000  Uiso   1.00
C1043  C     0.42527   0.50864   0.51649   0.00000  Uiso   1.00
C1044  C     0.57473   0.49136   0.98351   0.00000  Uiso   1.00
H1045  H     0.39558   0.51059   0.53044   0.00000  Uiso   1.00
H1046  H     0.60442   0.48941   0.96956   0.00000  Uiso   1.00
C1047  C     0.35582   0.45914   0.76125   0.00000  Uiso   1.00
C1048  C     0.64419   0.54086   0.73875   0.00000  Uiso   1.00
C1049  C     0.64686   0.45721   0.75314   0.00000  Uiso   1.00
C1050  C     0.35314   0.54279   0.74686   0.00000  Uiso   1.00
C1051  C     0.62388   0.49869   0.74463   0.00000  Uiso   1.00
C1052  C     0.37612   0.50131   0.75537   0.00000  Uiso   1.00
C1053  C     0.48321   0.35867   0.71440   0.00000  Uiso   1.00
C1054  C     0.51679   0.64133   0.78560   0.00000  Uiso   1.00
C1055  C     0.51626   0.35720   0.78587   0.00000  Uiso   1.00
C1056  C     0.48374   0.64280   0.71413   0.00000  Uiso   1.00
N1057  N     0.50000   0.61736   0.75000   0.00000  Uiso   1.00
N1058  N     0.50000   0.38264   0.75000   0.00000  Uiso   1.00
N1059  N     0.57673   0.48550   0.88764   0.00000  Uiso   1.00
O1060  O     0.58716   0.51286   0.85572   0.00000  Uiso   1.00
O1061  O     0.59973   0.44948   0.89830   0.00000  Uiso   1.00
N1062  N     0.42327   0.51450   0.61236   0.00000  Uiso   1.00
O1063  O     0.41284   0.48714   0.64428   0.00000  Uiso   1.00
O1064  O     0.40027   0.55052   0.60170   0.00000  Uiso   1.00
H1065  H     0.43690   0.50894   0.88332   0.00000  Uiso   1.00
H1066  H     0.56310   0.49106   0.61668   0.00000  Uiso   1.00
H1067  H     0.39818   0.51142   0.95009   0.00000  Uiso   1.00
H1068  H     0.60182   0.48858   0.54991   0.00000  Uiso   1.00
N1069  N     0.37784   0.41836   0.77745   0.00000  Uiso   1.00
O1070  O     0.39715   0.41858   0.81648   0.00000  Uiso   1.00
O1071  O     0.37840   0.38093   0.75365   0.00000  Uiso   1.00
N1072  N     0.62216   0.58164   0.72255   0.00000  Uiso   1.00
O1073  O     0.60285   0.58142   0.68352   0.00000  Uiso   1.00
O1074  O     0.62160   0.61907   0.74634   0.00000  Uiso   1.00
N1075  N     0.62798   0.41269   0.75163   0.00000  Uiso   1.00
O1076  O     0.61054   0.39873   0.71428   0.00000  Uiso   1.00
O1077  O     0.63495   0.38293   0.78406   0.00000  Uiso   1.00
N1078  N     0.37202   0.58731   0.74837   0.00000  Uiso   1.00
O1079  O     0.38946   0.60127   0.78572   0.00000  Uiso   1.00
O1080  O     0.36505   0.61707   0.71594   0.00000  Uiso   1.00
N1081  N     0.46285   0.38280   0.67760   0.00000  Uiso   1.00
O1082  O     0.42461   0.39464   0.67969   0.00000  Uiso   1.00
O1083  O     0.47936   0.38375   0.63909   0.00000  Uiso   1.00
N1084  N     0.53715   0.61720   0.82240   0.00000  Uiso   1.00
O1085  O     0.57540   0.60537   0.82031   0.00000  Uiso   1.00
O1086  O     0.52064   0.61624   0.86091   0.00000  Uiso   1.00
N1087  N     0.53275   0.37973   0.82477   0.00000  Uiso   1.00
O1088  O     0.56681   0.40164   0.82360   0.00000  Uiso   1.00
O1089  O     0.51445   0.37705   0.86213   0.00000  Uiso   1.00
N1090  N     0.46725   0.62027   0.67523   0.00000  Uiso   1.00
O1091  O     0.43319   0.59836   0.67640   0.00000  Uiso   1.00
O1092  O     0.48556   0.62294   0.63787   0.00000  Uiso   1.00
O1093  O     0.77321   0.53958   0.75000   0.00000  Uiso   1.00
O1094  O     0.89345   0.46042   0.75001   0.00000  Uiso   1.00
O1095  O     0.89345   0.53958   0.75001   0.00000  Uiso   1.00
O1096  O     0.77321   0.46042   0.75000   0.00000  Uiso   1.00
C1097  C     0.75425   0.50047   0.75266   0.00000  Uiso   1.00
C1098  C     0.91242   0.49953   0.74734   0.00000  Uiso   1.00
O1099  O     0.83332   0.53960   0.68513   0.00000  Uiso   1.00
O1100  O     0.83334   0.46040   0.81487   0.00000  Uiso   1.00
O1101  O     0.83334   0.53960   0.81487   0.00000  Uiso   1.00
O1102  O     0.83332   0.46040   0.68513   0.00000  Uiso   1.00
C1103  C     0.83230   0.50019   0.66460   0.00000  Uiso   1.00
C1104  C     0.83437   0.49981   0.83540   0.00000  Uiso   1.00
Cu1105 Cu    0.83333   0.54689   0.75000   0.00000  Uiso   1.00
Cu1106 Cu    0.83333   0.45311   0.75000   0.00000  Uiso   1.00
C1107  C     0.87244   0.49341   0.90926   0.00000  Uiso   1.00
C1108  C     0.79423   0.50659   0.59074   0.00000  Uiso   1.00
C1109  C     0.83539   0.49957   0.88366   0.00000  Uiso   1.00
C1110  C     0.83128   0.50043   0.61634   0.00000  Uiso   1.00
C1111  C     0.79834   0.50488   0.90387   0.00000  Uiso   1.00
C1112  C     0.86832   0.49512   0.59613   0.00000  Uiso   1.00
C1113  C     0.79725   0.50443   0.95012   0.00000  Uiso   1.00
C1114  C     0.86941   0.49557   0.54988   0.00000  Uiso   1.00
C1115  C     0.83395   0.49967   0.97657   0.00000  Uiso   1.00
C1116  C     0.83272   0.50033   0.52343   0.00000  Uiso   1.00
C1117  C     0.87182   0.49440   0.95626   0.00000  Uiso   1.00
C1118  C     0.79484   0.50560   0.54374   0.00000  Uiso   1.00
C1119  C     0.75989   0.50854   0.97022   0.00000  Uiso   1.00
C1120  C     0.90677   0.49146   0.52978   0.00000  Uiso   1.00
C1121  C     0.75860   0.50864   0.51649   0.00000  Uiso   1.00
C1122  C     0.90806   0.49136   0.98351   0.00000  Uiso   1.00
H1123  H     0.72892   0.51059   0.53044   0.00000  Uiso   1.00
H1124  H     0.93775   0.48941   0.96956   0.00000  Uiso   1.00
C1125  C     0.68915   0.45914   0.76125   0.00000  Uiso   1.00
C1126  C     0.97752   0.54086   0.73875   0.00000  Uiso   1.00
C1127  C     0.98019   0.45721   0.75314   0.00000  Uiso   1.00
C1128  C     0.68647   0.54279   0.74686   0.00000  Uiso   1.00
C1129  C     0.95722   0.49869   0.74463   0.00000  Uiso   1.00
C1130  C     0.70945   0.50131   0.75537   0.00000  Uiso   1.00
C1131  C     0.81655   0.35867   0.71440   0.00000  Uiso   1.00
C1132  C     0.85012   0.64133   0.78560   0.00000  Uiso   1.00
C1133  C     0.84960   0.35720   0.78587   0.00000  Uiso   1.00
C1134  C     0.81707   0.64280   0.71413   0.00000  Uiso   1.00
N1135  N     0.83333   0.61736   0.75000   0.00000  Uiso   1.00
N1136  N     0.83333   0.38264   0.75000   0.00000  Uiso   1.00
N1137  N     0.91007   0.48550   0.88764   0.00000  Uiso   1.00
O1138  O     0.92049   0.51286   0.85572   0.00000  Uiso   1.00
O1139  O     0.93306   0.44948   0.89830   0.00000  Uiso   1.00
N1140  N     0.75660   0.51450   0.61236   0.00000  Uiso   1.00
O1141  O     0.74617   0.48714   0.64428   0.00000  Uiso   1.00
O1142  O     0.73361   0.55052   0.60170   0.00000  Uiso   1.00
H1143  H     0.77023   0.50894   0.88332   0.00000  Uiso   1.00
H1144  H     0.89643   0.49106   0.61668   0.00000  Uiso   1.00
H1145  H     0.73152   0.51142   0.95009   0.00000  Uiso   1.00
H1146  H     0.93515   0.48858   0.54991   0.00000  Uiso   1.00
N1147  N     0.71117   0.41836   0.77745   0.00000  Uiso   1.00
O1148  O     0.73049   0.41858   0.81648   0.00000  Uiso   1.00
O1149  O     0.71174   0.38093   0.75365   0.00000  Uiso   1.00
N1150  N     0.95549   0.58164   0.72255   0.00000  Uiso   1.00
O1151  O     0.93618   0.58142   0.68352   0.00000  Uiso   1.00
O1152  O     0.95493   0.61907   0.74634   0.00000  Uiso   1.00
N1153  N     0.96132   0.41269   0.75163   0.00000  Uiso   1.00
O1154  O     0.94388   0.39873   0.71428   0.00000  Uiso   1.00
O1155  O     0.96829   0.38293   0.78406   0.00000  Uiso   1.00
N1156  N     0.70535   0.58731   0.74837   0.00000  Uiso   1.00
O1157  O     0.72279   0.60127   0.78572   0.00000  Uiso   1.00
O1158  O     0.69838   0.61707   0.71594   0.00000  Uiso   1.00
N1159  N     0.79619   0.38280   0.67760   0.00000  Uiso   1.00
O1160  O     0.75794   0.39464   0.67969   0.00000  Uiso   1.00
O1161  O     0.81269   0.38375   0.63909   0.00000  Uiso   1.00
N1162  N     0.87048   0.61720   0.82240   0.00000  Uiso   1.00
O1163  O     0.90873   0.60537   0.82031   0.00000  Uiso   1.00
O1164  O     0.85398   0.61624   0.86091   0.00000  Uiso   1.00
N1165  N     0.86608   0.37973   0.82477   0.00000  Uiso   1.00
O1166  O     0.90014   0.40164   0.82360   0.00000  Uiso   1.00
O1167  O     0.84778   0.37705   0.86213   0.00000  Uiso   1.00
N1168  N     0.80059   0.62027   0.67523   0.00000  Uiso   1.00
O1169  O     0.76653   0.59836   0.67640   0.00000  Uiso   1.00
O1170  O     0.81890   0.62294   0.63787   0.00000  Uiso   1.00
O1171  O     0.10655   0.87291   0.75000   0.00000  Uiso   1.00
O1172  O     0.22679   0.79375   0.75001   0.00000  Uiso   1.00
O1173  O     0.22679   0.87291   0.75001   0.00000  Uiso   1.00
O1174  O     0.10655   0.79375   0.75000   0.00000  Uiso   1.00
C1175  C     0.08758   0.83380   0.75266   0.00000  Uiso   1.00
C1176  C     0.24575   0.83286   0.74734   0.00000  Uiso   1.00
O1177  O     0.16666   0.87293   0.68513   0.00000  Uiso   1.00
O1178  O     0.16668   0.79373   0.81487   0.00000  Uiso   1.00
O1179  O     0.16668   0.87293   0.81487   0.00000  Uiso   1.00
O1180  O     0.16666   0.79373   0.68513   0.00000  Uiso   1.00
C1181  C     0.16563   0.83352   0.66460   0.00000  Uiso   1.00
C1182  C     0.16770   0.83315   0.83540   0.00000  Uiso   1.00
Cu1183 Cu    0.16667   0.88022   0.75000   0.00000  Uiso   1.00
Cu1184 Cu    0.16667   0.78645   0.75000   0.00000  Uiso   1.00
C1185  C     0.20577   0.82674   0.90926   0.00000  Uiso   1.00
C1186  C     0.12756   0.83992   0.59074   0.00000  Uiso   1.00
C1187  C     0.16873   0.83290   0.88366   0.00000  Uiso   1.00
C1188  C     0.16461   0.83377   0.61634   0.00000  Uiso   1.00
C1189  C     0.13168   0.83821   0.90387   0.00000  Uiso   1.00
C1190  C     0.20166   0.82845   0.59613   0.00000  Uiso   1.00
C1191  C     0.13059   0.83776   0.95012   0.00000  Uiso   1.00
C1192  C     0.20275   0.82891   0.54988   0.00000  Uiso   1.00
C1193  C     0.16728   0.83300   0.97657   0.00000  Uiso   1.00
C1194  C     0.16605   0.83366   0.52343   0.00000  Uiso   1.00
C1195  C     0.20516   0.82773   0.95626   0.00000  Uiso   1.00
C1196  C     0.12818   0.83893   0.54374   0.00000  Uiso   1.00
C1197  C     0.09323   0.84187   0.97022   0.00000  Uiso   1.00
C1198  C     0.24011   0.82480   0.52978   0.00000  Uiso   1.00
C1199  C     0.09194   0.84198   0.51649   0.00000  Uiso   1.00
C1200  C     0.24140   0.82469   0.98351   0.00000  Uiso   1.00
H1201  H     0.06225   0.84392   0.53044   0.00000  Uiso   1.00
H1202  H     0.27108   0.82274   0.96956   0.00000  Uiso   1.00
C1203  C     0.02248   0.79247   0.76125   0.00000  Uiso   1.00
C1204  C     0.31085   0.87419   0.73875   0.00000  Uiso   1.00
C1205  C     0.31353   0.79054   0.75314   0.00000  Uiso   1.00
C1206  C     0.01981   0.87612   0.74686   0.00000  Uiso   1.00
C1207  C     0.29055   0.83202   0.74463   0.00000  Uiso   1.00
C1208  C     0.04278   0.83464   0.75537   0.00000  Uiso   1.00
C1209  C     0.14988   0.69200   0.71440   0.00000  Uiso   1.00
C1210  C     0.18345   0.97466   0.78560   0.00000  Uiso   1.00
C1211  C     0.18293   0.69053   0.78587   0.00000  Uiso   1.00
C1212  C     0.15040   0.97614   0.71413   0.00000  Uiso   1.00
N1213  N     0.16667   0.95069   0.75000   0.00000  Uiso   1.00
N1214  N     0.16667   0.71598   0.75000   0.00000  Uiso   1.00
N1215  N     0.24340   0.81884   0.88764   0.00000  Uiso   1.00
O1216  O     0.25383   0.84619   0.85572   0.00000  Uiso   1.00
O1217  O     0.26639   0.78281   0.89830   0.00000  Uiso   1.00
N1218  N     0.08993   0.84783   0.61236   0.00000  Uiso   1.00
O1219  O     0.07951   0.82048   0.64428   0.00000  Uiso   1.00
O1220  O     0.06694   0.88386   0.60170   0.00000  Uiso   1.00
H1221  H     0.10357   0.84228   0.88332   0.00000  Uiso   1.00
H1222  H     0.22977   0.82439   0.61668   0.00000  Uiso   1.00
H1223  H     0.06485   0.84475   0.95009   0.00000  Uiso   1.00
H1224  H     0.26848   0.82192   0.54991   0.00000  Uiso   1.00
N1225  N     0.04451   0.75169   0.77745   0.00000  Uiso   1.00
O1226  O     0.06382   0.75191   0.81648   0.00000  Uiso   1.00
O1227  O     0.04507   0.71427   0.75365   0.00000  Uiso   1.00
N1228  N     0.28883   0.91498   0.72255   0.00000  Uiso   1.00
O1229  O     0.26951   0.91475   0.68352   0.00000  Uiso   1.00
O1230  O     0.28826   0.95240   0.74634   0.00000  Uiso   1.00
N1231  N     0.29465   0.74602   0.75163   0.00000  Uiso   1.00
O1232  O     0.27721   0.73206   0.71428   0.00000  Uiso   1.00
O1233  O     0.30162   0.71626   0.78406   0.00000  Uiso   1.00
N1234  N     0.03868   0.92064   0.74837   0.00000  Uiso   1.00
O1235  O     0.05612   0.93461   0.78572   0.00000  Uiso   1.00
O1236  O     0.03171   0.95041   0.71594   0.00000  Uiso   1.00
N1237  N     0.12952   0.71614   0.67760   0.00000  Uiso   1.00
O1238  O     0.09127   0.72797   0.67969   0.00000  Uiso   1.00
O1239  O     0.14602   0.71709   0.63909   0.00000  Uiso   1.00
N1240  N     0.20381   0.95053   0.82240   0.00000  Uiso   1.00
O1241  O     0.24206   0.93870   0.82031   0.00000  Uiso   1.00
O1242  O     0.18731   0.94958   0.86091   0.00000  Uiso   1.00
N1243  N     0.19941   0.71306   0.82477   0.00000  Uiso   1.00
O1244  O     0.23347   0.73498   0.82360   0.00000  Uiso   1.00
O1245  O     0.18111   0.71038   0.86213   0.00000  Uiso   1.00
N1246  N     0.13392   0.95360   0.67523   0.00000  Uiso   1.00
O1247  O     0.09986   0.93170   0.67640   0.00000  Uiso   1.00
O1248  O     0.15223   0.95628   0.63787   0.00000  Uiso   1.00
O1249  O     0.43988   0.87291   0.75000   0.00000  Uiso   1.00
O1250  O     0.56012   0.79375   0.75001   0.00000  Uiso   1.00
O1251  O     0.56012   0.87291   0.75001   0.00000  Uiso   1.00
O1252  O     0.43988   0.79375   0.75000   0.00000  Uiso   1.00
C1253  C     0.42092   0.83380   0.75266   0.00000  Uiso   1.00
C1254  C     0.57908   0.83286   0.74734   0.00000  Uiso   1.00
O1255  O     0.49999   0.87293   0.68513   0.00000  Uiso   1.00
O1256  O     0.50001   0.79373   0.81487   0.00000  Uiso   1.00
O1257  O     0.50001   0.87293   0.81487   0.00000  Uiso   1.00
O1258  O     0.49999   0.79373   0.68513   0.00000  Uiso   1.00
C1259  C     0.49897   0.83352   0.66460   0.00000  Uiso   1.00
C1260  C     0.50104   0.83315   0.83540   0.00000  Uiso   1.00
Cu1261 Cu    0.50000   0.88022   0.75000   0.00000  Uiso   1.00
Cu1262 Cu    0.50000   0.78645   0.75000   0.00000  Uiso   1.00
C1263  C     0.53911   0.82674   0.90926   0.00000  Uiso   1.00
C1264  C     0.46089   0.83992   0.59074   0.00000  Uiso   1.00
C1265  C     0.50206   0.83290   0.88366   0.00000  Uiso   1.00
C1266  C     0.49794   0.83377   0.61634   0.00000  Uiso   1.00
C1267  C     0.46501   0.83821   0.90387   0.00000  Uiso   1.00
C1268  C     0.53499   0.82845   0.59613   0.00000  Uiso   1.00
C1269  C     0.46392   0.83776   0.95012   0.00000  Uiso   1.00
C1270  C     0.53608   0.82891   0.54988   0.00000  Uiso   1.00
C1271  C     0.50062   0.83300   0.97657   0.00000  Uiso   1.00
C1272  C     0.49938   0.83366   0.52343   0.00000  Uiso   1.00
C1273  C     0.53849   0.82773   0.95626   0.00000  Uiso   1.00
C1274  C     0.46151   0.83893   0.54374   0.00000  Uiso   1.00
C1275  C     0.42656   0.84187   0.97022   0.00000  Uiso   1.00
C1276  C     0.57344   0.82480   0.52978   0.00000  Uiso   1.00
C1277  C     0.42527   0.84198   0.51649   0.00000  Uiso   1.00
C1278  C     0.57473   0.82469   0.98351   0.00000  Uiso   1.00
H1279  H     0.39558   0.84392   0.53044   0.00000  Uiso   1.00
H1280  H     0.60442   0.82274   0.96956   0.00000  Uiso   1.00
C1281  C     0.35582   0.79247   0.76125   0.00000  Uiso   1.00
C1282  C     0.64419   0.87419   0.73875   0.00000  Uiso   1.00
C1283  C     0.64686   0.79054   0.75314   0.00000  Uiso   1.00
C1284  C     0.35314   0.87612   0.74686   0.00000  Uiso   1.00
C1285  C     0.62388   0.83202   0.74463   0.00000  Uiso   1.00
C1286  C     0.37612   0.83464   0.75537   0.00000  Uiso   1.00
C1287  C     0.48321   0.69200   0.71440   0.00000  Uiso   1.00
C1288  C     0.51679   0.97466   0.78560   0.00000  Uiso   1.00
C1289  C     0.51626   0.69053   0.78587   0.00000  Uiso   1.00
C1290  C     0.48374   0.97614   0.71413   0.00000  Uiso   1.00
N1291  N     0.50000   0.95069   0.75000   0.00000  Uiso   1.00
N1292  N     0.50000   0.71598   0.75000   0.00000  Uiso   1.00
N1293  N     0.57673   0.81884   0.88764   0.00000  Uiso   1.00
O1294  O     0.58716   0.84619   0.85572   0.00000  Uiso   1.00
O1295  O     0.59973   0.78281   0.89830   0.00000  Uiso   1.00
N1296  N     0.42327   0.84783   0.61236   0.00000  Uiso   1.00
O1297  O     0.41284   0.82048   0.64428   0.00000  Uiso   1.00
O1298  O     0.40027   0.88386   0.60170   0.00000  Uiso   1.00
H1299  H     0.43690   0.84228   0.88332   0.00000  Uiso   1.00
H1300  H     0.56310   0.82439   0.61668   0.00000  Uiso   1.00
H1301  H     0.39818   0.84475   0.95009   0.00000  Uiso   1.00
H1302  H     0.60182   0.82192   0.54991   0.00000  Uiso   1.00
N1303  N     0.37784   0.75169   0.77745   0.00000  Uiso   1.00
O1304  O     0.39715   0.75191   0.81648   0.00000  Uiso   1.00
O1305  O     0.37840   0.71427   0.75365   0.00000  Uiso   1.00
N1306  N     0.62216   0.91498   0.72255   0.00000  Uiso   1.00
O1307  O     0.60285   0.91475   0.68352   0.00000  Uiso   1.00
O1308  O     0.62160   0.95240   0.74634   0.00000  Uiso   1.00
N1309  N     0.62798   0.74602   0.75163   0.00000  Uiso   1.00
O1310  O     0.61054   0.73206   0.71428   0.00000  Uiso   1.00
O1311  O     0.63495   0.71626   0.78406   0.00000  Uiso   1.00
N1312  N     0.37202   0.92064   0.74837   0.00000  Uiso   1.00
O1313  O     0.38946   0.93461   0.78572   0.00000  Uiso   1.00
O1314  O     0.36505   0.95041   0.71594   0.00000  Uiso   1.00
N1315  N     0.46285   0.71614   0.67760   0.00000  Uiso   1.00
O1316  O     0.42461   0.72797   0.67969   0.00000  Uiso   1.00
O1317  O     0.47936   0.71709   0.63909   0.00000  Uiso   1.00
N1318  N     0.53715   0.95053   0.82240   0.00000  Uiso   1.00
O1319  O     0.57540   0.93870   0.82031   0.00000  Uiso   1.00
O1320  O     0.52064   0.94958   0.86091   0.00000  Uiso   1.00
N1321  N     0.53275   0.71306   0.82477   0.00000  Uiso   1.00
O1322  O     0.56681   0.73498   0.82360   0.00000  Uiso   1.00
O1323  O     0.51445   0.71038   0.86213   0.00000  Uiso   1.00
N1324  N     0.46725   0.95360   0.67523   0.00000  Uiso   1.00
O1325  O     0.43319   0.93170   0.67640   0.00000  Uiso   1.00
O1326  O     0.48556   0.95628   0.63787   0.00000  Uiso   1.00
O1327  O     0.77321   0.87291   0.75000   0.00000  Uiso   1.00
O1328  O     0.89345   0.79375   0.75001   0.00000  Uiso   1.00
O1329  O     0.89345   0.87291   0.75001   0.00000  Uiso   1.00
O1330  O     0.77321   0.79375   0.75000   0.00000  Uiso   1.00
C1331  C     0.75425   0.83380   0.75266   0.00000  Uiso   1.00
C1332  C     0.91242   0.83286   0.74734   0.00000  Uiso   1.00
O1333  O     0.83332   0.87293   0.68513   0.00000  Uiso   1.00
O1334  O     0.83334   0.79373   0.81487   0.00000  Uiso   1.00
O1335  O     0.83334   0.87293   0.81487   0.00000  Uiso   1.00
O1336  O     0.83332   0.79373   0.68513   0.00000  Uiso   1.00
C1337  C     0.83230   0.83352   0.66460   0.00000  Uiso   1.00
C1338  C     0.83437   0.83315   0.83540   0.00000  Uiso   1.00
Cu1339 Cu    0.83333   0.88022   0.75000   0.00000  Uiso   1.00
Cu1340 Cu    0.83333   0.78645   0.75000   0.00000  Uiso   1.00
C1341  C     0.87244   0.82674   0.90926   0.00000  Uiso   1.00
C1342  C     0.79423   0.83992   0.59074   0.00000  Uiso   1.00
C1343  C     0.83539   0.83290   0.88366   0.00000  Uiso   1.00
C1344  C     0.83128   0.83377   0.61634   0.00000  Uiso   1.00
C1345  C     0.79834   0.83821   0.90387   0.00000  Uiso   1.00
C1346  C     0.86832   0.82845   0.59613   0.00000  Uiso   1.00
C1347  C     0.79725   0.83776   0.95012   0.00000  Uiso   1.00
C1348  C     0.86941   0.82891   0.54988   0.00000  Uiso   1.00
C1349  C     0.83395   0.83300   0.97657   0.00000  Uiso   1.00
C1350  C     0.83272   0.83366   0.52343   0.00000  Uiso   1.00
C1351  C     0.87182   0.82773   0.95626   0.00000  Uiso   1.00
C1352  C     0.79484   0.83893   0.54374   0.00000  Uiso   1.00
C1353  C     0.75989   0.84187   0.97022   0.00000  Uiso   1.00
C1354  C     0.90677   0.82480   0.52978   0.00000  Uiso   1.00
C1355  C     0.75860   0.84198   0.51649   0.00000  Uiso   1.00
C1356  C     0.90806   0.82469   0.98351   0.00000  Uiso   1.00
H1357  H     0.72892   0.84392   0.53044   0.00000  Uiso   1.00
H1358  H     0.93775   0.82274   0.96956   0.00000  Uiso   1.00
C1359  C     0.68915   0.79247   0.76125   0.00000  Uiso   1.00
C1360  C     0.97752   0.87419   0.73875   0.00000  Uiso   1.00
C1361  C     0.98019   0.79054   0.75314   0.00000  Uiso   1.00
C1362  C     0.68647   0.87612   0.74686   0.00000  Uiso   1.00
C1363  C     0.95722   0.83202   0.74463   0.00000  Uiso   1.00
C1364  C     0.70945   0.83464   0.75537   0.00000  Uiso   1.00
C1365  C     0.81655   0.69200   0.71440   0.00000  Uiso   1.00
C1366  C     0.85012   0.97466   0.78560   0.00000  Uiso   1.00
C1367  C     0.84960   0.69053   0.78587   0.00000  Uiso   1.00
C1368  C     0.81707   0.97614   0.71413   0.00000  Uiso   1.00
N1369  N     0.83333   0.95069   0.75000   0.00000  Uiso   1.00
N1370  N     0.83333   0.71598   0.75000   0.00000  Uiso   1.00
N1371  N     0.91007   0.81884   0.88764   0.00000  Uiso   1.00
O1372  O     0.92049   0.84619   0.85572   0.00000  Uiso   1.00
O1373  O     0.93306   0.78281   0.89830   0.00000  Uiso   1.00
N1374  N     0.75660   0.84783   0.61236   0.00000  Uiso   1.00
O1375  O     0.74617   0.82048   0.64428   0.00000  Uiso   1.00
O1376  O     0.73361   0.88386   0.60170   0.00000  Uiso   1.00
H1377  H     0.77023   0.84228   0.88332   0.00000  Uiso   1.00
H1378  H     0.89643   0.82439   0.61668   0.00000  Uiso   1.00
H1379  H     0.73152   0.84475   0.95009   0.00000  Uiso   1.00
H1380  H     0.93515   0.82192   0.54991   0.00000  Uiso   1.00
N1381  N     0.71117   0.75169   0.77745   0.00000  Uiso   1.00
O1382  O     0.73049   0.75191   0.81648   0.00000  Uiso   1.00
O1383  O     0.71174   0.71427   0.75365   0.00000  Uiso   1.00
N1384  N     0.95549   0.91498   0.72255   0.00000  Uiso   1.00
O1385  O     0.93618   0.91475   0.68352   0.00000  Uiso   1.00
O1386  O     0.95493   0.95240   0.74634   0.00000  Uiso   1.00
N1387  N     0.96132   0.74602   0.75163   0.00000  Uiso   1.00
O1388  O     0.94388   0.73206   0.71428   0.00000  Uiso   1.00
O1389  O     0.96829   0.71626   0.78406   0.00000  Uiso   1.00
N1390  N     0.70535   0.92064   0.74837   0.00000  Uiso   1.00
O1391  O     0.72279   0.93461   0.78572   0.00000  Uiso   1.00
O1392  O     0.69838   0.95041   0.71594   0.00000  Uiso   1.00
N1393  N     0.79619   0.71614   0.67760   0.00000  Uiso   1.00
O1394  O     0.75794   0.72797   0.67969   0.00000  Uiso   1.00
O1395  O     0.81269   0.71709   0.63909   0.00000  Uiso   1.00
N1396  N     0.87048   0.95053   0.82240   0.00000  Uiso   1.00
O1397  O     0.90873   0.93870   0.82031   0.00000  Uiso   1.00
O1398  O     0.85398   0.94958   0.86091   0.00000  Uiso   1.00
N1399  N     0.86608   0.71306   0.82477   0.00000  Uiso   1.00
O1400  O     0.90014   0.73498   0.82360   0.00000  Uiso   1.00
O1401  O     0.84778   0.71038   0.86213   0.00000  Uiso   1.00
N1402  N     0.80059   0.95360   0.67523   0.00000  Uiso   1.00
O1403  O     0.76653   0.93170   0.67640   0.00000  Uiso   1.00
O1404  O     0.81890   0.95628   0.63787   0.00000  Uiso   1.00
loop_
_geom_bond_atom_site_label_1
_geom_bond_atom_site_label_2
_geom_bond_distance
_geom_bond_site_symmetry_2
_ccdc_geom_bond_type
O1     C5      1.304   .     A
O1     Cu13    1.987   .     S
O2     C6      1.304   .     A
O2     Cu14    1.987   .     S
O3     C6      1.308   .     A
O3     Cu13    1.979   .     S
O4     C5      1.308   .     A
O4     Cu14    1.979   .     S
C5     C38     1.476   .     S
C6     C37     1.476   .     S
O7     C11     1.299   .     A
O7     Cu13    1.959   .     S
O8     C12     1.299   .     A
O8     Cu14    1.959   .     S
O9     Cu13    1.955   .     S
O9     C12     1.298   .     A
O10    Cu14    1.955   .     S
O10    C11     1.298   .     A
C11    C18     1.446   .     S
C12    C17     1.446   .     S
Cu13   N43     2.036   .     S
Cu13   Cu14    2.709   .     S
Cu14   N44     2.036   .     S
C15    C25     1.412   .     A
C15    N45     1.439   .     S
C15    C17     1.410   .     A
C16    N48     1.439   .     S
C16    C26     1.412   .     A
C16    C18     1.410   .     A
C17    C19     1.393   .     A
C18    C20     1.393   .     A
C19    C21     1.389   .     A
C19    H51     1.086   .     S
C20    C22     1.389   .     A
C20    H52     1.086   .     S
C21    C27     1.398   .     A
C21    C23     1.410   .     A
C22    C28     1.398   .     A
C22    C24     1.410   .     A
C23    C25     1.418   .     A
C23    C726    1.408   .     S
C24    C26     1.418   .     A
C24    C725    1.408   1_554 S
C25    C30     1.408   .     A
C26    C29     1.408   .     A
C27    H53     1.084   .     S
C27    C731    1.391   .     S
C28    H54     1.084   .     S
C28    C732    1.391   1_554 S
C29    H31     1.081   .     S
C29    C729    1.391   1_554 S
C30    H32     1.081   .     S
C30    C730    1.391   .     S
C33    N55     1.438   .     S
C33    C38     1.414   .     A
C33    C191    1.398   1_455 S
C34    C37     1.414   .     A
C34    N58     1.438   .     S
C34    C114    1.398   .     S
C35    C37     1.418   .     A
C35    N61     1.438   .     S
C35    C111    1.398   .     S
C36    N64     1.438   .     S
C36    C38     1.418   .     A
C36    C190    1.398   1_455 S
C39    N67     1.429   .     S
C39    N44     1.374   .     A
C39    C510    1.421   1_545 S
C40    N70     1.429   .     S
C40    N43     1.374   .     A
C40    C275    1.421   .     S
C41    N44     1.376   .     A
C41    N73     1.427   .     S
C41    C508    1.421   1_545 S
C42    N43     1.376   .     A
C42    N76     1.427   .     S
C42    C273    1.421   .     S
N45    O46     1.300   .     A
N45    O47     1.301   .     A
N48    O50     1.301   .     A
N48    O49     1.300   .     A
N55    O56     1.301   .     A
N55    O57     1.301   .     A
N58    O60     1.301   .     A
N58    O59     1.301   .     A
N61    O63     1.301   .     A
N61    O62     1.302   .     A
N64    O66     1.301   .     A
N64    O65     1.302   .     A
N67    O68     1.299   .     A
N67    O69     1.301   .     A
N70    O71     1.299   .     A
N70    O72     1.301   .     A
N73    O74     1.297   .     A
N73    O75     1.301   .     A
N76    O78     1.301   .     A
N76    O77     1.297   .     A
O79    C83     1.304   .     A
O79    Cu91    1.987   .     S
O80    C84     1.304   .     A
O80    Cu92    1.987   .     S
O81    C84     1.308   .     A
O81    Cu91    1.979   .     S
O82    C83     1.308   .     A
O82    Cu92    1.979   .     S
C83    C116    1.476   .     S
C84    C115    1.476   .     S
O85    C89     1.299   .     A
O85    Cu91    1.959   .     S
O86    C90     1.299   .     A
O86    Cu92    1.959   .     S
O87    Cu91    1.955   .     S
O87    C90     1.298   .     A
O88    Cu92    1.955   .     S
O88    C89     1.298   .     A
C89    C96     1.446   .     S
C90    C95     1.446   .     S
Cu91   N121    2.036   .     S
Cu91   Cu92    2.709   .     S
Cu92   N122    2.036   .     S
C93    C103    1.412   .     A
C93    N123    1.439   .     S
C93    C95     1.410   .     A
C94    N126    1.439   .     S
C94    C104    1.412   .     A
C94    C96     1.410   .     A
C95    C97     1.393   .     A
C96    C98     1.393   .     A
C97    C99     1.389   .     A
C97    H129    1.086   .     S
C98    C100    1.389   .     A
C98    H130    1.086   .     S
C99    C105    1.398   .     A
C99    C101    1.410   .     A
C100   C106    1.398   .     A
C100   C102    1.410   .     A
C101   C103    1.418   .     A
C101   C804    1.408   .     S
C102   C104    1.418   .     A
C102   C803    1.408   1_554 S
C103   C108    1.408   .     A
C104   C107    1.408   .     A
C105   H131    1.084   .     S
C105   C809    1.391   .     S
C106   H132    1.084   .     S
C106   C810    1.391   1_554 S
C107   H109    1.081   .     S
C107   C807    1.391   1_554 S
C108   H110    1.081   .     S
C108   C808    1.391   .     S
C111   N133    1.438   .     S
C111   C116    1.414   .     A
C112   C115    1.414   .     A
C112   N136    1.438   .     S
C112   C192    1.398   .     S
C113   C115    1.418   .     A
C113   N139    1.438   .     S
C113   C189    1.398   .     S
C114   N142    1.438   .     S
C114   C116    1.418   .     A
C117   N145    1.429   .     S
C117   N122    1.374   .     A
C117   C588    1.421   1_545 S
C118   N148    1.429   .     S
C118   N121    1.374   .     A
C118   C353    1.421   .     S
C119   N122    1.376   .     A
C119   N151    1.427   .     S
C119   C586    1.421   1_545 S
C120   N121    1.376   .     A
C120   N154    1.427   .     S
C120   C351    1.421   .     S
N123   O124    1.300   .     A
N123   O125    1.301   .     A
N126   O128    1.301   .     A
N126   O127    1.300   .     A
N133   O134    1.301   .     A
N133   O135    1.301   .     A
N136   O138    1.301   .     A
N136   O137    1.301   .     A
N139   O141    1.301   .     A
N139   O140    1.302   .     A
N142   O144    1.301   .     A
N142   O143    1.302   .     A
N145   O146    1.299   .     A
N145   O147    1.301   .     A
N148   O149    1.299   .     A
N148   O150    1.301   .     A
N151   O152    1.297   .     A
N151   O153    1.301   .     A
N154   O156    1.301   .     A
N154   O155    1.297   .     A
O157   C161    1.304   .     A
O157   Cu169   1.987   .     S
O158   C162    1.304   .     A
O158   Cu170   1.987   .     S
O159   C162    1.308   .     A
O159   Cu169   1.979   .     S
O160   C161    1.308   .     A
O160   Cu170   1.979   .     S
C161   C194    1.476   .     S
C162   C193    1.476   .     S
O163   C167    1.299   .     A
O163   Cu169   1.959   .     S
O164   C168    1.299   .     A
O164   Cu170   1.959   .     S
O165   Cu169   1.955   .     S
O165   C168    1.298   .     A
O166   Cu170   1.955   .     S
O166   C167    1.298   .     A
C167   C174    1.446   .     S
C168   C173    1.446   .     S
Cu169  N199    2.036   .     S
Cu169  Cu170   2.709   .     S
Cu170  N200    2.036   .     S
C171   C181    1.412   .     A
C171   N201    1.439   .     S
C171   C173    1.410   .     A
C172   N204    1.439   .     S
C172   C182    1.412   .     A
C172   C174    1.410   .     A
C173   C175    1.393   .     A
C174   C176    1.393   .     A
C175   C177    1.389   .     A
C175   H207    1.086   .     S
C176   C178    1.389   .     A
C176   H208    1.086   .     S
C177   C183    1.398   .     A
C177   C179    1.410   .     A
C178   C184    1.398   .     A
C178   C180    1.410   .     A
C179   C181    1.418   .     A
C179   C882    1.408   .     S
C180   C182    1.418   .     A
C180   C881    1.408   1_554 S
C181   C186    1.408   .     A
C182   C185    1.408   .     A
C183   H209    1.084   .     S
C183   C887    1.391   .     S
C184   H210    1.084   .     S
C184   C888    1.391   1_554 S
C185   H187    1.081   .     S
C185   C885    1.391   1_554 S
C186   H188    1.081   .     S
C186   C886    1.391   .     S
C189   N211    1.438   .     S
C189   C194    1.414   .     A
C190   C193    1.414   .     A
C190   N214    1.438   .     S
C190   C36     1.398   1_655 S
C191   C193    1.418   .     A
C191   N217    1.438   .     S
C191   C33     1.398   1_655 S
C192   N220    1.438   .     S
C192   C194    1.418   .     A
C195   N223    1.429   .     S
C195   N200    1.374   .     A
C195   C666    1.421   1_545 S
C196   N226    1.429   .     S
C196   N199    1.374   .     A
C196   C431    1.421   .     S
C197   N200    1.376   .     A
C197   N229    1.427   .     S
C197   C664    1.421   1_545 S
C198   N199    1.376   .     A
C198   N232    1.427   .     S
C198   C429    1.421   .     S
N201   O202    1.300   .     A
N201   O203    1.301   .     A
N204   O206    1.301   .     A
N204   O205    1.300   .     A
N211   O212    1.301   .     A
N211   O213    1.301   .     A
N214   O216    1.301   .     A
N214   O215    1.301   .     A
N217   O219    1.301   .     A
N217   O218    1.302   .     A
N220   O222    1.301   .     A
N220   O221    1.302   .     A
N223   O224    1.299   .     A
N223   O225    1.301   .     A
N226   O227    1.299   .     A
N226   O228    1.301   .     A
N229   O230    1.297   .     A
N229   O231    1.301   .     A
N232   O234    1.301   .     A
N232   O233    1.297   .     A
O235   C239    1.304   .     A
O235   Cu247   1.987   .     S
O236   C240    1.304   .     A
O236   Cu248   1.987   .     S
O237   C240    1.308   .     A
O237   Cu247   1.979   .     S
O238   C239    1.308   .     A
O238   Cu248   1.979   .     S
C239   C272    1.476   .     S
C240   C271    1.476   .     S
O241   C245    1.299   .     A
O241   Cu247   1.959   .     S
O242   C246    1.299   .     A
O242   Cu248   1.959   .     S
O243   Cu247   1.955   .     S
O243   C246    1.298   .     A
O244   Cu248   1.955   .     S
O244   C245    1.298   .     A
C245   C252    1.446   .     S
C246   C251    1.446   .     S
Cu247  N277    2.036   .     S
Cu247  Cu248   2.709   .     S
Cu248  N278    2.036   .     S
C249   C259    1.412   .     A
C249   N279    1.439   .     S
C249   C251    1.410   .     A
C250   N282    1.439   .     S
C250   C260    1.412   .     A
C250   C252    1.410   .     A
C251   C253    1.393   .     A
C252   C254    1.393   .     A
C253   C255    1.389   .     A
C253   H285    1.086   .     S
C254   C256    1.389   .     A
C254   H286    1.086   .     S
C255   C261    1.398   .     A
C255   C257    1.410   .     A
C256   C262    1.398   .     A
C256   C258    1.410   .     A
C257   C259    1.418   .     A
C257   C960    1.408   .     S
C258   C260    1.418   .     A
C258   C959    1.408   1_554 S
C259   C264    1.408   .     A
C260   C263    1.408   .     A
C261   H287    1.084   .     S
C261   C965    1.391   .     S
C262   H288    1.084   .     S
C262   C966    1.391   1_554 S
C263   H265    1.081   .     S
C263   C963    1.391   1_554 S
C264   H266    1.081   .     S
C264   C964    1.391   .     S
C267   N289    1.438   .     S
C267   C272    1.414   .     A
C267   C425    1.398   1_455 S
C268   C271    1.414   .     A
C268   N292    1.438   .     S
C268   C348    1.398   .     S
C269   C271    1.418   .     A
C269   N295    1.438   .     S
C269   C345    1.398   .     S
C270   N298    1.438   .     S
C270   C272    1.418   .     A
C270   C424    1.398   1_455 S
C273   N301    1.429   .     S
C273   N278    1.374   .     A
C274   N304    1.429   .     S
C274   N277    1.374   .     A
C274   C509    1.421   .     S
C275   N278    1.376   .     A
C275   N307    1.427   .     S
C276   N277    1.376   .     A
C276   N310    1.427   .     S
C276   C507    1.421   .     S
N279   O280    1.300   .     A
N279   O281    1.301   .     A
N282   O284    1.301   .     A
N282   O283    1.300   .     A
N289   O290    1.301   .     A
N289   O291    1.301   .     A
N292   O294    1.301   .     A
N292   O293    1.301   .     A
N295   O297    1.301   .     A
N295   O296    1.302   .     A
N298   O300    1.301   .     A
N298   O299    1.302   .     A
N301   O302    1.299   .     A
N301   O303    1.301   .     A
N304   O305    1.299   .     A
N304   O306    1.301   .     A
N307   O308    1.297   .     A
N307   O309    1.301   .     A
N310   O312    1.301   .     A
N310   O311    1.297   .     A
O313   C317    1.304   .     A
O313   Cu325   1.987   .     S
O314   C318    1.304   .     A
O314   Cu326   1.987   .     S
O315   C318    1.308   .     A
O315   Cu325   1.979   .     S
O316   C317    1.308   .     A
O316   Cu326   1.979   .     S
C317   C350    1.476   .     S
C318   C349    1.476   .     S
O319   C323    1.299   .     A
O319   Cu325   1.959   .     S
O320   C324    1.299   .     A
O320   Cu326   1.959   .     S
O321   Cu325   1.955   .     S
O321   C324    1.298   .     A
O322   Cu326   1.955   .     S
O322   C323    1.298   .     A
C323   C330    1.446   .     S
C324   C329    1.446   .     S
Cu325  N355    2.036   .     S
Cu325  Cu326   2.709   .     S
Cu326  N356    2.036   .     S
C327   C337    1.412   .     A
C327   N357    1.439   .     S
C327   C329    1.410   .     A
C328   N360    1.439   .     S
C328   C338    1.412   .     A
C328   C330    1.410   .     A
C329   C331    1.393   .     A
C330   C332    1.393   .     A
C331   C333    1.389   .     A
C331   H363    1.086   .     S
C332   C334    1.389   .     A
C332   H364    1.086   .     S
C333   C339    1.398   .     A
C333   C335    1.410   .     A
C334   C340    1.398   .     A
C334   C336    1.410   .     A
C335   C337    1.418   .     A
C335   C1038   1.408   .     S
C336   C338    1.418   .     A
C336   C1037   1.408   1_554 S
C337   C342    1.408   .     A
C338   C341    1.408   .     A
C339   H365    1.084   .     S
C339   C1043   1.391   .     S
C340   H366    1.084   .     S
C340   C1044   1.391   1_554 S
C341   H343    1.081   .     S
C341   C1041   1.391   1_554 S
C342   H344    1.081   .     S
C342   C1042   1.391   .     S
C345   N367    1.438   .     S
C345   C350    1.414   .     A
C346   C349    1.414   .     A
C346   N370    1.438   .     S
C346   C426    1.398   .     S
C347   C349    1.418   .     A
C347   N373    1.438   .     S
C347   C423    1.398   .     S
C348   N376    1.438   .     S
C348   C350    1.418   .     A
C351   N379    1.429   .     S
C351   N356    1.374   .     A
C352   N382    1.429   .     S
C352   N355    1.374   .     A
C352   C587    1.421   .     S
C353   N356    1.376   .     A
C353   N385    1.427   .     S
C354   N355    1.376   .     A
C354   N388    1.427   .     S
C354   C585    1.421   .     S
N357   O358    1.300   .     A
N357   O359    1.301   .     A
N360   O362    1.301   .     A
N360   O361    1.300   .     A
N367   O368    1.301   .     A
N367   O369    1.301   .     A
N370   O372    1.301   .     A
N370   O371    1.301   .     A
N373   O375    1.301   .     A
N373   O374    1.302   .     A
N376   O378    1.301   .     A
N376   O377    1.302   .     A
N379   O380    1.299   .     A
N379   O381    1.301   .     A
N382   O383    1.299   .     A
N382   O384    1.301   .     A
N385   O386    1.297   .     A
N385   O387    1.301   .     A
N388   O390    1.301   .     A
N388   O389    1.297   .     A
O391   C395    1.304   .     A
O391   Cu403   1.987   .     S
O392   C396    1.304   .     A
O392   Cu404   1.987   .     S
O393   C396    1.308   .     A
O393   Cu403   1.979   .     S
O394   C395    1.308   .     A
O394   Cu404   1.979   .     S
C395   C428    1.476   .     S
C396   C427    1.476   .     S
O397   C401    1.299   .     A
O397   Cu403   1.959   .     S
O398   C402    1.299   .     A
O398   Cu404   1.959   .     S
O399   Cu403   1.955   .     S
O399   C402    1.298   .     A
O400   Cu404   1.955   .     S
O400   C401    1.298   .     A
C401   C408    1.446   .     S
C402   C407    1.446   .     S
Cu403  N433    2.036   .     S
Cu403  Cu404   2.709   .     S
Cu404  N434    2.036   .     S
C405   C415    1.412   .     A
C405   N435    1.439   .     S
C405   C407    1.410   .     A
C406   N438    1.439   .     S
C406   C416    1.412   .     A
C406   C408    1.410   .     A
C407   C409    1.393   .     A
C408   C410    1.393   .     A
C409   C411    1.389   .     A
C409   H441    1.086   .     S
C410   C412    1.389   .     A
C410   H442    1.086   .     S
C411   C417    1.398   .     A
C411   C413    1.410   .     A
C412   C418    1.398   .     A
C412   C414    1.410   .     A
C413   C415    1.418   .     A
C413   C1116   1.408   .     S
C414   C416    1.418   .     A
C414   C1115   1.408   1_554 S
C415   C420    1.408   .     A
C416   C419    1.408   .     A
C417   H443    1.084   .     S
C417   C1121   1.391   .     S
C418   H444    1.084   .     S
C418   C1122   1.391   1_554 S
C419   H421    1.081   .     S
C419   C1119   1.391   1_554 S
C420   H422    1.081   .     S
C420   C1120   1.391   .     S
C423   N445    1.438   .     S
C423   C428    1.414   .     A
C424   C427    1.414   .     A
C424   N448    1.438   .     S
C424   C270    1.398   1_655 S
C425   C427    1.418   .     A
C425   N451    1.438   .     S
C425   C267    1.398   1_655 S
C426   N454    1.438   .     S
C426   C428    1.418   .     A
C429   N457    1.429   .     S
C429   N434    1.374   .     A
C430   N460    1.429   .     S
C430   N433    1.374   .     A
C430   C665    1.421   .     S
C431   N434    1.376   .     A
C431   N463    1.427   .     S
C432   N433    1.376   .     A
C432   N466    1.427   .     S
C432   C663    1.421   .     S
N435   O436    1.300   .     A
N435   O437    1.301   .     A
N438   O440    1.301   .     A
N438   O439    1.300   .     A
N445   O446    1.301   .     A
N445   O447    1.301   .     A
N448   O450    1.301   .     A
N448   O449    1.301   .     A
N451   O453    1.301   .     A
N451   O452    1.302   .     A
N454   O456    1.301   .     A
N454   O455    1.302   .     A
N457   O458    1.299   .     A
N457   O459    1.301   .     A
N460   O461    1.299   .     A
N460   O462    1.301   .     A
N463   O464    1.297   .     A
N463   O465    1.301   .     A
N466   O468    1.301   .     A
N466   O467    1.297   .     A
O469   C473    1.304   .     A
O469   Cu481   1.987   .     S
O470   C474    1.304   .     A
O470   Cu482   1.987   .     S
O471   C474    1.308   .     A
O471   Cu481   1.979   .     S
O472   C473    1.308   .     A
O472   Cu482   1.979   .     S
C473   C506    1.476   .     S
C474   C505    1.476   .     S
O475   C479    1.299   .     A
O475   Cu481   1.959   .     S
O476   C480    1.299   .     A
O476   Cu482   1.959   .     S
O477   Cu481   1.955   .     S
O477   C480    1.298   .     A
O478   Cu482   1.955   .     S
O478   C479    1.298   .     A
C479   C486    1.446   .     S
C480   C485    1.446   .     S
Cu481  N511    2.036   .     S
Cu481  Cu482   2.709   .     S
Cu482  N512    2.036   .     S
C483   C493    1.412   .     A
C483   N513    1.439   .     S
C483   C485    1.410   .     A
C484   N516    1.439   .     S
C484   C494    1.412   .     A
C484   C486    1.410   .     A
C485   C487    1.393   .     A
C486   C488    1.393   .     A
C487   C489    1.389   .     A
C487   H519    1.086   .     S
C488   C490    1.389   .     A
C488   H520    1.086   .     S
C489   C495    1.398   .     A
C489   C491    1.410   .     A
C490   C496    1.398   .     A
C490   C492    1.410   .     A
C491   C493    1.418   .     A
C491   C1194   1.408   .     S
C492   C494    1.418   .     A
C492   C1193   1.408   1_554 S
C493   C498    1.408   .     A
C494   C497    1.408   .     A
C495   H521    1.084   .     S
C495   C1199   1.391   .     S
C496   H522    1.084   .     S
C496   C1200   1.391   1_554 S
C497   H499    1.081   .     S
C497   C1197   1.391   1_554 S
C498   H500    1.081   .     S
C498   C1198   1.391   .     S
C501   N523    1.438   .     S
C501   C506    1.414   .     A
C501   C659    1.398   1_455 S
C502   C505    1.414   .     A
C502   N526    1.438   .     S
C502   C582    1.398   .     S
C503   C505    1.418   .     A
C503   N529    1.438   .     S
C503   C579    1.398   .     S
C504   N532    1.438   .     S
C504   C506    1.418   .     A
C504   C658    1.398   1_455 S
C507   N535    1.429   .     S
C507   N512    1.374   .     A
C508   N538    1.429   .     S
C508   N511    1.374   .     A
C508   C41     1.421   1_565 S
C509   N512    1.376   .     A
C509   N541    1.427   .     S
C510   N511    1.376   .     A
C510   N544    1.427   .     S
C510   C39     1.421   1_565 S
N513   O514    1.300   .     A
N513   O515    1.301   .     A
N516   O518    1.301   .     A
N516   O517    1.300   .     A
N523   O524    1.301   .     A
N523   O525    1.301   .     A
N526   O528    1.301   .     A
N526   O527    1.301   .     A
N529   O531    1.301   .     A
N529   O530    1.302   .     A
N532   O534    1.301   .     A
N532   O533    1.302   .     A
N535   O536    1.299   .     A
N535   O537    1.301   .     A
N538   O539    1.299   .     A
N538   O540    1.301   .     A
N541   O542    1.297   .     A
N541   O543    1.301   .     A
N544   O546    1.301   .     A
N544   O545    1.297   .     A
O547   C551    1.304   .     A
O547   Cu559   1.987   .     S
O548   C552    1.304   .     A
O548   Cu560   1.987   .     S
O549   C552    1.308   .     A
O549   Cu559   1.979   .     S
O550   C551    1.308   .     A
O550   Cu560   1.979   .     S
C551   C584    1.476   .     S
C552   C583    1.476   .     S
O553   C557    1.299   .     A
O553   Cu559   1.959   .     S
O554   C558    1.299   .     A
O554   Cu560   1.959   .     S
O555   Cu559   1.955   .     S
O555   C558    1.298   .     A
O556   Cu560   1.955   .     S
O556   C557    1.298   .     A
C557   C564    1.446   .     S
C558   C563    1.446   .     S
Cu559  N589    2.036   .     S
Cu559  Cu560   2.709   .     S
Cu560  N590    2.036   .     S
C561   C571    1.412   .     A
C561   N591    1.439   .     S
C561   C563    1.410   .     A
C562   N594    1.439   .     S
C562   C572    1.412   .     A
C562   C564    1.410   .     A
C563   C565    1.393   .     A
C564   C566    1.393   .     A
C565   C567    1.389   .     A
C565   H597    1.086   .     S
C566   C568    1.389   .     A
C566   H598    1.086   .     S
C567   C573    1.398   .     A
C567   C569    1.410   .     A
C568   C574    1.398   .     A
C568   C570    1.410   .     A
C569   C571    1.418   .     A
C569   C1272   1.408   .     S
C570   C572    1.418   .     A
C570   C1271   1.408   1_554 S
C571   C576    1.408   .     A
C572   C575    1.408   .     A
C573   H599    1.084   .     S
C573   C1277   1.391   .     S
C574   H600    1.084   .     S
C574   C1278   1.391   1_554 S
C575   H577    1.081   .     S
C575   C1275   1.391   1_554 S
C576   H578    1.081   .     S
C576   C1276   1.391   .     S
C579   N601    1.438   .     S
C579   C584    1.414   .     A
C580   C583    1.414   .     A
C580   N604    1.438   .     S
C580   C660    1.398   .     S
C581   C583    1.418   .     A
C581   N607    1.438   .     S
C581   C657    1.398   .     S
C582   N610    1.438   .     S
C582   C584    1.418   .     A
C585   N613    1.429   .     S
C585   N590    1.374   .     A
C586   N616    1.429   .     S
C586   N589    1.374   .     A
C586   C119    1.421   1_565 S
C587   N590    1.376   .     A
C587   N619    1.427   .     S
C588   N589    1.376   .     A
C588   N622    1.427   .     S
C588   C117    1.421   1_565 S
N591   O592    1.300   .     A
N591   O593    1.301   .     A
N594   O596    1.301   .     A
N594   O595    1.300   .     A
N601   O602    1.301   .     A
N601   O603    1.301   .     A
N604   O606    1.301   .     A
N604   O605    1.301   .     A
N607   O609    1.301   .     A
N607   O608    1.302   .     A
N610   O612    1.301   .     A
N610   O611    1.302   .     A
N613   O614    1.299   .     A
N613   O615    1.301   .     A
N616   O617    1.299   .     A
N616   O618    1.301   .     A
N619   O620    1.297   .     A
N619   O621    1.301   .     A
N622   O624    1.301   .     A
N622   O623    1.297   .     A
O625   C629    1.304   .     A
O625   Cu637   1.987   .     S
O626   C630    1.304   .     A
O626   Cu638   1.987   .     S
O627   C630    1.308   .     A
O627   Cu637   1.979   .     S
O628   C629    1.308   .     A
O628   Cu638   1.979   .     S
C629   C662    1.476   .     S
C630   C661    1.476   .     S
O631   C635    1.299   .     A
O631   Cu637   1.959   .     S
O632   C636    1.299   .     A
O632   Cu638   1.959   .     S
O633   Cu637   1.955   .     S
O633   C636    1.298   .     A
O634   Cu638   1.955   .     S
O634   C635    1.298   .     A
C635   C642    1.446   .     S
C636   C641    1.446   .     S
Cu637  N667    2.036   .     S
Cu637  Cu638   2.709   .     S
Cu638  N668    2.036   .     S
C639   C649    1.412   .     A
C639   N669    1.439   .     S
C639   C641    1.410   .     A
C640   N672    1.439   .     S
C640   C650    1.412   .     A
C640   C642    1.410   .     A
C641   C643    1.393   .     A
C642   C644    1.393   .     A
C643   C645    1.389   .     A
C643   H675    1.086   .     S
C644   C646    1.389   .     A
C644   H676    1.086   .     S
C645   C651    1.398   .     A
C645   C647    1.410   .     A
C646   C652    1.398   .     A
C646   C648    1.410   .     A
C647   C649    1.418   .     A
C647   C1350   1.408   .     S
C648   C650    1.418   .     A
C648   C1349   1.408   1_554 S
C649   C654    1.408   .     A
C650   C653    1.408   .     A
C651   H677    1.084   .     S
C651   C1355   1.391   .     S
C652   H678    1.084   .     S
C652   C1356   1.391   1_554 S
C653   H655    1.081   .     S
C653   C1353   1.391   1_554 S
C654   H656    1.081   .     S
C654   C1354   1.391   .     S
C657   N679    1.438   .     S
C657   C662    1.414   .     A
C658   C661    1.414   .     A
C658   N682    1.438   .     S
C658   C504    1.398   1_655 S
C659   C661    1.418   .     A
C659   N685    1.438   .     S
C659   C501    1.398   1_655 S
C660   N688    1.438   .     S
C660   C662    1.418   .     A
C663   N691    1.429   .     S
C663   N668    1.374   .     A
C664   N694    1.429   .     S
C664   N667    1.374   .     A
C664   C197    1.421   1_565 S
C665   N668    1.376   .     A
C665   N697    1.427   .     S
C666   N667    1.376   .     A
C666   N700    1.427   .     S
C666   C195    1.421   1_565 S
N669   O670    1.300   .     A
N669   O671    1.301   .     A
N672   O674    1.301   .     A
N672   O673    1.300   .     A
N679   O680    1.301   .     A
N679   O681    1.301   .     A
N682   O684    1.301   .     A
N682   O683    1.301   .     A
N685   O687    1.301   .     A
N685   O686    1.302   .     A
N688   O690    1.301   .     A
N688   O689    1.302   .     A
N691   O692    1.299   .     A
N691   O693    1.301   .     A
N694   O695    1.299   .     A
N694   O696    1.301   .     A
N697   O698    1.297   .     A
N697   O699    1.301   .     A
N700   O702    1.301   .     A
N700   O701    1.297   .     A
O703   C707    1.304   .     A
O703   Cu715   1.987   .     S
O704   C708    1.304   .     A
O704   Cu716   1.987   .     S
O705   C708    1.308   .     A
O705   Cu715   1.979   .     S
O706   C707    1.308   .     A
O706   Cu716   1.979   .     S
C707   C740    1.476   .     S
C708   C739    1.476   .     S
O709   C713    1.299   .     A
O709   Cu715   1.959   .     S
O710   C714    1.299   .     A
O710   Cu716   1.959   .     S
O711   Cu715   1.955   .     S
O711   C714    1.298   .     A
O712   Cu716   1.955   .     S
O712   C713    1.298   .     A
C713   C720    1.446   .     S
C714   C719    1.446   .     S
Cu715  N745    2.036   .     S
Cu715  Cu716   2.709   .     S
Cu716  N746    2.036   .     S
C717   C727    1.412   .     A
C717   N747    1.439   .     S
C717   C719    1.410   .     A
C718   N750    1.439   .     S
C718   C728    1.412   .     A
C718   C720    1.410   .     A
C719   C721    1.393   .     A
C720   C722    1.393   .     A
C721   C723    1.389   .     A
C721   H753    1.086   .     S
C722   C724    1.389   .     A
C722   H754    1.086   .     S
C723   C729    1.398   .     A
C723   C725    1.410   .     A
C724   C730    1.398   .     A
C724   C726    1.410   .     A
C725   C727    1.418   .     A
C725   C24     1.408   1_556 S
C726   C728    1.418   .     A
C727   C732    1.408   .     A
C728   C731    1.408   .     A
C729   H755    1.084   .     S
C729   C29     1.391   1_556 S
C730   H756    1.084   .     S
C731   H733    1.081   .     S
C732   H734    1.081   .     S
C732   C28     1.391   1_556 S
C735   N757    1.438   .     S
C735   C740    1.414   .     A
C735   C893    1.398   1_455 S
C736   C739    1.414   .     A
C736   N760    1.438   .     S
C736   C816    1.398   .     S
C737   C739    1.418   .     A
C737   N763    1.438   .     S
C737   C813    1.398   .     S
C738   N766    1.438   .     S
C738   C740    1.418   .     A
C738   C892    1.398   1_455 S
C741   N769    1.429   .     S
C741   N746    1.374   .     A
C741   C1212   1.421   1_545 S
C742   N772    1.429   .     S
C742   N745    1.374   .     A
C742   C977    1.421   .     S
C743   N746    1.376   .     A
C743   N775    1.427   .     S
C743   C1210   1.421   1_545 S
C744   N745    1.376   .     A
C744   N778    1.427   .     S
C744   C975    1.421   .     S
N747   O748    1.300   .     A
N747   O749    1.301   .     A
N750   O752    1.301   .     A
N750   O751    1.300   .     A
N757   O758    1.301   .     A
N757   O759    1.301   .     A
N760   O762    1.301   .     A
N760   O761    1.301   .     A
N763   O765    1.301   .     A
N763   O764    1.302   .     A
N766   O768    1.301   .     A
N766   O767    1.302   .     A
N769   O770    1.299   .     A
N769   O771    1.301   .     A
N772   O773    1.299   .     A
N772   O774    1.301   .     A
N775   O776    1.297   .     A
N775   O777    1.301   .     A
N778   O780    1.301   .     A
N778   O779    1.297   .     A
O781   C785    1.304   .     A
O781   Cu793   1.987   .     S
O782   C786    1.304   .     A
O782   Cu794   1.987   .     S
O783   C786    1.308   .     A
O783   Cu793   1.979   .     S
O784   C785    1.308   .     A
O784   Cu794   1.979   .     S
C785   C818    1.476   .     S
C786   C817    1.476   .     S
O787   C791    1.299   .     A
O787   Cu793   1.959   .     S
O788   C792    1.299   .     A
O788   Cu794   1.959   .     S
O789   Cu793   1.955   .     S
O789   C792    1.298   .     A
O790   Cu794   1.955   .     S
O790   C791    1.298   .     A
C791   C798    1.446   .     S
C792   C797    1.446   .     S
Cu793  N823    2.036   .     S
Cu793  Cu794   2.709   .     S
Cu794  N824    2.036   .     S
C795   C805    1.412   .     A
C795   N825    1.439   .     S
C795   C797    1.410   .     A
C796   N828    1.439   .     S
C796   C806    1.412   .     A
C796   C798    1.410   .     A
C797   C799    1.393   .     A
C798   C800    1.393   .     A
C799   C801    1.389   .     A
C799   H831    1.086   .     S
C800   C802    1.389   .     A
C800   H832    1.086   .     S
C801   C807    1.398   .     A
C801   C803    1.410   .     A
C802   C808    1.398   .     A
C802   C804    1.410   .     A
C803   C805    1.418   .     A
C803   C102    1.408   1_556 S
C804   C806    1.418   .     A
C805   C810    1.408   .     A
C806   C809    1.408   .     A
C807   H833    1.084   .     S
C807   C107    1.391   1_556 S
C808   H834    1.084   .     S
C809   H811    1.081   .     S
C810   H812    1.081   .     S
C810   C106    1.391   1_556 S
C813   N835    1.438   .     S
C813   C818    1.414   .     A
C814   C817    1.414   .     A
C814   N838    1.438   .     S
C814   C894    1.398   .     S
C815   C817    1.418   .     A
C815   N841    1.438   .     S
C815   C891    1.398   .     S
C816   N844    1.438   .     S
C816   C818    1.418   .     A
C819   N847    1.429   .     S
C819   N824    1.374   .     A
C819   C1290   1.421   1_545 S
C820   N850    1.429   .     S
C820   N823    1.374   .     A
C820   C1055   1.421   .     S
C821   N824    1.376   .     A
C821   N853    1.427   .     S
C821   C1288   1.421   1_545 S
C822   N823    1.376   .     A
C822   N856    1.427   .     S
C822   C1053   1.421   .     S
N825   O826    1.300   .     A
N825   O827    1.301   .     A
N828   O830    1.301   .     A
N828   O829    1.300   .     A
N835   O836    1.301   .     A
N835   O837    1.301   .     A
N838   O840    1.301   .     A
N838   O839    1.301   .     A
N841   O843    1.301   .     A
N841   O842    1.302   .     A
N844   O846    1.301   .     A
N844   O845    1.302   .     A
N847   O848    1.299   .     A
N847   O849    1.301   .     A
N850   O851    1.299   .     A
N850   O852    1.301   .     A
N853   O854    1.297   .     A
N853   O855    1.301   .     A
N856   O858    1.301   .     A
N856   O857    1.297   .     A
O859   C863    1.304   .     A
O859   Cu871   1.987   .     S
O860   C864    1.304   .     A
O860   Cu872   1.987   .     S
O861   C864    1.308   .     A
O861   Cu871   1.979   .     S
O862   C863    1.308   .     A
O862   Cu872   1.979   .     S
C863   C896    1.476   .     S
C864   C895    1.476   .     S
O865   C869    1.299   .     A
O865   Cu871   1.959   .     S
O866   C870    1.299   .     A
O866   Cu872   1.959   .     S
O867   Cu871   1.955   .     S
O867   C870    1.298   .     A
O868   Cu872   1.955   .     S
O868   C869    1.298   .     A
C869   C876    1.446   .     S
C870   C875    1.446   .     S
Cu871  N901    2.036   .     S
Cu871  Cu872   2.709   .     S
Cu872  N902    2.036   .     S
C873   C883    1.412   .     A
C873   N903    1.439   .     S
C873   C875    1.410   .     A
C874   N906    1.439   .     S
C874   C884    1.412   .     A
C874   C876    1.410   .     A
C875   C877    1.393   .     A
C876   C878    1.393   .     A
C877   C879    1.389   .     A
C877   H909    1.086   .     S
C878   C880    1.389   .     A
C878   H910    1.086   .     S
C879   C885    1.398   .     A
C879   C881    1.410   .     A
C880   C886    1.398   .     A
C880   C882    1.410   .     A
C881   C883    1.418   .     A
C881   C180    1.408   1_556 S
C882   C884    1.418   .     A
C883   C888    1.408   .     A
C884   C887    1.408   .     A
C885   H911    1.084   .     S
C885   C185    1.391   1_556 S
C886   H912    1.084   .     S
C887   H889    1.081   .     S
C888   H890    1.081   .     S
C888   C184    1.391   1_556 S
C891   N913    1.438   .     S
C891   C896    1.414   .     A
C892   C895    1.414   .     A
C892   N916    1.438   .     S
C892   C738    1.398   1_655 S
C893   C895    1.418   .     A
C893   N919    1.438   .     S
C893   C735    1.398   1_655 S
C894   N922    1.438   .     S
C894   C896    1.418   .     A
C897   N925    1.429   .     S
C897   N902    1.374   .     A
C897   C1368   1.421   1_545 S
C898   N928    1.429   .     S
C898   N901    1.374   .     A
C898   C1133   1.421   .     S
C899   N902    1.376   .     A
C899   N931    1.427   .     S
C899   C1366   1.421   1_545 S
C900   N901    1.376   .     A
C900   N934    1.427   .     S
C900   C1131   1.421   .     S
N903   O904    1.300   .     A
N903   O905    1.301   .     A
N906   O908    1.301   .     A
N906   O907    1.300   .     A
N913   O914    1.301   .     A
N913   O915    1.301   .     A
N916   O918    1.301   .     A
N916   O917    1.301   .     A
N919   O921    1.301   .     A
N919   O920    1.302   .     A
N922   O924    1.301   .     A
N922   O923    1.302   .     A
N925   O926    1.299   .     A
N925   O927    1.301   .     A
N928   O929    1.299   .     A
N928   O930    1.301   .     A
N931   O932    1.297   .     A
N931   O933    1.301   .     A
N934   O936    1.301   .     A
N934   O935    1.297   .     A
O937   C941    1.304   .     A
O937   Cu949   1.987   .     S
O938   C942    1.304   .     A
O938   Cu950   1.987   .     S
O939   C942    1.308   .     A
O939   Cu949   1.979   .     S
O940   C941    1.308   .     A
O940   Cu950   1.979   .     S
C941   C974    1.476   .     S
C942   C973    1.476   .     S
O943   C947    1.299   .     A
O943   Cu949   1.959   .     S
O944   C948    1.299   .     A
O944   Cu950   1.959   .     S
O945   Cu949   1.955   .     S
O945   C948    1.298   .     A
O946   Cu950   1.955   .     S
O946   C947    1.298   .     A
C947   C954    1.446   .     S
C948   C953    1.446   .     S
Cu949  N979    2.036   .     S
Cu949  Cu950   2.709   .     S
Cu950  N980    2.036   .     S
C951   C961    1.412   .     A
C951   N981    1.439   .     S
C951   C953    1.410   .     A
C952   N984    1.439   .     S
C952   C962    1.412   .     A
C952   C954    1.410   .     A
C953   C955    1.393   .     A
C954   C956    1.393   .     A
C955   C957    1.389   .     A
C955   H987    1.086   .     S
C956   C958    1.389   .     A
C956   H988    1.086   .     S
C957   C963    1.398   .     A
C957   C959    1.410   .     A
C958   C964    1.398   .     A
C958   C960    1.410   .     A
C959   C961    1.418   .     A
C959   C258    1.408   1_556 S
C960   C962    1.418   .     A
C961   C966    1.408   .     A
C962   C965    1.408   .     A
C963   H989    1.084   .     S
C963   C263    1.391   1_556 S
C964   H990    1.084   .     S
C965   H967    1.081   .     S
C966   H968    1.081   .     S
C966   C262    1.391   1_556 S
C969   N991    1.438   .     S
C969   C974    1.414   .     A
C969   C1127   1.398   1_455 S
C970   C973    1.414   .     A
C970   N994    1.438   .     S
C970   C1050   1.398   .     S
C971   C973    1.418   .     A
C971   N997    1.438   .     S
C971   C1047   1.398   .     S
C972   N1000   1.438   .     S
C972   C974    1.418   .     A
C972   C1126   1.398   1_455 S
C975   N1003   1.429   .     S
C975   N980    1.374   .     A
C976   N1006   1.429   .     S
C976   N979    1.374   .     A
C976   C1211   1.421   .     S
C977   N980    1.376   .     A
C977   N1009   1.427   .     S
C978   N979    1.376   .     A
C978   N1012   1.427   .     S
C978   C1209   1.421   .     S
N981   O982    1.300   .     A
N981   O983    1.301   .     A
N984   O986    1.301   .     A
N984   O985    1.300   .     A
N991   O992    1.301   .     A
N991   O993    1.301   .     A
N994   O996    1.301   .     A
N994   O995    1.301   .     A
N997   O999    1.301   .     A
N997   O998    1.302   .     A
N1000  O1002   1.301   .     A
N1000  O1001   1.302   .     A
N1003  O1004   1.299   .     A
N1003  O1005   1.301   .     A
N1006  O1007   1.299   .     A
N1006  O1008   1.301   .     A
N1009  O1010   1.297   .     A
N1009  O1011   1.301   .     A
N1012  O1014   1.301   .     A
N1012  O1013   1.297   .     A
O1015  C1019   1.304   .     A
O1015  Cu1027  1.987   .     S
O1016  C1020   1.304   .     A
O1016  Cu1028  1.987   .     S
O1017  C1020   1.308   .     A
O1017  Cu1027  1.979   .     S
O1018  C1019   1.308   .     A
O1018  Cu1028  1.979   .     S
C1019  C1052   1.476   .     S
C1020  C1051   1.476   .     S
O1021  C1025   1.299   .     A
O1021  Cu1027  1.959   .     S
O1022  C1026   1.299   .     A
O1022  Cu1028  1.959   .     S
O1023  Cu1027  1.955   .     S
O1023  C1026   1.298   .     A
O1024  Cu1028  1.955   .     S
O1024  C1025   1.298   .     A
C1025  C1032   1.446   .     S
C1026  C1031   1.446   .     S
Cu1027 N1057   2.036   .     S
Cu1027 Cu1028  2.709   .     S
Cu1028 N1058   2.036   .     S
C1029  C1039   1.412   .     A
C1029  N1059   1.439   .     S
C1029  C1031   1.410   .     A
C1030  N1062   1.439   .     S
C1030  C1040   1.412   .     A
C1030  C1032   1.410   .     A
C1031  C1033   1.393   .     A
C1032  C1034   1.393   .     A
C1033  C1035   1.389   .     A
C1033  H1065   1.086   .     S
C1034  C1036   1.389   .     A
C1034  H1066   1.086   .     S
C1035  C1041   1.398   .     A
C1035  C1037   1.410   .     A
C1036  C1042   1.398   .     A
C1036  C1038   1.410   .     A
C1037  C1039   1.418   .     A
C1037  C336    1.408   1_556 S
C1038  C1040   1.418   .     A
C1039  C1044   1.408   .     A
C1040  C1043   1.408   .     A
C1041  H1067   1.084   .     S
C1041  C341    1.391   1_556 S
C1042  H1068   1.084   .     S
C1043  H1045   1.081   .     S
C1044  H1046   1.081   .     S
C1044  C340    1.391   1_556 S
C1047  N1069   1.438   .     S
C1047  C1052   1.414   .     A
C1048  C1051   1.414   .     A
C1048  N1072   1.438   .     S
C1048  C1128   1.398   .     S
C1049  C1051   1.418   .     A
C1049  N1075   1.438   .     S
C1049  C1125   1.398   .     S
C1050  N1078   1.438   .     S
C1050  C1052   1.418   .     A
C1053  N1081   1.429   .     S
C1053  N1058   1.374   .     A
C1054  N1084   1.429   .     S
C1054  N1057   1.374   .     A
C1054  C1289   1.421   .     S
C1055  N1058   1.376   .     A
C1055  N1087   1.427   .     S
C1056  N1057   1.376   .     A
C1056  N1090   1.427   .     S
C1056  C1287   1.421   .     S
N1059  O1060   1.300   .     A
N1059  O1061   1.301   .     A
N1062  O1064   1.301   .     A
N1062  O1063   1.300   .     A
N1069  O1070   1.301   .     A
N1069  O1071   1.301   .     A
N1072  O1074   1.301   .     A
N1072  O1073   1.301   .     A
N1075  O1077   1.301   .     A
N1075  O1076   1.302   .     A
N1078  O1080   1.301   .     A
N1078  O1079   1.302   .     A
N1081  O1082   1.299   .     A
N1081  O1083   1.301   .     A
N1084  O1085   1.299   .     A
N1084  O1086   1.301   .     A
N1087  O1088   1.297   .     A
N1087  O1089   1.301   .     A
N1090  O1092   1.301   .     A
N1090  O1091   1.297   .     A
O1093  C1097   1.304   .     A
O1093  Cu1105  1.987   .     S
O1094  C1098   1.304   .     A
O1094  Cu1106  1.987   .     S
O1095  C1098   1.308   .     A
O1095  Cu1105  1.979   .     S
O1096  C1097   1.308   .     A
O1096  Cu1106  1.979   .     S
C1097  C1130   1.476   .     S
C1098  C1129   1.476   .     S
O1099  C1103   1.299   .     A
O1099  Cu1105  1.959   .     S
O1100  C1104   1.299   .     A
O1100  Cu1106  1.959   .     S
O1101  Cu1105  1.955   .     S
O1101  C1104   1.298   .     A
O1102  Cu1106  1.955   .     S
O1102  C1103   1.298   .     A
C1103  C1110   1.446   .     S
C1104  C1109   1.446   .     S
Cu1105 N1135   2.036   .     S
Cu1105 Cu1106  2.709   .     S
Cu1106 N1136   2.036   .     S
C1107  C1117   1.412   .     A
C1107  N1137   1.439   .     S
C1107  C1109   1.410   .     A
C1108  N1140   1.439   .     S
C1108  C1118   1.412   .     A
C1108  C1110   1.410   .     A
C1109  C1111   1.393   .     A
C1110  C1112   1.393   .     A
C1111  C1113   1.389   .     A
C1111  H1143   1.086   .     S
C1112  C1114   1.389   .     A
C1112  H1144   1.086   .     S
C1113  C1119   1.398   .     A
C1113  C1115   1.410   .     A
C1114  C1120   1.398   .     A
C1114  C1116   1.410   .     A
C1115  C1117   1.418   .     A
C1115  C414    1.408   1_556 S
C1116  C1118   1.418   .     A
C1117  C1122   1.408   .     A
C1118  C1121   1.408   .     A
C1119  H1145   1.084   .     S
C1119  C419    1.391   1_556 S
C1120  H1146   1.084   .     S
C1121  H1123   1.081   .     S
C1122  H1124   1.081   .     S
C1122  C418    1.391   1_556 S
C1125  N1147   1.438   .     S
C1125  C1130   1.414   .     A
C1126  C1129   1.414   .     A
C1126  N1150   1.438   .     S
C1126  C972    1.398   1_655 S
C1127  C1129   1.418   .     A
C1127  N1153   1.438   .     S
C1127  C969    1.398   1_655 S
C1128  N1156   1.438   .     S
C1128  C1130   1.418   .     A
C1131  N1159   1.429   .     S
C1131  N1136   1.374   .     A
C1132  N1162   1.429   .     S
C1132  N1135   1.374   .     A
C1132  C1367   1.421   .     S
C1133  N1136   1.376   .     A
C1133  N1165   1.427   .     S
C1134  N1135   1.376   .     A
C1134  N1168   1.427   .     S
C1134  C1365   1.421   .     S
N1137  O1138   1.300   .     A
N1137  O1139   1.301   .     A
N1140  O1142   1.301   .     A
N1140  O1141   1.300   .     A
N1147  O1148   1.301   .     A
N1147  O1149   1.301   .     A
N1150  O1152   1.301   .     A
N1150  O1151   1.301   .     A
N1153  O1155   1.301   .     A
N1153  O1154   1.302   .     A
N1156  O1158   1.301   .     A
N1156  O1157   1.302   .     A
N1159  O1160   1.299   .     A
N1159  O1161   1.301   .     A
N1162  O1163   1.299   .     A
N1162  O1164   1.301   .     A
N1165  O1166   1.297   .     A
N1165  O1167   1.301   .     A
N1168  O1170   1.301   .     A
N1168  O1169   1.297   .     A
O1171  C1175   1.304   .     A
O1171  Cu1183  1.987   .     S
O1172  C1176   1.304   .     A
O1172  Cu1184  1.987   .     S
O1173  C1176   1.308   .     A
O1173  Cu1183  1.979   .     S
O1174  C1175   1.308   .     A
O1174  Cu1184  1.979   .     S
C1175  C1208   1.476   .     S
C1176  C1207   1.476   .     S
O1177  C1181   1.299   .     A
O1177  Cu1183  1.959   .     S
O1178  C1182   1.299   .     A
O1178  Cu1184  1.959   .     S
O1179  Cu1183  1.955   .     S
O1179  C1182   1.298   .     A
O1180  Cu1184  1.955   .     S
O1180  C1181   1.298   .     A
C1181  C1188   1.446   .     S
C1182  C1187   1.446   .     S
Cu1183 N1213   2.036   .     S
Cu1183 Cu1184  2.709   .     S
Cu1184 N1214   2.036   .     S
C1185  C1195   1.412   .     A
C1185  N1215   1.439   .     S
C1185  C1187   1.410   .     A
C1186  N1218   1.439   .     S
C1186  C1196   1.412   .     A
C1186  C1188   1.410   .     A
C1187  C1189   1.393   .     A
C1188  C1190   1.393   .     A
C1189  C1191   1.389   .     A
C1189  H1221   1.086   .     S
C1190  C1192   1.389   .     A
C1190  H1222   1.086   .     S
C1191  C1197   1.398   .     A
C1191  C1193   1.410   .     A
C1192  C1198   1.398   .     A
C1192  C1194   1.410   .     A
C1193  C1195   1.418   .     A
C1193  C492    1.408   1_556 S
C1194  C1196   1.418   .     A
C1195  C1200   1.408   .     A
C1196  C1199   1.408   .     A
C1197  H1223   1.084   .     S
C1197  C497    1.391   1_556 S
C1198  H1224   1.084   .     S
C1199  H1201   1.081   .     S
C1200  H1202   1.081   .     S
C1200  C496    1.391   1_556 S
C1203  N1225   1.438   .     S
C1203  C1208   1.414   .     A
C1203  C1361   1.398   1_455 S
C1204  C1207   1.414   .     A
C1204  N1228   1.438   .     S
C1204  C1284   1.398   .     S
C1205  C1207   1.418   .     A
C1205  N1231   1.438   .     S
C1205  C1281   1.398   .     S
C1206  N1234   1.438   .     S
C1206  C1208   1.418   .     A
C1206  C1360   1.398   1_455 S
C1209  N1237   1.429   .     S
C1209  N1214   1.374   .     A
C1210  N1240   1.429   .     S
C1210  N1213   1.374   .     A
C1210  C743    1.421   1_565 S
C1211  N1214   1.376   .     A
C1211  N1243   1.427   .     S
C1212  N1213   1.376   .     A
C1212  N1246   1.427   .     S
C1212  C741    1.421   1_565 S
N1215  O1216   1.300   .     A
N1215  O1217   1.301   .     A
N1218  O1220   1.301   .     A
N1218  O1219   1.300   .     A
N1225  O1226   1.301   .     A
N1225  O1227   1.301   .     A
N1228  O1230   1.301   .     A
N1228  O1229   1.301   .     A
N1231  O1233   1.301   .     A
N1231  O1232   1.302   .     A
N1234  O1236   1.301   .     A
N1234  O1235   1.302   .     A
N1237  O1238   1.299   .     A
N1237  O1239   1.301   .     A
N1240  O1241   1.299   .     A
N1240  O1242   1.301   .     A
N1243  O1244   1.297   .     A
N1243  O1245   1.301   .     A
N1246  O1248   1.301   .     A
N1246  O1247   1.297   .     A
O1249  C1253   1.304   .     A
O1249  Cu1261  1.987   .     S
O1250  C1254   1.304   .     A
O1250  Cu1262  1.987   .     S
O1251  C1254   1.308   .     A
O1251  Cu1261  1.979   .     S
O1252  C1253   1.308   .     A
O1252  Cu1262  1.979   .     S
C1253  C1286   1.476   .     S
C1254  C1285   1.476   .     S
O1255  C1259   1.299   .     A
O1255  Cu1261  1.959   .     S
O1256  C1260   1.299   .     A
O1256  Cu1262  1.959   .     S
O1257  Cu1261  1.955   .     S
O1257  C1260   1.298   .     A
O1258  Cu1262  1.955   .     S
O1258  C1259   1.298   .     A
C1259  C1266   1.446   .     S
C1260  C1265   1.446   .     S
Cu1261 N1291   2.036   .     S
Cu1261 Cu1262  2.709   .     S
Cu1262 N1292   2.036   .     S
C1263  C1273   1.412   .     A
C1263  N1293   1.439   .     S
C1263  C1265   1.410   .     A
C1264  N1296   1.439   .     S
C1264  C1274   1.412   .     A
C1264  C1266   1.410   .     A
C1265  C1267   1.393   .     A
C1266  C1268   1.393   .     A
C1267  C1269   1.389   .     A
C1267  H1299   1.086   .     S
C1268  C1270   1.389   .     A
C1268  H1300   1.086   .     S
C1269  C1275   1.398   .     A
C1269  C1271   1.410   .     A
C1270  C1276   1.398   .     A
C1270  C1272   1.410   .     A
C1271  C1273   1.418   .     A
C1271  C570    1.408   1_556 S
C1272  C1274   1.418   .     A
C1273  C1278   1.408   .     A
C1274  C1277   1.408   .     A
C1275  H1301   1.084   .     S
C1275  C575    1.391   1_556 S
C1276  H1302   1.084   .     S
C1277  H1279   1.081   .     S
C1278  H1280   1.081   .     S
C1278  C574    1.391   1_556 S
C1281  N1303   1.438   .     S
C1281  C1286   1.414   .     A
C1282  C1285   1.414   .     A
C1282  N1306   1.438   .     S
C1282  C1362   1.398   .     S
C1283  C1285   1.418   .     A
C1283  N1309   1.438   .     S
C1283  C1359   1.398   .     S
C1284  N1312   1.438   .     S
C1284  C1286   1.418   .     A
C1287  N1315   1.429   .     S
C1287  N1292   1.374   .     A
C1288  N1318   1.429   .     S
C1288  N1291   1.374   .     A
C1288  C821    1.421   1_565 S
C1289  N1292   1.376   .     A
C1289  N1321   1.427   .     S
C1290  N1291   1.376   .     A
C1290  N1324   1.427   .     S
C1290  C819    1.421   1_565 S
N1293  O1294   1.300   .     A
N1293  O1295   1.301   .     A
N1296  O1298   1.301   .     A
N1296  O1297   1.300   .     A
N1303  O1304   1.301   .     A
N1303  O1305   1.301   .     A
N1306  O1308   1.301   .     A
N1306  O1307   1.301   .     A
N1309  O1311   1.301   .     A
N1309  O1310   1.302   .     A
N1312  O1314   1.301   .     A
N1312  O1313   1.302   .     A
N1315  O1316   1.299   .     A
N1315  O1317   1.301   .     A
N1318  O1319   1.299   .     A
N1318  O1320   1.301   .     A
N1321  O1322   1.297   .     A
N1321  O1323   1.301   .     A
N1324  O1326   1.301   .     A
N1324  O1325   1.297   .     A
O1327  C1331   1.304   .     A
O1327  Cu1339  1.987   .     S
O1328  C1332   1.304   .     A
O1328  Cu1340  1.987   .     S
O1329  C1332   1.308   .     A
O1329  Cu1339  1.979   .     S
O1330  C1331   1.308   .     A
O1330  Cu1340  1.979   .     S
C1331  C1364   1.476   .     S
C1332  C1363   1.476   .     S
O1333  C1337   1.299   .     A
O1333  Cu1339  1.959   .     S
O1334  C1338   1.299   .     A
O1334  Cu1340  1.959   .     S
O1335  Cu1339  1.955   .     S
O1335  C1338   1.298   .     A
O1336  Cu1340  1.955   .     S
O1336  C1337   1.298   .     A
C1337  C1344   1.446   .     S
C1338  C1343   1.446   .     S
Cu1339 N1369   2.036   .     S
Cu1339 Cu1340  2.709   .     S
Cu1340 N1370   2.036   .     S
C1341  C1351   1.412   .     A
C1341  N1371   1.439   .     S
C1341  C1343   1.410   .     A
C1342  N1374   1.439   .     S
C1342  C1352   1.412   .     A
C1342  C1344   1.410   .     A
C1343  C1345   1.393   .     A
C1344  C1346   1.393   .     A
C1345  C1347   1.389   .     A
C1345  H1377   1.086   .     S
C1346  C1348   1.389   .     A
C1346  H1378   1.086   .     S
C1347  C1353   1.398   .     A
C1347  C1349   1.410   .     A
C1348  C1354   1.398   .     A
C1348  C1350   1.410   .     A
C1349  C1351   1.418   .     A
C1349  C648    1.408   1_556 S
C1350  C1352   1.418   .     A
C1351  C1356   1.408   .     A
C1352  C1355   1.408   .     A
C1353  H1379   1.084   .     S
C1353  C653    1.391   1_556 S
C1354  H1380   1.084   .     S
C1355  H1357   1.081   .     S
C1356  H1358   1.081   .     S
C1356  C652    1.391   1_556 S
C1359  N1381   1.438   .     S
C1359  C1364   1.414   .     A
C1360  C1363   1.414   .     A
C1360  N1384   1.438   .     S
C1360  C1206   1.398   1_655 S
C1361  C1363   1.418   .     A
C1361  N1387   1.438   .     S
C1361  C1203   1.398   1_655 S
C1362  N1390   1.438   .     S
C1362  C1364   1.418   .     A
C1365  N1393   1.429   .     S
C1365  N1370   1.374   .     A
C1366  N1396   1.429   .     S
C1366  N1369   1.374   .     A
C1366  C899    1.421   1_565 S
C1367  N1370   1.376   .     A
C1367  N1399   1.427   .     S
C1368  N1369   1.376   .     A
C1368  N1402   1.427   .     S
C1368  C897    1.421   1_565 S
N1371  O1372   1.300   .     A
N1371  O1373   1.301   .     A
N1374  O1376   1.301   .     A
N1374  O1375   1.300   .     A
N1381  O1382   1.301   .     A
N1381  O1383   1.301   .     A
N1384  O1386   1.301   .     A
N1384  O1385   1.301   .     A
N1387  O1389   1.301   .     A
N1387  O1388   1.302   .     A
N1390  O1392   1.301   .     A
N1390  O1391   1.302   .     A
N1393  O1394   1.299   .     A
N1393  O1395   1.301   .     A
N1396  O1397   1.299   .     A
N1396  O1398   1.301   .     A
N1399  O1400   1.297   .     A
N1399  O1401   1.301   .     A
N1402  O1404   1.301   .     A
N1402  O1403   1.297   .     A
