data_str_m2_o1_o17_pcu_sym.97
_audit_creation_date              2020-01-03
_audit_creation_method            'Materials Studio'
_symmetry_space_group_name_H-M    'P1'
_symmetry_Int_Tables_number       1
_symmetry_cell_setting            triclinic
loop_
_symmetry_equiv_pos_as_xyz
  x,y,z
_cell_length_a                    32.4969
_cell_length_b                    28.5041
_cell_length_c                    30.2787
_cell_angle_alpha                 90.0182
_cell_angle_beta                  90.2016
_cell_angle_gamma                 89.9851
loop_
_atom_site_label
_atom_site_type_symbol
_atom_site_fract_x
_atom_site_fract_y
_atom_site_fract_z
_atom_site_U_iso_or_equiv
_atom_site_adp_type
_atom_site_occupancy
C1     C     0.08737   0.16667   0.24997   0.00000  Uiso   1.00
C2     C     0.04278   0.16667   0.24998   0.00000  Uiso   1.00
C3     C     0.14126   0.02482   0.22230   0.00000  Uiso   1.00
C4     C     0.19207   0.30851   0.27770   0.00000  Uiso   1.00
C5     C     0.19205   0.02483   0.27772   0.00000  Uiso   1.00
C6     C     0.14128   0.30850   0.22228   0.00000  Uiso   1.00
C7     C     0.16663   0.16666   0.16427   0.00000  Uiso   1.00
C8     C     0.16670   0.16667   0.33573   0.00000  Uiso   1.00
C9     C     0.17895   0.20704   0.40738   0.00000  Uiso   1.00
C10    C     0.15438   0.12629   0.09263   0.00000  Uiso   1.00
C11    C     0.16672   0.16666   0.38417   0.00000  Uiso   1.00
C12    C     0.24597   0.16666   0.25003   0.00000  Uiso   1.00
C13    C     0.16662   0.16667   0.11583   0.00000  Uiso   1.00
C14    C     0.15449   0.12627   0.40725   0.00000  Uiso   1.00
C15    C     0.17885   0.20706   0.09275   0.00000  Uiso   1.00
C16    C     0.15464   0.12584   0.45346   0.00000  Uiso   1.00
C17    C     0.17870   0.20749   0.04654   0.00000  Uiso   1.00
C18    C     0.16668   0.16666   0.47674   0.00000  Uiso   1.00
C19    C     0.16665   0.16667   0.02326   0.00000  Uiso   1.00
C20    C     0.17876   0.20748   0.45359   0.00000  Uiso   1.00
C21    C     0.15458   0.12585   0.04641   0.00000  Uiso   1.00
C22    C     0.14291   0.08545   0.47692   0.00000  Uiso   1.00
C23    C     0.14288   0.08545   0.02283   0.00000  Uiso   1.00
C24    C     0.19042   0.24789   0.02308   0.00000  Uiso   1.00
C25    C     0.19046   0.24788   0.47717   0.00000  Uiso   1.00
C26    C     0.02138   0.12883   0.26865   0.00000  Uiso   1.00
C27    C     0.31195   0.20450   0.23135   0.00000  Uiso   1.00
C28    C     0.31211   0.12883   0.26867   0.00000  Uiso   1.00
C29    C     0.02122   0.20450   0.23133   0.00000  Uiso   1.00
C30    C     0.29056   0.16666   0.25002   0.00000  Uiso   1.00
Cu31   Cu    0.16667   0.21355   0.25000   0.00000  Uiso   1.00
Cu32   Cu    0.16667   0.11978   0.25000   0.00000  Uiso   1.00
F33    F     0.19178   0.24561   0.38487   0.00000  Uiso   1.00
F34    F     0.29173   0.24090   0.21209   0.00000  Uiso   1.00
F35    F     0.29205   0.09243   0.28796   0.00000  Uiso   1.00
F36    F     0.04128   0.24090   0.21204   0.00000  Uiso   1.00
F37    F     0.14155   0.08772   0.11513   0.00000  Uiso   1.00
F38    F     0.14169   0.08769   0.38461   0.00000  Uiso   1.00
F39    F     0.19165   0.24564   0.11539   0.00000  Uiso   1.00
F40    F     0.13152   0.04549   0.45569   0.00000  Uiso   1.00
F41    F     0.20181   0.28784   0.04431   0.00000  Uiso   1.00
F42    F     0.13146   0.04550   0.04395   0.00000  Uiso   1.00
F43    F     0.20187   0.28783   0.45605   0.00000  Uiso   1.00
F44    F     0.04160   0.09243   0.28791   0.00000  Uiso   1.00
H45    H     0.12090   0.04357   0.20015   0.00000  Uiso   1.00
H46    H     0.21243   0.28976   0.29985   0.00000  Uiso   1.00
H47    H     0.21236   0.04358   0.29993   0.00000  Uiso   1.00
H48    H     0.12098   0.28975   0.20007   0.00000  Uiso   1.00
N49    N     0.16667   0.28402   0.25000   0.00000  Uiso   1.00
N50    N     0.16667   0.04931   0.25000   0.00000  Uiso   1.00
O51    O     0.10655   0.20625   0.25000   0.00000  Uiso   1.00
O52    O     0.22679   0.12709   0.25001   0.00000  Uiso   1.00
O53    O     0.22679   0.20625   0.25001   0.00000  Uiso   1.00
O54    O     0.10655   0.12709   0.25000   0.00000  Uiso   1.00
O55    O     0.16666   0.20627   0.18513   0.00000  Uiso   1.00
O56    O     0.16668   0.12707   0.31487   0.00000  Uiso   1.00
O57    O     0.16668   0.20627   0.31487   0.00000  Uiso   1.00
O58    O     0.16666   0.12707   0.18513   0.00000  Uiso   1.00
C59    C     0.42070   0.16667   0.24997   0.00000  Uiso   1.00
C60    C     0.37611   0.16667   0.24998   0.00000  Uiso   1.00
C61    C     0.47460   0.02482   0.22230   0.00000  Uiso   1.00
C62    C     0.52540   0.30851   0.27770   0.00000  Uiso   1.00
C63    C     0.52539   0.02483   0.27772   0.00000  Uiso   1.00
C64    C     0.47461   0.30850   0.22228   0.00000  Uiso   1.00
C65    C     0.49996   0.16666   0.16427   0.00000  Uiso   1.00
C66    C     0.50004   0.16667   0.33573   0.00000  Uiso   1.00
C67    C     0.51228   0.20704   0.40738   0.00000  Uiso   1.00
C68    C     0.48772   0.12629   0.09263   0.00000  Uiso   1.00
C69    C     0.50005   0.16666   0.38417   0.00000  Uiso   1.00
C70    C     0.57930   0.16666   0.25003   0.00000  Uiso   1.00
C71    C     0.49995   0.16667   0.11583   0.00000  Uiso   1.00
C72    C     0.48782   0.12627   0.40725   0.00000  Uiso   1.00
C73    C     0.51218   0.20706   0.09275   0.00000  Uiso   1.00
C74    C     0.48797   0.12584   0.45346   0.00000  Uiso   1.00
C75    C     0.51203   0.20749   0.04654   0.00000  Uiso   1.00
C76    C     0.50001   0.16666   0.47674   0.00000  Uiso   1.00
C77    C     0.49999   0.16667   0.02326   0.00000  Uiso   1.00
C78    C     0.51209   0.20748   0.45359   0.00000  Uiso   1.00
C79    C     0.48791   0.12585   0.04641   0.00000  Uiso   1.00
C80    C     0.47624   0.08545   0.47692   0.00000  Uiso   1.00
C81    C     0.47621   0.08545   0.02283   0.00000  Uiso   1.00
C82    C     0.52376   0.24789   0.02308   0.00000  Uiso   1.00
C83    C     0.52379   0.24788   0.47717   0.00000  Uiso   1.00
C84    C     0.35471   0.12883   0.26865   0.00000  Uiso   1.00
C85    C     0.64529   0.20450   0.23135   0.00000  Uiso   1.00
C86    C     0.64544   0.12883   0.26867   0.00000  Uiso   1.00
C87    C     0.35456   0.20450   0.23133   0.00000  Uiso   1.00
C88    C     0.62389   0.16666   0.25002   0.00000  Uiso   1.00
Cu89   Cu    0.50000   0.21355   0.25000   0.00000  Uiso   1.00
Cu90   Cu    0.50000   0.11978   0.25000   0.00000  Uiso   1.00
F91    F     0.52512   0.24561   0.38487   0.00000  Uiso   1.00
F92    F     0.62507   0.24090   0.21209   0.00000  Uiso   1.00
F93    F     0.62539   0.09243   0.28796   0.00000  Uiso   1.00
F94    F     0.37461   0.24090   0.21204   0.00000  Uiso   1.00
F95    F     0.47488   0.08772   0.11513   0.00000  Uiso   1.00
F96    F     0.47502   0.08769   0.38461   0.00000  Uiso   1.00
F97    F     0.52498   0.24564   0.11539   0.00000  Uiso   1.00
F98    F     0.46485   0.04549   0.45569   0.00000  Uiso   1.00
F99    F     0.53515   0.28784   0.04431   0.00000  Uiso   1.00
F100   F     0.46479   0.04550   0.04395   0.00000  Uiso   1.00
F101   F     0.53521   0.28783   0.45605   0.00000  Uiso   1.00
F102   F     0.37493   0.09243   0.28791   0.00000  Uiso   1.00
H103   H     0.45424   0.04357   0.20015   0.00000  Uiso   1.00
H104   H     0.54576   0.28976   0.29985   0.00000  Uiso   1.00
H105   H     0.54569   0.04358   0.29993   0.00000  Uiso   1.00
H106   H     0.45431   0.28975   0.20007   0.00000  Uiso   1.00
N107   N     0.50000   0.28402   0.25000   0.00000  Uiso   1.00
N108   N     0.50000   0.04931   0.25000   0.00000  Uiso   1.00
O109   O     0.43988   0.20625   0.25000   0.00000  Uiso   1.00
O110   O     0.56012   0.12709   0.25001   0.00000  Uiso   1.00
O111   O     0.56012   0.20625   0.25001   0.00000  Uiso   1.00
O112   O     0.43988   0.12709   0.25000   0.00000  Uiso   1.00
O113   O     0.49999   0.20627   0.18513   0.00000  Uiso   1.00
O114   O     0.50001   0.12707   0.31487   0.00000  Uiso   1.00
O115   O     0.50001   0.20627   0.31487   0.00000  Uiso   1.00
O116   O     0.49999   0.12707   0.18513   0.00000  Uiso   1.00
C117   C     0.75403   0.16667   0.24997   0.00000  Uiso   1.00
C118   C     0.70944   0.16667   0.24998   0.00000  Uiso   1.00
C119   C     0.80793   0.02482   0.22230   0.00000  Uiso   1.00
C120   C     0.85874   0.30851   0.27770   0.00000  Uiso   1.00
C121   C     0.85872   0.02483   0.27772   0.00000  Uiso   1.00
C122   C     0.80794   0.30850   0.22228   0.00000  Uiso   1.00
C123   C     0.83330   0.16666   0.16427   0.00000  Uiso   1.00
C124   C     0.83337   0.16667   0.33573   0.00000  Uiso   1.00
C125   C     0.84562   0.20704   0.40738   0.00000  Uiso   1.00
C126   C     0.82105   0.12629   0.09263   0.00000  Uiso   1.00
C127   C     0.83338   0.16666   0.38417   0.00000  Uiso   1.00
C128   C     0.91263   0.16666   0.25003   0.00000  Uiso   1.00
C129   C     0.83328   0.16667   0.11583   0.00000  Uiso   1.00
C130   C     0.82115   0.12627   0.40725   0.00000  Uiso   1.00
C131   C     0.84551   0.20706   0.09275   0.00000  Uiso   1.00
C132   C     0.82130   0.12584   0.45346   0.00000  Uiso   1.00
C133   C     0.84536   0.20749   0.04654   0.00000  Uiso   1.00
C134   C     0.83335   0.16666   0.47674   0.00000  Uiso   1.00
C135   C     0.83332   0.16667   0.02326   0.00000  Uiso   1.00
C136   C     0.84542   0.20748   0.45359   0.00000  Uiso   1.00
C137   C     0.82124   0.12585   0.04641   0.00000  Uiso   1.00
C138   C     0.80957   0.08545   0.47692   0.00000  Uiso   1.00
C139   C     0.80954   0.08545   0.02283   0.00000  Uiso   1.00
C140   C     0.85709   0.24789   0.02308   0.00000  Uiso   1.00
C141   C     0.85712   0.24788   0.47717   0.00000  Uiso   1.00
C142   C     0.68805   0.12883   0.26865   0.00000  Uiso   1.00
C143   C     0.97862   0.20450   0.23135   0.00000  Uiso   1.00
C144   C     0.97878   0.12883   0.26867   0.00000  Uiso   1.00
C145   C     0.68789   0.20450   0.23133   0.00000  Uiso   1.00
C146   C     0.95722   0.16666   0.25002   0.00000  Uiso   1.00
Cu147  Cu    0.83333   0.21355   0.25000   0.00000  Uiso   1.00
Cu148  Cu    0.83333   0.11978   0.25000   0.00000  Uiso   1.00
F149   F     0.85845   0.24561   0.38487   0.00000  Uiso   1.00
F150   F     0.95840   0.24090   0.21209   0.00000  Uiso   1.00
F151   F     0.95872   0.09243   0.28796   0.00000  Uiso   1.00
F152   F     0.70795   0.24090   0.21204   0.00000  Uiso   1.00
F153   F     0.80821   0.08772   0.11513   0.00000  Uiso   1.00
F154   F     0.80835   0.08769   0.38461   0.00000  Uiso   1.00
F155   F     0.85831   0.24564   0.11539   0.00000  Uiso   1.00
F156   F     0.79819   0.04549   0.45569   0.00000  Uiso   1.00
F157   F     0.86848   0.28784   0.04431   0.00000  Uiso   1.00
F158   F     0.79813   0.04550   0.04395   0.00000  Uiso   1.00
F159   F     0.86854   0.28783   0.45605   0.00000  Uiso   1.00
F160   F     0.70827   0.09243   0.28791   0.00000  Uiso   1.00
H161   H     0.78757   0.04357   0.20015   0.00000  Uiso   1.00
H162   H     0.87910   0.28976   0.29985   0.00000  Uiso   1.00
H163   H     0.87902   0.04358   0.29993   0.00000  Uiso   1.00
H164   H     0.78764   0.28975   0.20007   0.00000  Uiso   1.00
N165   N     0.83333   0.28402   0.25000   0.00000  Uiso   1.00
N166   N     0.83333   0.04931   0.25000   0.00000  Uiso   1.00
O167   O     0.77321   0.20625   0.25000   0.00000  Uiso   1.00
O168   O     0.89345   0.12709   0.25001   0.00000  Uiso   1.00
O169   O     0.89345   0.20625   0.25001   0.00000  Uiso   1.00
O170   O     0.77321   0.12709   0.25000   0.00000  Uiso   1.00
O171   O     0.83332   0.20627   0.18513   0.00000  Uiso   1.00
O172   O     0.83334   0.12707   0.31487   0.00000  Uiso   1.00
O173   O     0.83334   0.20627   0.31487   0.00000  Uiso   1.00
O174   O     0.83332   0.12707   0.18513   0.00000  Uiso   1.00
C175   C     0.08737   0.50000   0.24997   0.00000  Uiso   1.00
C176   C     0.04278   0.50000   0.24998   0.00000  Uiso   1.00
C177   C     0.14126   0.35816   0.22230   0.00000  Uiso   1.00
C178   C     0.19207   0.64184   0.27770   0.00000  Uiso   1.00
C179   C     0.19205   0.35816   0.27772   0.00000  Uiso   1.00
C180   C     0.14128   0.64184   0.22228   0.00000  Uiso   1.00
C181   C     0.16663   0.50000   0.16427   0.00000  Uiso   1.00
C182   C     0.16670   0.50000   0.33573   0.00000  Uiso   1.00
C183   C     0.17895   0.54038   0.40738   0.00000  Uiso   1.00
C184   C     0.15438   0.45962   0.09263   0.00000  Uiso   1.00
C185   C     0.16672   0.50000   0.38417   0.00000  Uiso   1.00
C186   C     0.24597   0.50000   0.25003   0.00000  Uiso   1.00
C187   C     0.16662   0.50000   0.11583   0.00000  Uiso   1.00
C188   C     0.15449   0.45961   0.40725   0.00000  Uiso   1.00
C189   C     0.17885   0.54039   0.09275   0.00000  Uiso   1.00
C190   C     0.15464   0.45918   0.45346   0.00000  Uiso   1.00
C191   C     0.17870   0.54082   0.04654   0.00000  Uiso   1.00
C192   C     0.16668   0.50000   0.47674   0.00000  Uiso   1.00
C193   C     0.16665   0.50000   0.02326   0.00000  Uiso   1.00
C194   C     0.17876   0.54081   0.45359   0.00000  Uiso   1.00
C195   C     0.15458   0.45919   0.04641   0.00000  Uiso   1.00
C196   C     0.14291   0.41878   0.47692   0.00000  Uiso   1.00
C197   C     0.14288   0.41879   0.02283   0.00000  Uiso   1.00
C198   C     0.19042   0.58122   0.02308   0.00000  Uiso   1.00
C199   C     0.19046   0.58121   0.47717   0.00000  Uiso   1.00
C200   C     0.02138   0.46217   0.26865   0.00000  Uiso   1.00
C201   C     0.31195   0.53783   0.23135   0.00000  Uiso   1.00
C202   C     0.31211   0.46217   0.26867   0.00000  Uiso   1.00
C203   C     0.02122   0.53783   0.23133   0.00000  Uiso   1.00
C204   C     0.29056   0.50000   0.25002   0.00000  Uiso   1.00
Cu205  Cu    0.16667   0.54689   0.25000   0.00000  Uiso   1.00
Cu206  Cu    0.16667   0.45311   0.25000   0.00000  Uiso   1.00
F207   F     0.19178   0.57895   0.38487   0.00000  Uiso   1.00
F208   F     0.29173   0.57424   0.21209   0.00000  Uiso   1.00
F209   F     0.29205   0.42577   0.28796   0.00000  Uiso   1.00
F210   F     0.04128   0.57423   0.21204   0.00000  Uiso   1.00
F211   F     0.14155   0.42105   0.11513   0.00000  Uiso   1.00
F212   F     0.14169   0.42103   0.38461   0.00000  Uiso   1.00
F213   F     0.19165   0.57897   0.11539   0.00000  Uiso   1.00
F214   F     0.13152   0.37882   0.45569   0.00000  Uiso   1.00
F215   F     0.20181   0.62118   0.04431   0.00000  Uiso   1.00
F216   F     0.13146   0.37883   0.04395   0.00000  Uiso   1.00
F217   F     0.20187   0.62117   0.45605   0.00000  Uiso   1.00
F218   F     0.04160   0.42576   0.28791   0.00000  Uiso   1.00
H219   H     0.12090   0.37691   0.20015   0.00000  Uiso   1.00
H220   H     0.21243   0.62309   0.29985   0.00000  Uiso   1.00
H221   H     0.21236   0.37692   0.29993   0.00000  Uiso   1.00
H222   H     0.12098   0.62308   0.20007   0.00000  Uiso   1.00
N223   N     0.16667   0.61736   0.25000   0.00000  Uiso   1.00
N224   N     0.16667   0.38264   0.25000   0.00000  Uiso   1.00
O225   O     0.10655   0.53958   0.25000   0.00000  Uiso   1.00
O226   O     0.22679   0.46042   0.25001   0.00000  Uiso   1.00
O227   O     0.22679   0.53958   0.25001   0.00000  Uiso   1.00
O228   O     0.10655   0.46042   0.25000   0.00000  Uiso   1.00
O229   O     0.16666   0.53960   0.18513   0.00000  Uiso   1.00
O230   O     0.16668   0.46040   0.31487   0.00000  Uiso   1.00
O231   O     0.16668   0.53960   0.31487   0.00000  Uiso   1.00
O232   O     0.16666   0.46040   0.18513   0.00000  Uiso   1.00
C233   C     0.42070   0.50000   0.24997   0.00000  Uiso   1.00
C234   C     0.37611   0.50000   0.24998   0.00000  Uiso   1.00
C235   C     0.47460   0.35816   0.22230   0.00000  Uiso   1.00
C236   C     0.52540   0.64184   0.27770   0.00000  Uiso   1.00
C237   C     0.52539   0.35816   0.27772   0.00000  Uiso   1.00
C238   C     0.47461   0.64184   0.22228   0.00000  Uiso   1.00
C239   C     0.49996   0.50000   0.16427   0.00000  Uiso   1.00
C240   C     0.50004   0.50000   0.33573   0.00000  Uiso   1.00
C241   C     0.51228   0.54038   0.40738   0.00000  Uiso   1.00
C242   C     0.48772   0.45962   0.09263   0.00000  Uiso   1.00
C243   C     0.50005   0.50000   0.38417   0.00000  Uiso   1.00
C244   C     0.57930   0.50000   0.25003   0.00000  Uiso   1.00
C245   C     0.49995   0.50000   0.11583   0.00000  Uiso   1.00
C246   C     0.48782   0.45961   0.40725   0.00000  Uiso   1.00
C247   C     0.51218   0.54039   0.09275   0.00000  Uiso   1.00
C248   C     0.48797   0.45918   0.45346   0.00000  Uiso   1.00
C249   C     0.51203   0.54082   0.04654   0.00000  Uiso   1.00
C250   C     0.50001   0.50000   0.47674   0.00000  Uiso   1.00
C251   C     0.49999   0.50000   0.02326   0.00000  Uiso   1.00
C252   C     0.51209   0.54081   0.45359   0.00000  Uiso   1.00
C253   C     0.48791   0.45919   0.04641   0.00000  Uiso   1.00
C254   C     0.47624   0.41878   0.47692   0.00000  Uiso   1.00
C255   C     0.47621   0.41879   0.02283   0.00000  Uiso   1.00
C256   C     0.52376   0.58122   0.02308   0.00000  Uiso   1.00
C257   C     0.52379   0.58121   0.47717   0.00000  Uiso   1.00
C258   C     0.35471   0.46217   0.26865   0.00000  Uiso   1.00
C259   C     0.64529   0.53783   0.23135   0.00000  Uiso   1.00
C260   C     0.64544   0.46217   0.26867   0.00000  Uiso   1.00
C261   C     0.35456   0.53783   0.23133   0.00000  Uiso   1.00
C262   C     0.62389   0.50000   0.25002   0.00000  Uiso   1.00
Cu263  Cu    0.50000   0.54689   0.25000   0.00000  Uiso   1.00
Cu264  Cu    0.50000   0.45311   0.25000   0.00000  Uiso   1.00
F265   F     0.52512   0.57895   0.38487   0.00000  Uiso   1.00
F266   F     0.62507   0.57424   0.21209   0.00000  Uiso   1.00
F267   F     0.62539   0.42577   0.28796   0.00000  Uiso   1.00
F268   F     0.37461   0.57423   0.21204   0.00000  Uiso   1.00
F269   F     0.47488   0.42105   0.11513   0.00000  Uiso   1.00
F270   F     0.47502   0.42103   0.38461   0.00000  Uiso   1.00
F271   F     0.52498   0.57897   0.11539   0.00000  Uiso   1.00
F272   F     0.46485   0.37882   0.45569   0.00000  Uiso   1.00
F273   F     0.53515   0.62118   0.04431   0.00000  Uiso   1.00
F274   F     0.46479   0.37883   0.04395   0.00000  Uiso   1.00
F275   F     0.53521   0.62117   0.45605   0.00000  Uiso   1.00
F276   F     0.37493   0.42576   0.28791   0.00000  Uiso   1.00
H277   H     0.45424   0.37691   0.20015   0.00000  Uiso   1.00
H278   H     0.54576   0.62309   0.29985   0.00000  Uiso   1.00
H279   H     0.54569   0.37692   0.29993   0.00000  Uiso   1.00
H280   H     0.45431   0.62308   0.20007   0.00000  Uiso   1.00
N281   N     0.50000   0.61736   0.25000   0.00000  Uiso   1.00
N282   N     0.50000   0.38264   0.25000   0.00000  Uiso   1.00
O283   O     0.43988   0.53958   0.25000   0.00000  Uiso   1.00
O284   O     0.56012   0.46042   0.25001   0.00000  Uiso   1.00
O285   O     0.56012   0.53958   0.25001   0.00000  Uiso   1.00
O286   O     0.43988   0.46042   0.25000   0.00000  Uiso   1.00
O287   O     0.49999   0.53960   0.18513   0.00000  Uiso   1.00
O288   O     0.50001   0.46040   0.31487   0.00000  Uiso   1.00
O289   O     0.50001   0.53960   0.31487   0.00000  Uiso   1.00
O290   O     0.49999   0.46040   0.18513   0.00000  Uiso   1.00
C291   C     0.75403   0.50000   0.24997   0.00000  Uiso   1.00
C292   C     0.70944   0.50000   0.24998   0.00000  Uiso   1.00
C293   C     0.80793   0.35816   0.22230   0.00000  Uiso   1.00
C294   C     0.85874   0.64184   0.27770   0.00000  Uiso   1.00
C295   C     0.85872   0.35816   0.27772   0.00000  Uiso   1.00
C296   C     0.80794   0.64184   0.22228   0.00000  Uiso   1.00
C297   C     0.83330   0.50000   0.16427   0.00000  Uiso   1.00
C298   C     0.83337   0.50000   0.33573   0.00000  Uiso   1.00
C299   C     0.84562   0.54038   0.40738   0.00000  Uiso   1.00
C300   C     0.82105   0.45962   0.09263   0.00000  Uiso   1.00
C301   C     0.83338   0.50000   0.38417   0.00000  Uiso   1.00
C302   C     0.91263   0.50000   0.25003   0.00000  Uiso   1.00
C303   C     0.83328   0.50000   0.11583   0.00000  Uiso   1.00
C304   C     0.82115   0.45961   0.40725   0.00000  Uiso   1.00
C305   C     0.84551   0.54039   0.09275   0.00000  Uiso   1.00
C306   C     0.82130   0.45918   0.45346   0.00000  Uiso   1.00
C307   C     0.84536   0.54082   0.04654   0.00000  Uiso   1.00
C308   C     0.83335   0.50000   0.47674   0.00000  Uiso   1.00
C309   C     0.83332   0.50000   0.02326   0.00000  Uiso   1.00
C310   C     0.84542   0.54081   0.45359   0.00000  Uiso   1.00
C311   C     0.82124   0.45919   0.04641   0.00000  Uiso   1.00
C312   C     0.80957   0.41878   0.47692   0.00000  Uiso   1.00
C313   C     0.80954   0.41879   0.02283   0.00000  Uiso   1.00
C314   C     0.85709   0.58122   0.02308   0.00000  Uiso   1.00
C315   C     0.85712   0.58121   0.47717   0.00000  Uiso   1.00
C316   C     0.68805   0.46217   0.26865   0.00000  Uiso   1.00
C317   C     0.97862   0.53783   0.23135   0.00000  Uiso   1.00
C318   C     0.97878   0.46217   0.26867   0.00000  Uiso   1.00
C319   C     0.68789   0.53783   0.23133   0.00000  Uiso   1.00
C320   C     0.95722   0.50000   0.25002   0.00000  Uiso   1.00
Cu321  Cu    0.83333   0.54689   0.25000   0.00000  Uiso   1.00
Cu322  Cu    0.83333   0.45311   0.25000   0.00000  Uiso   1.00
F323   F     0.85845   0.57895   0.38487   0.00000  Uiso   1.00
F324   F     0.95840   0.57424   0.21209   0.00000  Uiso   1.00
F325   F     0.95872   0.42577   0.28796   0.00000  Uiso   1.00
F326   F     0.70795   0.57423   0.21204   0.00000  Uiso   1.00
F327   F     0.80821   0.42105   0.11513   0.00000  Uiso   1.00
F328   F     0.80835   0.42103   0.38461   0.00000  Uiso   1.00
F329   F     0.85831   0.57897   0.11539   0.00000  Uiso   1.00
F330   F     0.79819   0.37882   0.45569   0.00000  Uiso   1.00
F331   F     0.86848   0.62118   0.04431   0.00000  Uiso   1.00
F332   F     0.79813   0.37883   0.04395   0.00000  Uiso   1.00
F333   F     0.86854   0.62117   0.45605   0.00000  Uiso   1.00
F334   F     0.70827   0.42576   0.28791   0.00000  Uiso   1.00
H335   H     0.78757   0.37691   0.20015   0.00000  Uiso   1.00
H336   H     0.87910   0.62309   0.29985   0.00000  Uiso   1.00
H337   H     0.87902   0.37692   0.29993   0.00000  Uiso   1.00
H338   H     0.78764   0.62308   0.20007   0.00000  Uiso   1.00
N339   N     0.83333   0.61736   0.25000   0.00000  Uiso   1.00
N340   N     0.83333   0.38264   0.25000   0.00000  Uiso   1.00
O341   O     0.77321   0.53958   0.25000   0.00000  Uiso   1.00
O342   O     0.89345   0.46042   0.25001   0.00000  Uiso   1.00
O343   O     0.89345   0.53958   0.25001   0.00000  Uiso   1.00
O344   O     0.77321   0.46042   0.25000   0.00000  Uiso   1.00
O345   O     0.83332   0.53960   0.18513   0.00000  Uiso   1.00
O346   O     0.83334   0.46040   0.31487   0.00000  Uiso   1.00
O347   O     0.83334   0.53960   0.31487   0.00000  Uiso   1.00
O348   O     0.83332   0.46040   0.18513   0.00000  Uiso   1.00
C349   C     0.08737   0.83334   0.24997   0.00000  Uiso   1.00
C350   C     0.04278   0.83334   0.24998   0.00000  Uiso   1.00
C351   C     0.14126   0.69149   0.22230   0.00000  Uiso   1.00
C352   C     0.19207   0.97518   0.27770   0.00000  Uiso   1.00
C353   C     0.19205   0.69149   0.27772   0.00000  Uiso   1.00
C354   C     0.14128   0.97517   0.22228   0.00000  Uiso   1.00
C355   C     0.16663   0.83333   0.16427   0.00000  Uiso   1.00
C356   C     0.16670   0.83334   0.33573   0.00000  Uiso   1.00
C357   C     0.17895   0.87371   0.40738   0.00000  Uiso   1.00
C358   C     0.15438   0.79296   0.09263   0.00000  Uiso   1.00
C359   C     0.16672   0.83333   0.38417   0.00000  Uiso   1.00
C360   C     0.24597   0.83333   0.25003   0.00000  Uiso   1.00
C361   C     0.16662   0.83334   0.11583   0.00000  Uiso   1.00
C362   C     0.15449   0.79294   0.40725   0.00000  Uiso   1.00
C363   C     0.17885   0.87373   0.09275   0.00000  Uiso   1.00
C364   C     0.15464   0.79251   0.45346   0.00000  Uiso   1.00
C365   C     0.17870   0.87416   0.04654   0.00000  Uiso   1.00
C366   C     0.16668   0.83333   0.47674   0.00000  Uiso   1.00
C367   C     0.16665   0.83334   0.02326   0.00000  Uiso   1.00
C368   C     0.17876   0.87415   0.45359   0.00000  Uiso   1.00
C369   C     0.15458   0.79252   0.04641   0.00000  Uiso   1.00
C370   C     0.14291   0.75211   0.47692   0.00000  Uiso   1.00
C371   C     0.14288   0.75212   0.02283   0.00000  Uiso   1.00
C372   C     0.19042   0.91455   0.02308   0.00000  Uiso   1.00
C373   C     0.19046   0.91455   0.47717   0.00000  Uiso   1.00
C374   C     0.02138   0.79550   0.26865   0.00000  Uiso   1.00
C375   C     0.31195   0.87117   0.23135   0.00000  Uiso   1.00
C376   C     0.31211   0.79550   0.26867   0.00000  Uiso   1.00
C377   C     0.02122   0.87117   0.23133   0.00000  Uiso   1.00
C378   C     0.29056   0.83333   0.25002   0.00000  Uiso   1.00
Cu379  Cu    0.16667   0.88022   0.25000   0.00000  Uiso   1.00
Cu380  Cu    0.16667   0.78645   0.25000   0.00000  Uiso   1.00
F381   F     0.19178   0.91228   0.38487   0.00000  Uiso   1.00
F382   F     0.29173   0.90757   0.21209   0.00000  Uiso   1.00
F383   F     0.29205   0.75910   0.28796   0.00000  Uiso   1.00
F384   F     0.04128   0.90757   0.21204   0.00000  Uiso   1.00
F385   F     0.14155   0.75439   0.11513   0.00000  Uiso   1.00
F386   F     0.14169   0.75436   0.38461   0.00000  Uiso   1.00
F387   F     0.19165   0.91231   0.11539   0.00000  Uiso   1.00
F388   F     0.13152   0.71216   0.45569   0.00000  Uiso   1.00
F389   F     0.20181   0.95451   0.04431   0.00000  Uiso   1.00
F390   F     0.13146   0.71217   0.04395   0.00000  Uiso   1.00
F391   F     0.20187   0.95450   0.45605   0.00000  Uiso   1.00
F392   F     0.04160   0.75910   0.28791   0.00000  Uiso   1.00
H393   H     0.12090   0.71024   0.20015   0.00000  Uiso   1.00
H394   H     0.21243   0.95643   0.29985   0.00000  Uiso   1.00
H395   H     0.21236   0.71025   0.29993   0.00000  Uiso   1.00
H396   H     0.12098   0.95642   0.20007   0.00000  Uiso   1.00
N397   N     0.16667   0.95069   0.25000   0.00000  Uiso   1.00
N398   N     0.16667   0.71598   0.25000   0.00000  Uiso   1.00
O399   O     0.10655   0.87291   0.25000   0.00000  Uiso   1.00
O400   O     0.22679   0.79375   0.25001   0.00000  Uiso   1.00
O401   O     0.22679   0.87291   0.25001   0.00000  Uiso   1.00
O402   O     0.10655   0.79375   0.25000   0.00000  Uiso   1.00
O403   O     0.16666   0.87293   0.18513   0.00000  Uiso   1.00
O404   O     0.16668   0.79373   0.31487   0.00000  Uiso   1.00
O405   O     0.16668   0.87293   0.31487   0.00000  Uiso   1.00
O406   O     0.16666   0.79373   0.18513   0.00000  Uiso   1.00
C407   C     0.42070   0.83334   0.24997   0.00000  Uiso   1.00
C408   C     0.37611   0.83334   0.24998   0.00000  Uiso   1.00
C409   C     0.47460   0.69149   0.22230   0.00000  Uiso   1.00
C410   C     0.52540   0.97518   0.27770   0.00000  Uiso   1.00
C411   C     0.52539   0.69149   0.27772   0.00000  Uiso   1.00
C412   C     0.47461   0.97517   0.22228   0.00000  Uiso   1.00
C413   C     0.49996   0.83333   0.16427   0.00000  Uiso   1.00
C414   C     0.50004   0.83334   0.33573   0.00000  Uiso   1.00
C415   C     0.51228   0.87371   0.40738   0.00000  Uiso   1.00
C416   C     0.48772   0.79296   0.09263   0.00000  Uiso   1.00
C417   C     0.50005   0.83333   0.38417   0.00000  Uiso   1.00
C418   C     0.57930   0.83333   0.25003   0.00000  Uiso   1.00
C419   C     0.49995   0.83334   0.11583   0.00000  Uiso   1.00
C420   C     0.48782   0.79294   0.40725   0.00000  Uiso   1.00
C421   C     0.51218   0.87373   0.09275   0.00000  Uiso   1.00
C422   C     0.48797   0.79251   0.45346   0.00000  Uiso   1.00
C423   C     0.51203   0.87416   0.04654   0.00000  Uiso   1.00
C424   C     0.50001   0.83333   0.47674   0.00000  Uiso   1.00
C425   C     0.49999   0.83334   0.02326   0.00000  Uiso   1.00
C426   C     0.51209   0.87415   0.45359   0.00000  Uiso   1.00
C427   C     0.48791   0.79252   0.04641   0.00000  Uiso   1.00
C428   C     0.47624   0.75211   0.47692   0.00000  Uiso   1.00
C429   C     0.47621   0.75212   0.02283   0.00000  Uiso   1.00
C430   C     0.52376   0.91455   0.02308   0.00000  Uiso   1.00
C431   C     0.52379   0.91455   0.47717   0.00000  Uiso   1.00
C432   C     0.35471   0.79550   0.26865   0.00000  Uiso   1.00
C433   C     0.64529   0.87117   0.23135   0.00000  Uiso   1.00
C434   C     0.64544   0.79550   0.26867   0.00000  Uiso   1.00
C435   C     0.35456   0.87117   0.23133   0.00000  Uiso   1.00
C436   C     0.62389   0.83333   0.25002   0.00000  Uiso   1.00
Cu437  Cu    0.50000   0.88022   0.25000   0.00000  Uiso   1.00
Cu438  Cu    0.50000   0.78645   0.25000   0.00000  Uiso   1.00
F439   F     0.52512   0.91228   0.38487   0.00000  Uiso   1.00
F440   F     0.62507   0.90757   0.21209   0.00000  Uiso   1.00
F441   F     0.62539   0.75910   0.28796   0.00000  Uiso   1.00
F442   F     0.37461   0.90757   0.21204   0.00000  Uiso   1.00
F443   F     0.47488   0.75439   0.11513   0.00000  Uiso   1.00
F444   F     0.47502   0.75436   0.38461   0.00000  Uiso   1.00
F445   F     0.52498   0.91231   0.11539   0.00000  Uiso   1.00
F446   F     0.46485   0.71216   0.45569   0.00000  Uiso   1.00
F447   F     0.53515   0.95451   0.04431   0.00000  Uiso   1.00
F448   F     0.46479   0.71217   0.04395   0.00000  Uiso   1.00
F449   F     0.53521   0.95450   0.45605   0.00000  Uiso   1.00
F450   F     0.37493   0.75910   0.28791   0.00000  Uiso   1.00
H451   H     0.45424   0.71024   0.20015   0.00000  Uiso   1.00
H452   H     0.54576   0.95643   0.29985   0.00000  Uiso   1.00
H453   H     0.54569   0.71025   0.29993   0.00000  Uiso   1.00
H454   H     0.45431   0.95642   0.20007   0.00000  Uiso   1.00
N455   N     0.50000   0.95069   0.25000   0.00000  Uiso   1.00
N456   N     0.50000   0.71598   0.25000   0.00000  Uiso   1.00
O457   O     0.43988   0.87291   0.25000   0.00000  Uiso   1.00
O458   O     0.56012   0.79375   0.25001   0.00000  Uiso   1.00
O459   O     0.56012   0.87291   0.25001   0.00000  Uiso   1.00
O460   O     0.43988   0.79375   0.25000   0.00000  Uiso   1.00
O461   O     0.49999   0.87293   0.18513   0.00000  Uiso   1.00
O462   O     0.50001   0.79373   0.31487   0.00000  Uiso   1.00
O463   O     0.50001   0.87293   0.31487   0.00000  Uiso   1.00
O464   O     0.49999   0.79373   0.18513   0.00000  Uiso   1.00
C465   C     0.75403   0.83334   0.24997   0.00000  Uiso   1.00
C466   C     0.70944   0.83334   0.24998   0.00000  Uiso   1.00
C467   C     0.80793   0.69149   0.22230   0.00000  Uiso   1.00
C468   C     0.85874   0.97518   0.27770   0.00000  Uiso   1.00
C469   C     0.85872   0.69149   0.27772   0.00000  Uiso   1.00
C470   C     0.80794   0.97517   0.22228   0.00000  Uiso   1.00
C471   C     0.83330   0.83333   0.16427   0.00000  Uiso   1.00
C472   C     0.83337   0.83334   0.33573   0.00000  Uiso   1.00
C473   C     0.84562   0.87371   0.40738   0.00000  Uiso   1.00
C474   C     0.82105   0.79296   0.09263   0.00000  Uiso   1.00
C475   C     0.83338   0.83333   0.38417   0.00000  Uiso   1.00
C476   C     0.91263   0.83333   0.25003   0.00000  Uiso   1.00
C477   C     0.83328   0.83334   0.11583   0.00000  Uiso   1.00
C478   C     0.82115   0.79294   0.40725   0.00000  Uiso   1.00
C479   C     0.84551   0.87373   0.09275   0.00000  Uiso   1.00
C480   C     0.82130   0.79251   0.45346   0.00000  Uiso   1.00
C481   C     0.84536   0.87416   0.04654   0.00000  Uiso   1.00
C482   C     0.83335   0.83333   0.47674   0.00000  Uiso   1.00
C483   C     0.83332   0.83334   0.02326   0.00000  Uiso   1.00
C484   C     0.84542   0.87415   0.45359   0.00000  Uiso   1.00
C485   C     0.82124   0.79252   0.04641   0.00000  Uiso   1.00
C486   C     0.80957   0.75211   0.47692   0.00000  Uiso   1.00
C487   C     0.80954   0.75212   0.02283   0.00000  Uiso   1.00
C488   C     0.85709   0.91455   0.02308   0.00000  Uiso   1.00
C489   C     0.85712   0.91455   0.47717   0.00000  Uiso   1.00
C490   C     0.68805   0.79550   0.26865   0.00000  Uiso   1.00
C491   C     0.97862   0.87117   0.23135   0.00000  Uiso   1.00
C492   C     0.97878   0.79550   0.26867   0.00000  Uiso   1.00
C493   C     0.68789   0.87117   0.23133   0.00000  Uiso   1.00
C494   C     0.95722   0.83333   0.25002   0.00000  Uiso   1.00
Cu495  Cu    0.83333   0.88022   0.25000   0.00000  Uiso   1.00
Cu496  Cu    0.83333   0.78645   0.25000   0.00000  Uiso   1.00
F497   F     0.85845   0.91228   0.38487   0.00000  Uiso   1.00
F498   F     0.95840   0.90757   0.21209   0.00000  Uiso   1.00
F499   F     0.95872   0.75910   0.28796   0.00000  Uiso   1.00
F500   F     0.70795   0.90757   0.21204   0.00000  Uiso   1.00
F501   F     0.80821   0.75439   0.11513   0.00000  Uiso   1.00
F502   F     0.80835   0.75436   0.38461   0.00000  Uiso   1.00
F503   F     0.85831   0.91231   0.11539   0.00000  Uiso   1.00
F504   F     0.79819   0.71216   0.45569   0.00000  Uiso   1.00
F505   F     0.86848   0.95451   0.04431   0.00000  Uiso   1.00
F506   F     0.79813   0.71217   0.04395   0.00000  Uiso   1.00
F507   F     0.86854   0.95450   0.45605   0.00000  Uiso   1.00
F508   F     0.70827   0.75910   0.28791   0.00000  Uiso   1.00
H509   H     0.78757   0.71024   0.20015   0.00000  Uiso   1.00
H510   H     0.87910   0.95643   0.29985   0.00000  Uiso   1.00
H511   H     0.87902   0.71025   0.29993   0.00000  Uiso   1.00
H512   H     0.78764   0.95642   0.20007   0.00000  Uiso   1.00
N513   N     0.83333   0.95069   0.25000   0.00000  Uiso   1.00
N514   N     0.83333   0.71598   0.25000   0.00000  Uiso   1.00
O515   O     0.77321   0.87291   0.25000   0.00000  Uiso   1.00
O516   O     0.89345   0.79375   0.25001   0.00000  Uiso   1.00
O517   O     0.89345   0.87291   0.25001   0.00000  Uiso   1.00
O518   O     0.77321   0.79375   0.25000   0.00000  Uiso   1.00
O519   O     0.83332   0.87293   0.18513   0.00000  Uiso   1.00
O520   O     0.83334   0.79373   0.31487   0.00000  Uiso   1.00
O521   O     0.83334   0.87293   0.31487   0.00000  Uiso   1.00
O522   O     0.83332   0.79373   0.18513   0.00000  Uiso   1.00
C523   C     0.08737   0.16667   0.74997   0.00000  Uiso   1.00
C524   C     0.04278   0.16667   0.74998   0.00000  Uiso   1.00
C525   C     0.14126   0.02482   0.72230   0.00000  Uiso   1.00
C526   C     0.19207   0.30851   0.77770   0.00000  Uiso   1.00
C527   C     0.19205   0.02483   0.77772   0.00000  Uiso   1.00
C528   C     0.14128   0.30850   0.72228   0.00000  Uiso   1.00
C529   C     0.16663   0.16666   0.66427   0.00000  Uiso   1.00
C530   C     0.16670   0.16667   0.83573   0.00000  Uiso   1.00
C531   C     0.17895   0.20704   0.90738   0.00000  Uiso   1.00
C532   C     0.15438   0.12629   0.59263   0.00000  Uiso   1.00
C533   C     0.16672   0.16666   0.88417   0.00000  Uiso   1.00
C534   C     0.24597   0.16666   0.75003   0.00000  Uiso   1.00
C535   C     0.16662   0.16667   0.61583   0.00000  Uiso   1.00
C536   C     0.15449   0.12627   0.90725   0.00000  Uiso   1.00
C537   C     0.17885   0.20706   0.59275   0.00000  Uiso   1.00
C538   C     0.15464   0.12584   0.95346   0.00000  Uiso   1.00
C539   C     0.17870   0.20749   0.54654   0.00000  Uiso   1.00
C540   C     0.16668   0.16666   0.97674   0.00000  Uiso   1.00
C541   C     0.16665   0.16667   0.52326   0.00000  Uiso   1.00
C542   C     0.17876   0.20748   0.95359   0.00000  Uiso   1.00
C543   C     0.15458   0.12585   0.54641   0.00000  Uiso   1.00
C544   C     0.14291   0.08545   0.97692   0.00000  Uiso   1.00
C545   C     0.14288   0.08545   0.52283   0.00000  Uiso   1.00
C546   C     0.19042   0.24789   0.52308   0.00000  Uiso   1.00
C547   C     0.19046   0.24788   0.97717   0.00000  Uiso   1.00
C548   C     0.02138   0.12883   0.76865   0.00000  Uiso   1.00
C549   C     0.31195   0.20450   0.73135   0.00000  Uiso   1.00
C550   C     0.31211   0.12883   0.76867   0.00000  Uiso   1.00
C551   C     0.02122   0.20450   0.73133   0.00000  Uiso   1.00
C552   C     0.29056   0.16666   0.75002   0.00000  Uiso   1.00
Cu553  Cu    0.16667   0.21355   0.75000   0.00000  Uiso   1.00
Cu554  Cu    0.16667   0.11978   0.75000   0.00000  Uiso   1.00
F555   F     0.19178   0.24561   0.88487   0.00000  Uiso   1.00
F556   F     0.29173   0.24090   0.71209   0.00000  Uiso   1.00
F557   F     0.29205   0.09243   0.78796   0.00000  Uiso   1.00
F558   F     0.04128   0.24090   0.71204   0.00000  Uiso   1.00
F559   F     0.14155   0.08772   0.61513   0.00000  Uiso   1.00
F560   F     0.14169   0.08769   0.88461   0.00000  Uiso   1.00
F561   F     0.19165   0.24564   0.61539   0.00000  Uiso   1.00
F562   F     0.13152   0.04549   0.95569   0.00000  Uiso   1.00
F563   F     0.20181   0.28784   0.54431   0.00000  Uiso   1.00
F564   F     0.13146   0.04550   0.54395   0.00000  Uiso   1.00
F565   F     0.20187   0.28783   0.95605   0.00000  Uiso   1.00
F566   F     0.04160   0.09243   0.78791   0.00000  Uiso   1.00
H567   H     0.12090   0.04357   0.70015   0.00000  Uiso   1.00
H568   H     0.21243   0.28976   0.79985   0.00000  Uiso   1.00
H569   H     0.21236   0.04358   0.79993   0.00000  Uiso   1.00
H570   H     0.12098   0.28975   0.70007   0.00000  Uiso   1.00
N571   N     0.16667   0.28402   0.75000   0.00000  Uiso   1.00
N572   N     0.16667   0.04931   0.75000   0.00000  Uiso   1.00
O573   O     0.10655   0.20625   0.75000   0.00000  Uiso   1.00
O574   O     0.22679   0.12709   0.75001   0.00000  Uiso   1.00
O575   O     0.22679   0.20625   0.75001   0.00000  Uiso   1.00
O576   O     0.10655   0.12709   0.75000   0.00000  Uiso   1.00
O577   O     0.16666   0.20627   0.68513   0.00000  Uiso   1.00
O578   O     0.16668   0.12707   0.81487   0.00000  Uiso   1.00
O579   O     0.16668   0.20627   0.81487   0.00000  Uiso   1.00
O580   O     0.16666   0.12707   0.68513   0.00000  Uiso   1.00
C581   C     0.42070   0.16667   0.74997   0.00000  Uiso   1.00
C582   C     0.37611   0.16667   0.74998   0.00000  Uiso   1.00
C583   C     0.47460   0.02482   0.72230   0.00000  Uiso   1.00
C584   C     0.52540   0.30851   0.77770   0.00000  Uiso   1.00
C585   C     0.52539   0.02483   0.77772   0.00000  Uiso   1.00
C586   C     0.47461   0.30850   0.72228   0.00000  Uiso   1.00
C587   C     0.49996   0.16666   0.66427   0.00000  Uiso   1.00
C588   C     0.50004   0.16667   0.83573   0.00000  Uiso   1.00
C589   C     0.51228   0.20704   0.90738   0.00000  Uiso   1.00
C590   C     0.48772   0.12629   0.59263   0.00000  Uiso   1.00
C591   C     0.50005   0.16666   0.88417   0.00000  Uiso   1.00
C592   C     0.57930   0.16666   0.75003   0.00000  Uiso   1.00
C593   C     0.49995   0.16667   0.61583   0.00000  Uiso   1.00
C594   C     0.48782   0.12627   0.90725   0.00000  Uiso   1.00
C595   C     0.51218   0.20706   0.59275   0.00000  Uiso   1.00
C596   C     0.48797   0.12584   0.95346   0.00000  Uiso   1.00
C597   C     0.51203   0.20749   0.54654   0.00000  Uiso   1.00
C598   C     0.50001   0.16666   0.97674   0.00000  Uiso   1.00
C599   C     0.49999   0.16667   0.52326   0.00000  Uiso   1.00
C600   C     0.51209   0.20748   0.95359   0.00000  Uiso   1.00
C601   C     0.48791   0.12585   0.54641   0.00000  Uiso   1.00
C602   C     0.47624   0.08545   0.97692   0.00000  Uiso   1.00
C603   C     0.47621   0.08545   0.52283   0.00000  Uiso   1.00
C604   C     0.52376   0.24789   0.52308   0.00000  Uiso   1.00
C605   C     0.52379   0.24788   0.97717   0.00000  Uiso   1.00
C606   C     0.35471   0.12883   0.76865   0.00000  Uiso   1.00
C607   C     0.64529   0.20450   0.73135   0.00000  Uiso   1.00
C608   C     0.64544   0.12883   0.76867   0.00000  Uiso   1.00
C609   C     0.35456   0.20450   0.73133   0.00000  Uiso   1.00
C610   C     0.62389   0.16666   0.75002   0.00000  Uiso   1.00
Cu611  Cu    0.50000   0.21355   0.75000   0.00000  Uiso   1.00
Cu612  Cu    0.50000   0.11978   0.75000   0.00000  Uiso   1.00
F613   F     0.52512   0.24561   0.88487   0.00000  Uiso   1.00
F614   F     0.62507   0.24090   0.71209   0.00000  Uiso   1.00
F615   F     0.62539   0.09243   0.78796   0.00000  Uiso   1.00
F616   F     0.37461   0.24090   0.71204   0.00000  Uiso   1.00
F617   F     0.47488   0.08772   0.61513   0.00000  Uiso   1.00
F618   F     0.47502   0.08769   0.88461   0.00000  Uiso   1.00
F619   F     0.52498   0.24564   0.61539   0.00000  Uiso   1.00
F620   F     0.46485   0.04549   0.95569   0.00000  Uiso   1.00
F621   F     0.53515   0.28784   0.54431   0.00000  Uiso   1.00
F622   F     0.46479   0.04550   0.54395   0.00000  Uiso   1.00
F623   F     0.53521   0.28783   0.95605   0.00000  Uiso   1.00
F624   F     0.37493   0.09243   0.78791   0.00000  Uiso   1.00
H625   H     0.45424   0.04357   0.70015   0.00000  Uiso   1.00
H626   H     0.54576   0.28976   0.79985   0.00000  Uiso   1.00
H627   H     0.54569   0.04358   0.79993   0.00000  Uiso   1.00
H628   H     0.45431   0.28975   0.70007   0.00000  Uiso   1.00
N629   N     0.50000   0.28402   0.75000   0.00000  Uiso   1.00
N630   N     0.50000   0.04931   0.75000   0.00000  Uiso   1.00
O631   O     0.43988   0.20625   0.75000   0.00000  Uiso   1.00
O632   O     0.56012   0.12709   0.75001   0.00000  Uiso   1.00
O633   O     0.56012   0.20625   0.75001   0.00000  Uiso   1.00
O634   O     0.43988   0.12709   0.75000   0.00000  Uiso   1.00
O635   O     0.49999   0.20627   0.68513   0.00000  Uiso   1.00
O636   O     0.50001   0.12707   0.81487   0.00000  Uiso   1.00
O637   O     0.50001   0.20627   0.81487   0.00000  Uiso   1.00
O638   O     0.49999   0.12707   0.68513   0.00000  Uiso   1.00
C639   C     0.75403   0.16667   0.74997   0.00000  Uiso   1.00
C640   C     0.70944   0.16667   0.74998   0.00000  Uiso   1.00
C641   C     0.80793   0.02482   0.72230   0.00000  Uiso   1.00
C642   C     0.85874   0.30851   0.77770   0.00000  Uiso   1.00
C643   C     0.85872   0.02483   0.77772   0.00000  Uiso   1.00
C644   C     0.80794   0.30850   0.72228   0.00000  Uiso   1.00
C645   C     0.83330   0.16666   0.66427   0.00000  Uiso   1.00
C646   C     0.83337   0.16667   0.83573   0.00000  Uiso   1.00
C647   C     0.84562   0.20704   0.90738   0.00000  Uiso   1.00
C648   C     0.82105   0.12629   0.59263   0.00000  Uiso   1.00
C649   C     0.83338   0.16666   0.88417   0.00000  Uiso   1.00
C650   C     0.91263   0.16666   0.75003   0.00000  Uiso   1.00
C651   C     0.83328   0.16667   0.61583   0.00000  Uiso   1.00
C652   C     0.82115   0.12627   0.90725   0.00000  Uiso   1.00
C653   C     0.84551   0.20706   0.59275   0.00000  Uiso   1.00
C654   C     0.82130   0.12584   0.95346   0.00000  Uiso   1.00
C655   C     0.84536   0.20749   0.54654   0.00000  Uiso   1.00
C656   C     0.83335   0.16666   0.97674   0.00000  Uiso   1.00
C657   C     0.83332   0.16667   0.52326   0.00000  Uiso   1.00
C658   C     0.84542   0.20748   0.95359   0.00000  Uiso   1.00
C659   C     0.82124   0.12585   0.54641   0.00000  Uiso   1.00
C660   C     0.80957   0.08545   0.97692   0.00000  Uiso   1.00
C661   C     0.80954   0.08545   0.52283   0.00000  Uiso   1.00
C662   C     0.85709   0.24789   0.52308   0.00000  Uiso   1.00
C663   C     0.85712   0.24788   0.97717   0.00000  Uiso   1.00
C664   C     0.68805   0.12883   0.76865   0.00000  Uiso   1.00
C665   C     0.97862   0.20450   0.73135   0.00000  Uiso   1.00
C666   C     0.97878   0.12883   0.76867   0.00000  Uiso   1.00
C667   C     0.68789   0.20450   0.73133   0.00000  Uiso   1.00
C668   C     0.95722   0.16666   0.75002   0.00000  Uiso   1.00
Cu669  Cu    0.83333   0.21355   0.75000   0.00000  Uiso   1.00
Cu670  Cu    0.83333   0.11978   0.75000   0.00000  Uiso   1.00
F671   F     0.85845   0.24561   0.88487   0.00000  Uiso   1.00
F672   F     0.95840   0.24090   0.71209   0.00000  Uiso   1.00
F673   F     0.95872   0.09243   0.78796   0.00000  Uiso   1.00
F674   F     0.70795   0.24090   0.71204   0.00000  Uiso   1.00
F675   F     0.80821   0.08772   0.61513   0.00000  Uiso   1.00
F676   F     0.80835   0.08769   0.88461   0.00000  Uiso   1.00
F677   F     0.85831   0.24564   0.61539   0.00000  Uiso   1.00
F678   F     0.79819   0.04549   0.95569   0.00000  Uiso   1.00
F679   F     0.86848   0.28784   0.54431   0.00000  Uiso   1.00
F680   F     0.79813   0.04550   0.54395   0.00000  Uiso   1.00
F681   F     0.86854   0.28783   0.95605   0.00000  Uiso   1.00
F682   F     0.70827   0.09243   0.78791   0.00000  Uiso   1.00
H683   H     0.78757   0.04357   0.70015   0.00000  Uiso   1.00
H684   H     0.87910   0.28976   0.79985   0.00000  Uiso   1.00
H685   H     0.87902   0.04358   0.79993   0.00000  Uiso   1.00
H686   H     0.78764   0.28975   0.70007   0.00000  Uiso   1.00
N687   N     0.83333   0.28402   0.75000   0.00000  Uiso   1.00
N688   N     0.83333   0.04931   0.75000   0.00000  Uiso   1.00
O689   O     0.77321   0.20625   0.75000   0.00000  Uiso   1.00
O690   O     0.89345   0.12709   0.75001   0.00000  Uiso   1.00
O691   O     0.89345   0.20625   0.75001   0.00000  Uiso   1.00
O692   O     0.77321   0.12709   0.75000   0.00000  Uiso   1.00
O693   O     0.83332   0.20627   0.68513   0.00000  Uiso   1.00
O694   O     0.83334   0.12707   0.81487   0.00000  Uiso   1.00
O695   O     0.83334   0.20627   0.81487   0.00000  Uiso   1.00
O696   O     0.83332   0.12707   0.68513   0.00000  Uiso   1.00
C697   C     0.08737   0.50000   0.74997   0.00000  Uiso   1.00
C698   C     0.04278   0.50000   0.74998   0.00000  Uiso   1.00
C699   C     0.14126   0.35816   0.72230   0.00000  Uiso   1.00
C700   C     0.19207   0.64184   0.77770   0.00000  Uiso   1.00
C701   C     0.19205   0.35816   0.77772   0.00000  Uiso   1.00
C702   C     0.14128   0.64184   0.72228   0.00000  Uiso   1.00
C703   C     0.16663   0.50000   0.66427   0.00000  Uiso   1.00
C704   C     0.16670   0.50000   0.83573   0.00000  Uiso   1.00
C705   C     0.17895   0.54038   0.90738   0.00000  Uiso   1.00
C706   C     0.15438   0.45962   0.59263   0.00000  Uiso   1.00
C707   C     0.16672   0.50000   0.88417   0.00000  Uiso   1.00
C708   C     0.24597   0.50000   0.75003   0.00000  Uiso   1.00
C709   C     0.16662   0.50000   0.61583   0.00000  Uiso   1.00
C710   C     0.15449   0.45961   0.90725   0.00000  Uiso   1.00
C711   C     0.17885   0.54039   0.59275   0.00000  Uiso   1.00
C712   C     0.15464   0.45918   0.95346   0.00000  Uiso   1.00
C713   C     0.17870   0.54082   0.54654   0.00000  Uiso   1.00
C714   C     0.16668   0.50000   0.97674   0.00000  Uiso   1.00
C715   C     0.16665   0.50000   0.52326   0.00000  Uiso   1.00
C716   C     0.17876   0.54081   0.95359   0.00000  Uiso   1.00
C717   C     0.15458   0.45919   0.54641   0.00000  Uiso   1.00
C718   C     0.14291   0.41878   0.97692   0.00000  Uiso   1.00
C719   C     0.14288   0.41879   0.52283   0.00000  Uiso   1.00
C720   C     0.19042   0.58122   0.52308   0.00000  Uiso   1.00
C721   C     0.19046   0.58121   0.97717   0.00000  Uiso   1.00
C722   C     0.02138   0.46217   0.76865   0.00000  Uiso   1.00
C723   C     0.31195   0.53783   0.73135   0.00000  Uiso   1.00
C724   C     0.31211   0.46217   0.76867   0.00000  Uiso   1.00
C725   C     0.02122   0.53783   0.73133   0.00000  Uiso   1.00
C726   C     0.29056   0.50000   0.75002   0.00000  Uiso   1.00
Cu727  Cu    0.16667   0.54689   0.75000   0.00000  Uiso   1.00
Cu728  Cu    0.16667   0.45311   0.75000   0.00000  Uiso   1.00
F729   F     0.19178   0.57895   0.88487   0.00000  Uiso   1.00
F730   F     0.29173   0.57424   0.71209   0.00000  Uiso   1.00
F731   F     0.29205   0.42577   0.78796   0.00000  Uiso   1.00
F732   F     0.04128   0.57423   0.71204   0.00000  Uiso   1.00
F733   F     0.14155   0.42105   0.61513   0.00000  Uiso   1.00
F734   F     0.14169   0.42103   0.88461   0.00000  Uiso   1.00
F735   F     0.19165   0.57897   0.61539   0.00000  Uiso   1.00
F736   F     0.13152   0.37882   0.95569   0.00000  Uiso   1.00
F737   F     0.20181   0.62118   0.54431   0.00000  Uiso   1.00
F738   F     0.13146   0.37883   0.54395   0.00000  Uiso   1.00
F739   F     0.20187   0.62117   0.95605   0.00000  Uiso   1.00
F740   F     0.04160   0.42576   0.78791   0.00000  Uiso   1.00
H741   H     0.12090   0.37691   0.70015   0.00000  Uiso   1.00
H742   H     0.21243   0.62309   0.79985   0.00000  Uiso   1.00
H743   H     0.21236   0.37692   0.79993   0.00000  Uiso   1.00
H744   H     0.12098   0.62308   0.70007   0.00000  Uiso   1.00
N745   N     0.16667   0.61736   0.75000   0.00000  Uiso   1.00
N746   N     0.16667   0.38264   0.75000   0.00000  Uiso   1.00
O747   O     0.10655   0.53958   0.75000   0.00000  Uiso   1.00
O748   O     0.22679   0.46042   0.75001   0.00000  Uiso   1.00
O749   O     0.22679   0.53958   0.75001   0.00000  Uiso   1.00
O750   O     0.10655   0.46042   0.75000   0.00000  Uiso   1.00
O751   O     0.16666   0.53960   0.68513   0.00000  Uiso   1.00
O752   O     0.16668   0.46040   0.81487   0.00000  Uiso   1.00
O753   O     0.16668   0.53960   0.81487   0.00000  Uiso   1.00
O754   O     0.16666   0.46040   0.68513   0.00000  Uiso   1.00
C755   C     0.42070   0.50000   0.74997   0.00000  Uiso   1.00
C756   C     0.37611   0.50000   0.74998   0.00000  Uiso   1.00
C757   C     0.47460   0.35816   0.72230   0.00000  Uiso   1.00
C758   C     0.52540   0.64184   0.77770   0.00000  Uiso   1.00
C759   C     0.52539   0.35816   0.77772   0.00000  Uiso   1.00
C760   C     0.47461   0.64184   0.72228   0.00000  Uiso   1.00
C761   C     0.49996   0.50000   0.66427   0.00000  Uiso   1.00
C762   C     0.50004   0.50000   0.83573   0.00000  Uiso   1.00
C763   C     0.51228   0.54038   0.90738   0.00000  Uiso   1.00
C764   C     0.48772   0.45962   0.59263   0.00000  Uiso   1.00
C765   C     0.50005   0.50000   0.88417   0.00000  Uiso   1.00
C766   C     0.57930   0.50000   0.75003   0.00000  Uiso   1.00
C767   C     0.49995   0.50000   0.61583   0.00000  Uiso   1.00
C768   C     0.48782   0.45961   0.90725   0.00000  Uiso   1.00
C769   C     0.51218   0.54039   0.59275   0.00000  Uiso   1.00
C770   C     0.48797   0.45918   0.95346   0.00000  Uiso   1.00
C771   C     0.51203   0.54082   0.54654   0.00000  Uiso   1.00
C772   C     0.50001   0.50000   0.97674   0.00000  Uiso   1.00
C773   C     0.49999   0.50000   0.52326   0.00000  Uiso   1.00
C774   C     0.51209   0.54081   0.95359   0.00000  Uiso   1.00
C775   C     0.48791   0.45919   0.54641   0.00000  Uiso   1.00
C776   C     0.47624   0.41878   0.97692   0.00000  Uiso   1.00
C777   C     0.47621   0.41879   0.52283   0.00000  Uiso   1.00
C778   C     0.52376   0.58122   0.52308   0.00000  Uiso   1.00
C779   C     0.52379   0.58121   0.97717   0.00000  Uiso   1.00
C780   C     0.35471   0.46217   0.76865   0.00000  Uiso   1.00
C781   C     0.64529   0.53783   0.73135   0.00000  Uiso   1.00
C782   C     0.64544   0.46217   0.76867   0.00000  Uiso   1.00
C783   C     0.35456   0.53783   0.73133   0.00000  Uiso   1.00
C784   C     0.62389   0.50000   0.75002   0.00000  Uiso   1.00
Cu785  Cu    0.50000   0.54689   0.75000   0.00000  Uiso   1.00
Cu786  Cu    0.50000   0.45311   0.75000   0.00000  Uiso   1.00
F787   F     0.52512   0.57895   0.88487   0.00000  Uiso   1.00
F788   F     0.62507   0.57424   0.71209   0.00000  Uiso   1.00
F789   F     0.62539   0.42577   0.78796   0.00000  Uiso   1.00
F790   F     0.37461   0.57423   0.71204   0.00000  Uiso   1.00
F791   F     0.47488   0.42105   0.61513   0.00000  Uiso   1.00
F792   F     0.47502   0.42103   0.88461   0.00000  Uiso   1.00
F793   F     0.52498   0.57897   0.61539   0.00000  Uiso   1.00
F794   F     0.46485   0.37882   0.95569   0.00000  Uiso   1.00
F795   F     0.53515   0.62118   0.54431   0.00000  Uiso   1.00
F796   F     0.46479   0.37883   0.54395   0.00000  Uiso   1.00
F797   F     0.53521   0.62117   0.95605   0.00000  Uiso   1.00
F798   F     0.37493   0.42576   0.78791   0.00000  Uiso   1.00
H799   H     0.45424   0.37691   0.70015   0.00000  Uiso   1.00
H800   H     0.54576   0.62309   0.79985   0.00000  Uiso   1.00
H801   H     0.54569   0.37692   0.79993   0.00000  Uiso   1.00
H802   H     0.45431   0.62308   0.70007   0.00000  Uiso   1.00
N803   N     0.50000   0.61736   0.75000   0.00000  Uiso   1.00
N804   N     0.50000   0.38264   0.75000   0.00000  Uiso   1.00
O805   O     0.43988   0.53958   0.75000   0.00000  Uiso   1.00
O806   O     0.56012   0.46042   0.75001   0.00000  Uiso   1.00
O807   O     0.56012   0.53958   0.75001   0.00000  Uiso   1.00
O808   O     0.43988   0.46042   0.75000   0.00000  Uiso   1.00
O809   O     0.49999   0.53960   0.68513   0.00000  Uiso   1.00
O810   O     0.50001   0.46040   0.81487   0.00000  Uiso   1.00
O811   O     0.50001   0.53960   0.81487   0.00000  Uiso   1.00
O812   O     0.49999   0.46040   0.68513   0.00000  Uiso   1.00
C813   C     0.75403   0.50000   0.74997   0.00000  Uiso   1.00
C814   C     0.70944   0.50000   0.74998   0.00000  Uiso   1.00
C815   C     0.80793   0.35816   0.72230   0.00000  Uiso   1.00
C816   C     0.85874   0.64184   0.77770   0.00000  Uiso   1.00
C817   C     0.85872   0.35816   0.77772   0.00000  Uiso   1.00
C818   C     0.80794   0.64184   0.72228   0.00000  Uiso   1.00
C819   C     0.83330   0.50000   0.66427   0.00000  Uiso   1.00
C820   C     0.83337   0.50000   0.83573   0.00000  Uiso   1.00
C821   C     0.84562   0.54038   0.90738   0.00000  Uiso   1.00
C822   C     0.82105   0.45962   0.59263   0.00000  Uiso   1.00
C823   C     0.83338   0.50000   0.88417   0.00000  Uiso   1.00
C824   C     0.91263   0.50000   0.75003   0.00000  Uiso   1.00
C825   C     0.83328   0.50000   0.61583   0.00000  Uiso   1.00
C826   C     0.82115   0.45961   0.90725   0.00000  Uiso   1.00
C827   C     0.84551   0.54039   0.59275   0.00000  Uiso   1.00
C828   C     0.82130   0.45918   0.95346   0.00000  Uiso   1.00
C829   C     0.84536   0.54082   0.54654   0.00000  Uiso   1.00
C830   C     0.83335   0.50000   0.97674   0.00000  Uiso   1.00
C831   C     0.83332   0.50000   0.52326   0.00000  Uiso   1.00
C832   C     0.84542   0.54081   0.95359   0.00000  Uiso   1.00
C833   C     0.82124   0.45919   0.54641   0.00000  Uiso   1.00
C834   C     0.80957   0.41878   0.97692   0.00000  Uiso   1.00
C835   C     0.80954   0.41879   0.52283   0.00000  Uiso   1.00
C836   C     0.85709   0.58122   0.52308   0.00000  Uiso   1.00
C837   C     0.85712   0.58121   0.97717   0.00000  Uiso   1.00
C838   C     0.68805   0.46217   0.76865   0.00000  Uiso   1.00
C839   C     0.97862   0.53783   0.73135   0.00000  Uiso   1.00
C840   C     0.97878   0.46217   0.76867   0.00000  Uiso   1.00
C841   C     0.68789   0.53783   0.73133   0.00000  Uiso   1.00
C842   C     0.95722   0.50000   0.75002   0.00000  Uiso   1.00
Cu843  Cu    0.83333   0.54689   0.75000   0.00000  Uiso   1.00
Cu844  Cu    0.83333   0.45311   0.75000   0.00000  Uiso   1.00
F845   F     0.85845   0.57895   0.88487   0.00000  Uiso   1.00
F846   F     0.95840   0.57424   0.71209   0.00000  Uiso   1.00
F847   F     0.95872   0.42577   0.78796   0.00000  Uiso   1.00
F848   F     0.70795   0.57423   0.71204   0.00000  Uiso   1.00
F849   F     0.80821   0.42105   0.61513   0.00000  Uiso   1.00
F850   F     0.80835   0.42103   0.88461   0.00000  Uiso   1.00
F851   F     0.85831   0.57897   0.61539   0.00000  Uiso   1.00
F852   F     0.79819   0.37882   0.95569   0.00000  Uiso   1.00
F853   F     0.86848   0.62118   0.54431   0.00000  Uiso   1.00
F854   F     0.79813   0.37883   0.54395   0.00000  Uiso   1.00
F855   F     0.86854   0.62117   0.95605   0.00000  Uiso   1.00
F856   F     0.70827   0.42576   0.78791   0.00000  Uiso   1.00
H857   H     0.78757   0.37691   0.70015   0.00000  Uiso   1.00
H858   H     0.87910   0.62309   0.79985   0.00000  Uiso   1.00
H859   H     0.87902   0.37692   0.79993   0.00000  Uiso   1.00
H860   H     0.78764   0.62308   0.70007   0.00000  Uiso   1.00
N861   N     0.83333   0.61736   0.75000   0.00000  Uiso   1.00
N862   N     0.83333   0.38264   0.75000   0.00000  Uiso   1.00
O863   O     0.77321   0.53958   0.75000   0.00000  Uiso   1.00
O864   O     0.89345   0.46042   0.75001   0.00000  Uiso   1.00
O865   O     0.89345   0.53958   0.75001   0.00000  Uiso   1.00
O866   O     0.77321   0.46042   0.75000   0.00000  Uiso   1.00
O867   O     0.83332   0.53960   0.68513   0.00000  Uiso   1.00
O868   O     0.83334   0.46040   0.81487   0.00000  Uiso   1.00
O869   O     0.83334   0.53960   0.81487   0.00000  Uiso   1.00
O870   O     0.83332   0.46040   0.68513   0.00000  Uiso   1.00
C871   C     0.08737   0.83334   0.74997   0.00000  Uiso   1.00
C872   C     0.04278   0.83334   0.74998   0.00000  Uiso   1.00
C873   C     0.14126   0.69149   0.72230   0.00000  Uiso   1.00
C874   C     0.19207   0.97518   0.77770   0.00000  Uiso   1.00
C875   C     0.19205   0.69149   0.77772   0.00000  Uiso   1.00
C876   C     0.14128   0.97517   0.72228   0.00000  Uiso   1.00
C877   C     0.16663   0.83333   0.66427   0.00000  Uiso   1.00
C878   C     0.16670   0.83334   0.83573   0.00000  Uiso   1.00
C879   C     0.17895   0.87371   0.90738   0.00000  Uiso   1.00
C880   C     0.15438   0.79296   0.59263   0.00000  Uiso   1.00
C881   C     0.16672   0.83333   0.88417   0.00000  Uiso   1.00
C882   C     0.24597   0.83333   0.75003   0.00000  Uiso   1.00
C883   C     0.16662   0.83334   0.61583   0.00000  Uiso   1.00
C884   C     0.15449   0.79294   0.90725   0.00000  Uiso   1.00
C885   C     0.17885   0.87373   0.59275   0.00000  Uiso   1.00
C886   C     0.15464   0.79251   0.95346   0.00000  Uiso   1.00
C887   C     0.17870   0.87416   0.54654   0.00000  Uiso   1.00
C888   C     0.16668   0.83333   0.97674   0.00000  Uiso   1.00
C889   C     0.16665   0.83334   0.52326   0.00000  Uiso   1.00
C890   C     0.17876   0.87415   0.95359   0.00000  Uiso   1.00
C891   C     0.15458   0.79252   0.54641   0.00000  Uiso   1.00
C892   C     0.14291   0.75211   0.97692   0.00000  Uiso   1.00
C893   C     0.14288   0.75212   0.52283   0.00000  Uiso   1.00
C894   C     0.19042   0.91455   0.52308   0.00000  Uiso   1.00
C895   C     0.19046   0.91455   0.97717   0.00000  Uiso   1.00
C896   C     0.02138   0.79550   0.76865   0.00000  Uiso   1.00
C897   C     0.31195   0.87117   0.73135   0.00000  Uiso   1.00
C898   C     0.31211   0.79550   0.76867   0.00000  Uiso   1.00
C899   C     0.02122   0.87117   0.73133   0.00000  Uiso   1.00
C900   C     0.29056   0.83333   0.75002   0.00000  Uiso   1.00
Cu901  Cu    0.16667   0.88022   0.75000   0.00000  Uiso   1.00
Cu902  Cu    0.16667   0.78645   0.75000   0.00000  Uiso   1.00
F903   F     0.19178   0.91228   0.88487   0.00000  Uiso   1.00
F904   F     0.29173   0.90757   0.71209   0.00000  Uiso   1.00
F905   F     0.29205   0.75910   0.78796   0.00000  Uiso   1.00
F906   F     0.04128   0.90757   0.71204   0.00000  Uiso   1.00
F907   F     0.14155   0.75439   0.61513   0.00000  Uiso   1.00
F908   F     0.14169   0.75436   0.88461   0.00000  Uiso   1.00
F909   F     0.19165   0.91231   0.61539   0.00000  Uiso   1.00
F910   F     0.13152   0.71216   0.95569   0.00000  Uiso   1.00
F911   F     0.20181   0.95451   0.54431   0.00000  Uiso   1.00
F912   F     0.13146   0.71217   0.54395   0.00000  Uiso   1.00
F913   F     0.20187   0.95450   0.95605   0.00000  Uiso   1.00
F914   F     0.04160   0.75910   0.78791   0.00000  Uiso   1.00
H915   H     0.12090   0.71024   0.70015   0.00000  Uiso   1.00
H916   H     0.21243   0.95643   0.79985   0.00000  Uiso   1.00
H917   H     0.21236   0.71025   0.79993   0.00000  Uiso   1.00
H918   H     0.12098   0.95642   0.70007   0.00000  Uiso   1.00
N919   N     0.16667   0.95069   0.75000   0.00000  Uiso   1.00
N920   N     0.16667   0.71598   0.75000   0.00000  Uiso   1.00
O921   O     0.10655   0.87291   0.75000   0.00000  Uiso   1.00
O922   O     0.22679   0.79375   0.75001   0.00000  Uiso   1.00
O923   O     0.22679   0.87291   0.75001   0.00000  Uiso   1.00
O924   O     0.10655   0.79375   0.75000   0.00000  Uiso   1.00
O925   O     0.16666   0.87293   0.68513   0.00000  Uiso   1.00
O926   O     0.16668   0.79373   0.81487   0.00000  Uiso   1.00
O927   O     0.16668   0.87293   0.81487   0.00000  Uiso   1.00
O928   O     0.16666   0.79373   0.68513   0.00000  Uiso   1.00
C929   C     0.42070   0.83334   0.74997   0.00000  Uiso   1.00
C930   C     0.37611   0.83334   0.74998   0.00000  Uiso   1.00
C931   C     0.47460   0.69149   0.72230   0.00000  Uiso   1.00
C932   C     0.52540   0.97518   0.77770   0.00000  Uiso   1.00
C933   C     0.52539   0.69149   0.77772   0.00000  Uiso   1.00
C934   C     0.47461   0.97517   0.72228   0.00000  Uiso   1.00
C935   C     0.49996   0.83333   0.66427   0.00000  Uiso   1.00
C936   C     0.50004   0.83334   0.83573   0.00000  Uiso   1.00
C937   C     0.51228   0.87371   0.90738   0.00000  Uiso   1.00
C938   C     0.48772   0.79296   0.59263   0.00000  Uiso   1.00
C939   C     0.50005   0.83333   0.88417   0.00000  Uiso   1.00
C940   C     0.57930   0.83333   0.75003   0.00000  Uiso   1.00
C941   C     0.49995   0.83334   0.61583   0.00000  Uiso   1.00
C942   C     0.48782   0.79294   0.90725   0.00000  Uiso   1.00
C943   C     0.51218   0.87373   0.59275   0.00000  Uiso   1.00
C944   C     0.48797   0.79251   0.95346   0.00000  Uiso   1.00
C945   C     0.51203   0.87416   0.54654   0.00000  Uiso   1.00
C946   C     0.50001   0.83333   0.97674   0.00000  Uiso   1.00
C947   C     0.49999   0.83334   0.52326   0.00000  Uiso   1.00
C948   C     0.51209   0.87415   0.95359   0.00000  Uiso   1.00
C949   C     0.48791   0.79252   0.54641   0.00000  Uiso   1.00
C950   C     0.47624   0.75211   0.97692   0.00000  Uiso   1.00
C951   C     0.47621   0.75212   0.52283   0.00000  Uiso   1.00
C952   C     0.52376   0.91455   0.52308   0.00000  Uiso   1.00
C953   C     0.52379   0.91455   0.97717   0.00000  Uiso   1.00
C954   C     0.35471   0.79550   0.76865   0.00000  Uiso   1.00
C955   C     0.64529   0.87117   0.73135   0.00000  Uiso   1.00
C956   C     0.64544   0.79550   0.76867   0.00000  Uiso   1.00
C957   C     0.35456   0.87117   0.73133   0.00000  Uiso   1.00
C958   C     0.62389   0.83333   0.75002   0.00000  Uiso   1.00
Cu959  Cu    0.50000   0.88022   0.75000   0.00000  Uiso   1.00
Cu960  Cu    0.50000   0.78645   0.75000   0.00000  Uiso   1.00
F961   F     0.52512   0.91228   0.88487   0.00000  Uiso   1.00
F962   F     0.62507   0.90757   0.71209   0.00000  Uiso   1.00
F963   F     0.62539   0.75910   0.78796   0.00000  Uiso   1.00
F964   F     0.37461   0.90757   0.71204   0.00000  Uiso   1.00
F965   F     0.47488   0.75439   0.61513   0.00000  Uiso   1.00
F966   F     0.47502   0.75436   0.88461   0.00000  Uiso   1.00
F967   F     0.52498   0.91231   0.61539   0.00000  Uiso   1.00
F968   F     0.46485   0.71216   0.95569   0.00000  Uiso   1.00
F969   F     0.53515   0.95451   0.54431   0.00000  Uiso   1.00
F970   F     0.46479   0.71217   0.54395   0.00000  Uiso   1.00
F971   F     0.53521   0.95450   0.95605   0.00000  Uiso   1.00
F972   F     0.37493   0.75910   0.78791   0.00000  Uiso   1.00
H973   H     0.45424   0.71024   0.70015   0.00000  Uiso   1.00
H974   H     0.54576   0.95643   0.79985   0.00000  Uiso   1.00
H975   H     0.54569   0.71025   0.79993   0.00000  Uiso   1.00
H976   H     0.45431   0.95642   0.70007   0.00000  Uiso   1.00
N977   N     0.50000   0.95069   0.75000   0.00000  Uiso   1.00
N978   N     0.50000   0.71598   0.75000   0.00000  Uiso   1.00
O979   O     0.43988   0.87291   0.75000   0.00000  Uiso   1.00
O980   O     0.56012   0.79375   0.75001   0.00000  Uiso   1.00
O981   O     0.56012   0.87291   0.75001   0.00000  Uiso   1.00
O982   O     0.43988   0.79375   0.75000   0.00000  Uiso   1.00
O983   O     0.49999   0.87293   0.68513   0.00000  Uiso   1.00
O984   O     0.50001   0.79373   0.81487   0.00000  Uiso   1.00
O985   O     0.50001   0.87293   0.81487   0.00000  Uiso   1.00
O986   O     0.49999   0.79373   0.68513   0.00000  Uiso   1.00
C987   C     0.75403   0.83334   0.74997   0.00000  Uiso   1.00
C988   C     0.70944   0.83334   0.74998   0.00000  Uiso   1.00
C989   C     0.80793   0.69149   0.72230   0.00000  Uiso   1.00
C990   C     0.85874   0.97518   0.77770   0.00000  Uiso   1.00
C991   C     0.85872   0.69149   0.77772   0.00000  Uiso   1.00
C992   C     0.80794   0.97517   0.72228   0.00000  Uiso   1.00
C993   C     0.83330   0.83333   0.66427   0.00000  Uiso   1.00
C994   C     0.83337   0.83334   0.83573   0.00000  Uiso   1.00
C995   C     0.84562   0.87371   0.90738   0.00000  Uiso   1.00
C996   C     0.82105   0.79296   0.59263   0.00000  Uiso   1.00
C997   C     0.83338   0.83333   0.88417   0.00000  Uiso   1.00
C998   C     0.91263   0.83333   0.75003   0.00000  Uiso   1.00
C999   C     0.83328   0.83334   0.61583   0.00000  Uiso   1.00
C1000  C     0.82115   0.79294   0.90725   0.00000  Uiso   1.00
C1001  C     0.84551   0.87373   0.59275   0.00000  Uiso   1.00
C1002  C     0.82130   0.79251   0.95346   0.00000  Uiso   1.00
C1003  C     0.84536   0.87416   0.54654   0.00000  Uiso   1.00
C1004  C     0.83335   0.83333   0.97674   0.00000  Uiso   1.00
C1005  C     0.83332   0.83334   0.52326   0.00000  Uiso   1.00
C1006  C     0.84542   0.87415   0.95359   0.00000  Uiso   1.00
C1007  C     0.82124   0.79252   0.54641   0.00000  Uiso   1.00
C1008  C     0.80957   0.75211   0.97692   0.00000  Uiso   1.00
C1009  C     0.80954   0.75212   0.52283   0.00000  Uiso   1.00
C1010  C     0.85709   0.91455   0.52308   0.00000  Uiso   1.00
C1011  C     0.85712   0.91455   0.97717   0.00000  Uiso   1.00
C1012  C     0.68805   0.79550   0.76865   0.00000  Uiso   1.00
C1013  C     0.97862   0.87117   0.73135   0.00000  Uiso   1.00
C1014  C     0.97878   0.79550   0.76867   0.00000  Uiso   1.00
C1015  C     0.68789   0.87117   0.73133   0.00000  Uiso   1.00
C1016  C     0.95722   0.83333   0.75002   0.00000  Uiso   1.00
Cu1017 Cu    0.83333   0.88022   0.75000   0.00000  Uiso   1.00
Cu1018 Cu    0.83333   0.78645   0.75000   0.00000  Uiso   1.00
F1019  F     0.85845   0.91228   0.88487   0.00000  Uiso   1.00
F1020  F     0.95840   0.90757   0.71209   0.00000  Uiso   1.00
F1021  F     0.95872   0.75910   0.78796   0.00000  Uiso   1.00
F1022  F     0.70795   0.90757   0.71204   0.00000  Uiso   1.00
F1023  F     0.80821   0.75439   0.61513   0.00000  Uiso   1.00
F1024  F     0.80835   0.75436   0.88461   0.00000  Uiso   1.00
F1025  F     0.85831   0.91231   0.61539   0.00000  Uiso   1.00
F1026  F     0.79819   0.71216   0.95569   0.00000  Uiso   1.00
F1027  F     0.86848   0.95451   0.54431   0.00000  Uiso   1.00
F1028  F     0.79813   0.71217   0.54395   0.00000  Uiso   1.00
F1029  F     0.86854   0.95450   0.95605   0.00000  Uiso   1.00
F1030  F     0.70827   0.75910   0.78791   0.00000  Uiso   1.00
H1031  H     0.78757   0.71024   0.70015   0.00000  Uiso   1.00
H1032  H     0.87910   0.95643   0.79985   0.00000  Uiso   1.00
H1033  H     0.87902   0.71025   0.79993   0.00000  Uiso   1.00
H1034  H     0.78764   0.95642   0.70007   0.00000  Uiso   1.00
N1035  N     0.83333   0.95069   0.75000   0.00000  Uiso   1.00
N1036  N     0.83333   0.71598   0.75000   0.00000  Uiso   1.00
O1037  O     0.77321   0.87291   0.75000   0.00000  Uiso   1.00
O1038  O     0.89345   0.79375   0.75001   0.00000  Uiso   1.00
O1039  O     0.89345   0.87291   0.75001   0.00000  Uiso   1.00
O1040  O     0.77321   0.79375   0.75000   0.00000  Uiso   1.00
O1041  O     0.83332   0.87293   0.68513   0.00000  Uiso   1.00
O1042  O     0.83334   0.79373   0.81487   0.00000  Uiso   1.00
O1043  O     0.83334   0.87293   0.81487   0.00000  Uiso   1.00
O1044  O     0.83332   0.79373   0.68513   0.00000  Uiso   1.00
loop_
_geom_bond_atom_site_label_1
_geom_bond_atom_site_label_2
_geom_bond_distance
_geom_bond_site_symmetry_2
_ccdc_geom_bond_type
C1     O54     1.289   .     A
C1     O51     1.289   .     A
C1     C2      1.449   .     S
C2     C26     1.403   .     A
C2     C29     1.403   .     A
C3     N50     1.367   .     A
C3     H45     1.082   .     S
C3     C354    1.415   1_545 S
C4     N49     1.367   .     A
C4     H46     1.082   .     S
C4     C179    1.415   .     S
C5     H47     1.082   .     S
C5     N50     1.367   .     A
C5     C352    1.415   1_545 S
C6     H48     1.082   .     S
C6     N49     1.367   .     A
C6     C177    1.415   .     S
C7     O58     1.294   .     A
C7     O55     1.293   .     A
C7     C13     1.467   .     S
C8     O57     1.294   .     A
C8     C11     1.467   .     S
C8     O56     1.293   .     A
C9     C11     1.405   .     A
C9     F33     1.360   .     S
C9     C20     1.399   .     A
C10    C21     1.399   .     A
C10    F37     1.360   .     S
C10    C13     1.405   .     A
C11    C14     1.405   .     A
C12    O52     1.289   .     A
C12    C30     1.449   .     S
C12    O53     1.289   .     A
C13    C15     1.405   .     A
C14    F38     1.360   .     S
C14    C16     1.399   .     A
C15    F39     1.360   .     S
C15    C17     1.399   .     A
C16    C18     1.415   .     A
C16    C22     1.406   .     A
C17    C24     1.406   .     A
C17    C19     1.415   .     A
C18    C20     1.415   .     A
C18    C541    1.408   .     S
C19    C21     1.415   .     A
C19    C540    1.408   1_554 S
C20    C25     1.406   .     A
C21    C23     1.406   .     A
C22    F40     1.359   .     S
C22    C545    1.390   .     S
C23    F42     1.359   .     S
C23    C544    1.390   1_554 S
C24    F41     1.359   .     S
C24    C547    1.390   1_554 S
C25    F43     1.359   .     S
C25    C546    1.390   .     S
C26    F44     1.359   .     S
C26    C144    1.385   1_455 S
C27    C30     1.403   .     A
C27    F34     1.359   .     S
C27    C87     1.385   .     S
C28    C30     1.403   .     A
C28    F35     1.359   .     S
C28    C84     1.385   .     S
C29    F36     1.359   .     S
C29    C143    1.385   1_455 S
Cu31   Cu32    2.673   .     S
Cu31   O53     1.965   .     S
Cu31   N49     2.009   .     S
Cu31   O55     1.975   .     S
Cu31   O57     1.975   .     S
Cu31   O51     1.965   .     S
Cu32   O58     1.975   .     S
Cu32   N50     2.009   .     S
Cu32   O54     1.965   .     S
Cu32   O56     1.975   .     S
Cu32   O52     1.965   .     S
C59    O112    1.289   .     A
C59    O109    1.289   .     A
C59    C60     1.449   .     S
C60    C84     1.403   .     A
C60    C87     1.403   .     A
C61    N108    1.367   .     A
C61    H103    1.082   .     S
C61    C412    1.415   1_545 S
C62    N107    1.367   .     A
C62    H104    1.082   .     S
C62    C237    1.415   .     S
C63    H105    1.082   .     S
C63    N108    1.367   .     A
C63    C410    1.415   1_545 S
C64    H106    1.082   .     S
C64    N107    1.367   .     A
C64    C235    1.415   .     S
C65    O116    1.294   .     A
C65    O113    1.293   .     A
C65    C71     1.467   .     S
C66    O115    1.294   .     A
C66    C69     1.467   .     S
C66    O114    1.293   .     A
C67    C69     1.405   .     A
C67    F91     1.360   .     S
C67    C78     1.399   .     A
C68    C79     1.399   .     A
C68    F95     1.360   .     S
C68    C71     1.405   .     A
C69    C72     1.405   .     A
C70    O110    1.289   .     A
C70    C88     1.449   .     S
C70    O111    1.289   .     A
C71    C73     1.405   .     A
C72    F96     1.360   .     S
C72    C74     1.399   .     A
C73    F97     1.360   .     S
C73    C75     1.399   .     A
C74    C76     1.415   .     A
C74    C80     1.406   .     A
C75    C82     1.406   .     A
C75    C77     1.415   .     A
C76    C78     1.415   .     A
C76    C599    1.408   .     S
C77    C79     1.415   .     A
C77    C598    1.408   1_554 S
C78    C83     1.406   .     A
C79    C81     1.406   .     A
C80    F98     1.359   .     S
C80    C603    1.390   .     S
C81    F100    1.359   .     S
C81    C602    1.390   1_554 S
C82    F99     1.359   .     S
C82    C605    1.390   1_554 S
C83    F101    1.359   .     S
C83    C604    1.390   .     S
C84    F102    1.359   .     S
C85    C88     1.403   .     A
C85    F92     1.359   .     S
C85    C145    1.385   .     S
C86    C88     1.403   .     A
C86    F93     1.359   .     S
C86    C142    1.385   .     S
C87    F94     1.359   .     S
Cu89   Cu90    2.673   .     S
Cu89   O111    1.965   .     S
Cu89   N107    2.009   .     S
Cu89   O113    1.975   .     S
Cu89   O115    1.975   .     S
Cu89   O109    1.965   .     S
Cu90   O116    1.975   .     S
Cu90   N108    2.009   .     S
Cu90   O112    1.965   .     S
Cu90   O114    1.975   .     S
Cu90   O110    1.965   .     S
C117   O170    1.289   .     A
C117   O167    1.289   .     A
C117   C118    1.449   .     S
C118   C142    1.403   .     A
C118   C145    1.403   .     A
C119   N166    1.367   .     A
C119   H161    1.082   .     S
C119   C470    1.415   1_545 S
C120   N165    1.367   .     A
C120   H162    1.082   .     S
C120   C295    1.415   .     S
C121   H163    1.082   .     S
C121   N166    1.367   .     A
C121   C468    1.415   1_545 S
C122   H164    1.082   .     S
C122   N165    1.367   .     A
C122   C293    1.415   .     S
C123   O174    1.294   .     A
C123   O171    1.293   .     A
C123   C129    1.467   .     S
C124   O173    1.294   .     A
C124   C127    1.467   .     S
C124   O172    1.293   .     A
C125   C127    1.405   .     A
C125   F149    1.360   .     S
C125   C136    1.399   .     A
C126   C137    1.399   .     A
C126   F153    1.360   .     S
C126   C129    1.405   .     A
C127   C130    1.405   .     A
C128   O168    1.289   .     A
C128   C146    1.449   .     S
C128   O169    1.289   .     A
C129   C131    1.405   .     A
C130   F154    1.360   .     S
C130   C132    1.399   .     A
C131   F155    1.360   .     S
C131   C133    1.399   .     A
C132   C134    1.415   .     A
C132   C138    1.406   .     A
C133   C140    1.406   .     A
C133   C135    1.415   .     A
C134   C136    1.415   .     A
C134   C657    1.408   .     S
C135   C137    1.415   .     A
C135   C656    1.408   1_554 S
C136   C141    1.406   .     A
C137   C139    1.406   .     A
C138   F156    1.359   .     S
C138   C661    1.390   .     S
C139   F158    1.359   .     S
C139   C660    1.390   1_554 S
C140   F157    1.359   .     S
C140   C663    1.390   1_554 S
C141   F159    1.359   .     S
C141   C662    1.390   .     S
C142   F160    1.359   .     S
C143   C146    1.403   .     A
C143   F150    1.359   .     S
C143   C29     1.385   1_655 S
C144   C146    1.403   .     A
C144   F151    1.359   .     S
C144   C26     1.385   1_655 S
C145   F152    1.359   .     S
Cu147  Cu148   2.673   .     S
Cu147  O169    1.965   .     S
Cu147  N165    2.009   .     S
Cu147  O171    1.975   .     S
Cu147  O173    1.975   .     S
Cu147  O167    1.965   .     S
Cu148  O174    1.975   .     S
Cu148  N166    2.009   .     S
Cu148  O170    1.965   .     S
Cu148  O172    1.975   .     S
Cu148  O168    1.965   .     S
C175   O228    1.289   .     A
C175   O225    1.289   .     A
C175   C176    1.449   .     S
C176   C200    1.403   .     A
C176   C203    1.403   .     A
C177   N224    1.367   .     A
C177   H219    1.082   .     S
C178   N223    1.367   .     A
C178   H220    1.082   .     S
C178   C353    1.415   .     S
C179   H221    1.082   .     S
C179   N224    1.367   .     A
C180   H222    1.082   .     S
C180   N223    1.367   .     A
C180   C351    1.415   .     S
C181   O232    1.294   .     A
C181   O229    1.293   .     A
C181   C187    1.467   .     S
C182   O231    1.294   .     A
C182   C185    1.467   .     S
C182   O230    1.293   .     A
C183   C185    1.405   .     A
C183   F207    1.360   .     S
C183   C194    1.399   .     A
C184   C195    1.399   .     A
C184   F211    1.360   .     S
C184   C187    1.405   .     A
C185   C188    1.405   .     A
C186   O226    1.289   .     A
C186   C204    1.449   .     S
C186   O227    1.289   .     A
C187   C189    1.405   .     A
C188   F212    1.360   .     S
C188   C190    1.399   .     A
C189   F213    1.360   .     S
C189   C191    1.399   .     A
C190   C192    1.415   .     A
C190   C196    1.406   .     A
C191   C198    1.406   .     A
C191   C193    1.415   .     A
C192   C194    1.415   .     A
C192   C715    1.408   .     S
C193   C195    1.415   .     A
C193   C714    1.408   1_554 S
C194   C199    1.406   .     A
C195   C197    1.406   .     A
C196   F214    1.359   .     S
C196   C719    1.390   .     S
C197   F216    1.359   .     S
C197   C718    1.390   1_554 S
C198   F215    1.359   .     S
C198   C721    1.390   1_554 S
C199   F217    1.359   .     S
C199   C720    1.390   .     S
C200   F218    1.359   .     S
C200   C318    1.385   1_455 S
C201   C204    1.403   .     A
C201   F208    1.359   .     S
C201   C261    1.385   .     S
C202   C204    1.403   .     A
C202   F209    1.359   .     S
C202   C258    1.385   .     S
C203   F210    1.359   .     S
C203   C317    1.385   1_455 S
Cu205  Cu206   2.673   .     S
Cu205  O227    1.965   .     S
Cu205  N223    2.009   .     S
Cu205  O229    1.975   .     S
Cu205  O231    1.975   .     S
Cu205  O225    1.965   .     S
Cu206  O232    1.975   .     S
Cu206  N224    2.009   .     S
Cu206  O228    1.965   .     S
Cu206  O230    1.975   .     S
Cu206  O226    1.965   .     S
C233   O286    1.289   .     A
C233   O283    1.289   .     A
C233   C234    1.449   .     S
C234   C258    1.403   .     A
C234   C261    1.403   .     A
C235   N282    1.367   .     A
C235   H277    1.082   .     S
C236   N281    1.367   .     A
C236   H278    1.082   .     S
C236   C411    1.415   .     S
C237   H279    1.082   .     S
C237   N282    1.367   .     A
C238   H280    1.082   .     S
C238   N281    1.367   .     A
C238   C409    1.415   .     S
C239   O290    1.294   .     A
C239   O287    1.293   .     A
C239   C245    1.467   .     S
C240   O289    1.294   .     A
C240   C243    1.467   .     S
C240   O288    1.293   .     A
C241   C243    1.405   .     A
C241   F265    1.360   .     S
C241   C252    1.399   .     A
C242   C253    1.399   .     A
C242   F269    1.360   .     S
C242   C245    1.405   .     A
C243   C246    1.405   .     A
C244   O284    1.289   .     A
C244   C262    1.449   .     S
C244   O285    1.289   .     A
C245   C247    1.405   .     A
C246   F270    1.360   .     S
C246   C248    1.399   .     A
C247   F271    1.360   .     S
C247   C249    1.399   .     A
C248   C250    1.415   .     A
C248   C254    1.406   .     A
C249   C256    1.406   .     A
C249   C251    1.415   .     A
C250   C252    1.415   .     A
C250   C773    1.408   .     S
C251   C253    1.415   .     A
C251   C772    1.408   1_554 S
C252   C257    1.406   .     A
C253   C255    1.406   .     A
C254   F272    1.359   .     S
C254   C777    1.390   .     S
C255   F274    1.359   .     S
C255   C776    1.390   1_554 S
C256   F273    1.359   .     S
C256   C779    1.390   1_554 S
C257   F275    1.359   .     S
C257   C778    1.390   .     S
C258   F276    1.359   .     S
C259   C262    1.403   .     A
C259   F266    1.359   .     S
C259   C319    1.385   .     S
C260   C262    1.403   .     A
C260   F267    1.359   .     S
C260   C316    1.385   .     S
C261   F268    1.359   .     S
Cu263  Cu264   2.673   .     S
Cu263  O285    1.965   .     S
Cu263  N281    2.009   .     S
Cu263  O287    1.975   .     S
Cu263  O289    1.975   .     S
Cu263  O283    1.965   .     S
Cu264  O290    1.975   .     S
Cu264  N282    2.009   .     S
Cu264  O286    1.965   .     S
Cu264  O288    1.975   .     S
Cu264  O284    1.965   .     S
C291   O344    1.289   .     A
C291   O341    1.289   .     A
C291   C292    1.449   .     S
C292   C316    1.403   .     A
C292   C319    1.403   .     A
C293   N340    1.367   .     A
C293   H335    1.082   .     S
C294   N339    1.367   .     A
C294   H336    1.082   .     S
C294   C469    1.415   .     S
C295   H337    1.082   .     S
C295   N340    1.367   .     A
C296   H338    1.082   .     S
C296   N339    1.367   .     A
C296   C467    1.415   .     S
C297   O348    1.294   .     A
C297   O345    1.293   .     A
C297   C303    1.467   .     S
C298   O347    1.294   .     A
C298   C301    1.467   .     S
C298   O346    1.293   .     A
C299   C301    1.405   .     A
C299   F323    1.360   .     S
C299   C310    1.399   .     A
C300   C311    1.399   .     A
C300   F327    1.360   .     S
C300   C303    1.405   .     A
C301   C304    1.405   .     A
C302   O342    1.289   .     A
C302   C320    1.449   .     S
C302   O343    1.289   .     A
C303   C305    1.405   .     A
C304   F328    1.360   .     S
C304   C306    1.399   .     A
C305   F329    1.360   .     S
C305   C307    1.399   .     A
C306   C308    1.415   .     A
C306   C312    1.406   .     A
C307   C314    1.406   .     A
C307   C309    1.415   .     A
C308   C310    1.415   .     A
C308   C831    1.408   .     S
C309   C311    1.415   .     A
C309   C830    1.408   1_554 S
C310   C315    1.406   .     A
C311   C313    1.406   .     A
C312   F330    1.359   .     S
C312   C835    1.390   .     S
C313   F332    1.359   .     S
C313   C834    1.390   1_554 S
C314   F331    1.359   .     S
C314   C837    1.390   1_554 S
C315   F333    1.359   .     S
C315   C836    1.390   .     S
C316   F334    1.359   .     S
C317   C320    1.403   .     A
C317   F324    1.359   .     S
C317   C203    1.385   1_655 S
C318   C320    1.403   .     A
C318   F325    1.359   .     S
C318   C200    1.385   1_655 S
C319   F326    1.359   .     S
Cu321  Cu322   2.673   .     S
Cu321  O343    1.965   .     S
Cu321  N339    2.009   .     S
Cu321  O345    1.975   .     S
Cu321  O347    1.975   .     S
Cu321  O341    1.965   .     S
Cu322  O348    1.975   .     S
Cu322  N340    2.009   .     S
Cu322  O344    1.965   .     S
Cu322  O346    1.975   .     S
Cu322  O342    1.965   .     S
C349   O402    1.289   .     A
C349   O399    1.289   .     A
C349   C350    1.449   .     S
C350   C374    1.403   .     A
C350   C377    1.403   .     A
C351   N398    1.367   .     A
C351   H393    1.082   .     S
C352   N397    1.367   .     A
C352   H394    1.082   .     S
C352   C5      1.415   1_565 S
C353   H395    1.082   .     S
C353   N398    1.367   .     A
C354   H396    1.082   .     S
C354   N397    1.367   .     A
C354   C3      1.415   1_565 S
C355   O406    1.294   .     A
C355   O403    1.293   .     A
C355   C361    1.467   .     S
C356   O405    1.294   .     A
C356   C359    1.467   .     S
C356   O404    1.293   .     A
C357   C359    1.405   .     A
C357   F381    1.360   .     S
C357   C368    1.399   .     A
C358   C369    1.399   .     A
C358   F385    1.360   .     S
C358   C361    1.405   .     A
C359   C362    1.405   .     A
C360   O400    1.289   .     A
C360   C378    1.449   .     S
C360   O401    1.289   .     A
C361   C363    1.405   .     A
C362   F386    1.360   .     S
C362   C364    1.399   .     A
C363   F387    1.360   .     S
C363   C365    1.399   .     A
C364   C366    1.415   .     A
C364   C370    1.406   .     A
C365   C372    1.406   .     A
C365   C367    1.415   .     A
C366   C368    1.415   .     A
C366   C889    1.408   .     S
C367   C369    1.415   .     A
C367   C888    1.408   1_554 S
C368   C373    1.406   .     A
C369   C371    1.406   .     A
C370   F388    1.359   .     S
C370   C893    1.390   .     S
C371   F390    1.359   .     S
C371   C892    1.390   1_554 S
C372   F389    1.359   .     S
C372   C895    1.390   1_554 S
C373   F391    1.359   .     S
C373   C894    1.390   .     S
C374   F392    1.359   .     S
C374   C492    1.385   1_455 S
C375   C378    1.403   .     A
C375   F382    1.359   .     S
C375   C435    1.385   .     S
C376   C378    1.403   .     A
C376   F383    1.359   .     S
C376   C432    1.385   .     S
C377   F384    1.359   .     S
C377   C491    1.385   1_455 S
Cu379  Cu380   2.673   .     S
Cu379  O401    1.965   .     S
Cu379  N397    2.009   .     S
Cu379  O403    1.975   .     S
Cu379  O405    1.975   .     S
Cu379  O399    1.965   .     S
Cu380  O406    1.975   .     S
Cu380  N398    2.009   .     S
Cu380  O402    1.965   .     S
Cu380  O404    1.975   .     S
Cu380  O400    1.965   .     S
C407   O460    1.289   .     A
C407   O457    1.289   .     A
C407   C408    1.449   .     S
C408   C432    1.403   .     A
C408   C435    1.403   .     A
C409   N456    1.367   .     A
C409   H451    1.082   .     S
C410   N455    1.367   .     A
C410   H452    1.082   .     S
C410   C63     1.415   1_565 S
C411   H453    1.082   .     S
C411   N456    1.367   .     A
C412   H454    1.082   .     S
C412   N455    1.367   .     A
C412   C61     1.415   1_565 S
C413   O464    1.294   .     A
C413   O461    1.293   .     A
C413   C419    1.467   .     S
C414   O463    1.294   .     A
C414   C417    1.467   .     S
C414   O462    1.293   .     A
C415   C417    1.405   .     A
C415   F439    1.360   .     S
C415   C426    1.399   .     A
C416   C427    1.399   .     A
C416   F443    1.360   .     S
C416   C419    1.405   .     A
C417   C420    1.405   .     A
C418   O458    1.289   .     A
C418   C436    1.449   .     S
C418   O459    1.289   .     A
C419   C421    1.405   .     A
C420   F444    1.360   .     S
C420   C422    1.399   .     A
C421   F445    1.360   .     S
C421   C423    1.399   .     A
C422   C424    1.415   .     A
C422   C428    1.406   .     A
C423   C430    1.406   .     A
C423   C425    1.415   .     A
C424   C426    1.415   .     A
C424   C947    1.408   .     S
C425   C427    1.415   .     A
C425   C946    1.408   1_554 S
C426   C431    1.406   .     A
C427   C429    1.406   .     A
C428   F446    1.359   .     S
C428   C951    1.390   .     S
C429   F448    1.359   .     S
C429   C950    1.390   1_554 S
C430   F447    1.359   .     S
C430   C953    1.390   1_554 S
C431   F449    1.359   .     S
C431   C952    1.390   .     S
C432   F450    1.359   .     S
C433   C436    1.403   .     A
C433   F440    1.359   .     S
C433   C493    1.385   .     S
C434   C436    1.403   .     A
C434   F441    1.359   .     S
C434   C490    1.385   .     S
C435   F442    1.359   .     S
Cu437  Cu438   2.673   .     S
Cu437  O459    1.965   .     S
Cu437  N455    2.009   .     S
Cu437  O461    1.975   .     S
Cu437  O463    1.975   .     S
Cu437  O457    1.965   .     S
Cu438  O464    1.975   .     S
Cu438  N456    2.009   .     S
Cu438  O460    1.965   .     S
Cu438  O462    1.975   .     S
Cu438  O458    1.965   .     S
C465   O518    1.289   .     A
C465   O515    1.289   .     A
C465   C466    1.449   .     S
C466   C490    1.403   .     A
C466   C493    1.403   .     A
C467   N514    1.367   .     A
C467   H509    1.082   .     S
C468   N513    1.367   .     A
C468   H510    1.082   .     S
C468   C121    1.415   1_565 S
C469   H511    1.082   .     S
C469   N514    1.367   .     A
C470   H512    1.082   .     S
C470   N513    1.367   .     A
C470   C119    1.415   1_565 S
C471   O522    1.294   .     A
C471   O519    1.293   .     A
C471   C477    1.467   .     S
C472   O521    1.294   .     A
C472   C475    1.467   .     S
C472   O520    1.293   .     A
C473   C475    1.405   .     A
C473   F497    1.360   .     S
C473   C484    1.399   .     A
C474   C485    1.399   .     A
C474   F501    1.360   .     S
C474   C477    1.405   .     A
C475   C478    1.405   .     A
C476   O516    1.289   .     A
C476   C494    1.449   .     S
C476   O517    1.289   .     A
C477   C479    1.405   .     A
C478   F502    1.360   .     S
C478   C480    1.399   .     A
C479   F503    1.360   .     S
C479   C481    1.399   .     A
C480   C482    1.415   .     A
C480   C486    1.406   .     A
C481   C488    1.406   .     A
C481   C483    1.415   .     A
C482   C484    1.415   .     A
C482   C1005   1.408   .     S
C483   C485    1.415   .     A
C483   C1004   1.408   1_554 S
C484   C489    1.406   .     A
C485   C487    1.406   .     A
C486   F504    1.359   .     S
C486   C1009   1.390   .     S
C487   F506    1.359   .     S
C487   C1008   1.390   1_554 S
C488   F505    1.359   .     S
C488   C1011   1.390   1_554 S
C489   F507    1.359   .     S
C489   C1010   1.390   .     S
C490   F508    1.359   .     S
C491   C494    1.403   .     A
C491   F498    1.359   .     S
C491   C377    1.385   1_655 S
C492   C494    1.403   .     A
C492   F499    1.359   .     S
C492   C374    1.385   1_655 S
C493   F500    1.359   .     S
Cu495  Cu496   2.673   .     S
Cu495  O517    1.965   .     S
Cu495  N513    2.009   .     S
Cu495  O519    1.975   .     S
Cu495  O521    1.975   .     S
Cu495  O515    1.965   .     S
Cu496  O522    1.975   .     S
Cu496  N514    2.009   .     S
Cu496  O518    1.965   .     S
Cu496  O520    1.975   .     S
Cu496  O516    1.965   .     S
C523   O576    1.289   .     A
C523   O573    1.289   .     A
C523   C524    1.449   .     S
C524   C548    1.403   .     A
C524   C551    1.403   .     A
C525   N572    1.367   .     A
C525   H567    1.082   .     S
C525   C876    1.415   1_545 S
C526   N571    1.367   .     A
C526   H568    1.082   .     S
C526   C701    1.415   .     S
C527   H569    1.082   .     S
C527   N572    1.367   .     A
C527   C874    1.415   1_545 S
C528   H570    1.082   .     S
C528   N571    1.367   .     A
C528   C699    1.415   .     S
C529   O580    1.294   .     A
C529   O577    1.293   .     A
C529   C535    1.467   .     S
C530   O579    1.294   .     A
C530   C533    1.467   .     S
C530   O578    1.293   .     A
C531   C533    1.405   .     A
C531   F555    1.360   .     S
C531   C542    1.399   .     A
C532   C543    1.399   .     A
C532   F559    1.360   .     S
C532   C535    1.405   .     A
C533   C536    1.405   .     A
C534   O574    1.289   .     A
C534   C552    1.449   .     S
C534   O575    1.289   .     A
C535   C537    1.405   .     A
C536   F560    1.360   .     S
C536   C538    1.399   .     A
C537   F561    1.360   .     S
C537   C539    1.399   .     A
C538   C540    1.415   .     A
C538   C544    1.406   .     A
C539   C546    1.406   .     A
C539   C541    1.415   .     A
C540   C542    1.415   .     A
C540   C19     1.408   1_556 S
C541   C543    1.415   .     A
C542   C547    1.406   .     A
C543   C545    1.406   .     A
C544   F562    1.359   .     S
C544   C23     1.390   1_556 S
C545   F564    1.359   .     S
C546   F563    1.359   .     S
C547   F565    1.359   .     S
C547   C24     1.390   1_556 S
C548   F566    1.359   .     S
C548   C666    1.385   1_455 S
C549   C552    1.403   .     A
C549   F556    1.359   .     S
C549   C609    1.385   .     S
C550   C552    1.403   .     A
C550   F557    1.359   .     S
C550   C606    1.385   .     S
C551   F558    1.359   .     S
C551   C665    1.385   1_455 S
Cu553  Cu554   2.673   .     S
Cu553  O575    1.965   .     S
Cu553  N571    2.009   .     S
Cu553  O577    1.975   .     S
Cu553  O579    1.975   .     S
Cu553  O573    1.965   .     S
Cu554  O580    1.975   .     S
Cu554  N572    2.009   .     S
Cu554  O576    1.965   .     S
Cu554  O578    1.975   .     S
Cu554  O574    1.965   .     S
C581   O634    1.289   .     A
C581   O631    1.289   .     A
C581   C582    1.449   .     S
C582   C606    1.403   .     A
C582   C609    1.403   .     A
C583   N630    1.367   .     A
C583   H625    1.082   .     S
C583   C934    1.415   1_545 S
C584   N629    1.367   .     A
C584   H626    1.082   .     S
C584   C759    1.415   .     S
C585   H627    1.082   .     S
C585   N630    1.367   .     A
C585   C932    1.415   1_545 S
C586   H628    1.082   .     S
C586   N629    1.367   .     A
C586   C757    1.415   .     S
C587   O638    1.294   .     A
C587   O635    1.293   .     A
C587   C593    1.467   .     S
C588   O637    1.294   .     A
C588   C591    1.467   .     S
C588   O636    1.293   .     A
C589   C591    1.405   .     A
C589   F613    1.360   .     S
C589   C600    1.399   .     A
C590   C601    1.399   .     A
C590   F617    1.360   .     S
C590   C593    1.405   .     A
C591   C594    1.405   .     A
C592   O632    1.289   .     A
C592   C610    1.449   .     S
C592   O633    1.289   .     A
C593   C595    1.405   .     A
C594   F618    1.360   .     S
C594   C596    1.399   .     A
C595   F619    1.360   .     S
C595   C597    1.399   .     A
C596   C598    1.415   .     A
C596   C602    1.406   .     A
C597   C604    1.406   .     A
C597   C599    1.415   .     A
C598   C600    1.415   .     A
C598   C77     1.408   1_556 S
C599   C601    1.415   .     A
C600   C605    1.406   .     A
C601   C603    1.406   .     A
C602   F620    1.359   .     S
C602   C81     1.390   1_556 S
C603   F622    1.359   .     S
C604   F621    1.359   .     S
C605   F623    1.359   .     S
C605   C82     1.390   1_556 S
C606   F624    1.359   .     S
C607   C610    1.403   .     A
C607   F614    1.359   .     S
C607   C667    1.385   .     S
C608   C610    1.403   .     A
C608   F615    1.359   .     S
C608   C664    1.385   .     S
C609   F616    1.359   .     S
Cu611  Cu612   2.673   .     S
Cu611  O633    1.965   .     S
Cu611  N629    2.009   .     S
Cu611  O635    1.975   .     S
Cu611  O637    1.975   .     S
Cu611  O631    1.965   .     S
Cu612  O638    1.975   .     S
Cu612  N630    2.009   .     S
Cu612  O634    1.965   .     S
Cu612  O636    1.975   .     S
Cu612  O632    1.965   .     S
C639   O692    1.289   .     A
C639   O689    1.289   .     A
C639   C640    1.449   .     S
C640   C664    1.403   .     A
C640   C667    1.403   .     A
C641   N688    1.367   .     A
C641   H683    1.082   .     S
C641   C992    1.415   1_545 S
C642   N687    1.367   .     A
C642   H684    1.082   .     S
C642   C817    1.415   .     S
C643   H685    1.082   .     S
C643   N688    1.367   .     A
C643   C990    1.415   1_545 S
C644   H686    1.082   .     S
C644   N687    1.367   .     A
C644   C815    1.415   .     S
C645   O696    1.294   .     A
C645   O693    1.293   .     A
C645   C651    1.467   .     S
C646   O695    1.294   .     A
C646   C649    1.467   .     S
C646   O694    1.293   .     A
C647   C649    1.405   .     A
C647   F671    1.360   .     S
C647   C658    1.399   .     A
C648   C659    1.399   .     A
C648   F675    1.360   .     S
C648   C651    1.405   .     A
C649   C652    1.405   .     A
C650   O690    1.289   .     A
C650   C668    1.449   .     S
C650   O691    1.289   .     A
C651   C653    1.405   .     A
C652   F676    1.360   .     S
C652   C654    1.399   .     A
C653   F677    1.360   .     S
C653   C655    1.399   .     A
C654   C656    1.415   .     A
C654   C660    1.406   .     A
C655   C662    1.406   .     A
C655   C657    1.415   .     A
C656   C658    1.415   .     A
C656   C135    1.408   1_556 S
C657   C659    1.415   .     A
C658   C663    1.406   .     A
C659   C661    1.406   .     A
C660   F678    1.359   .     S
C660   C139    1.390   1_556 S
C661   F680    1.359   .     S
C662   F679    1.359   .     S
C663   F681    1.359   .     S
C663   C140    1.390   1_556 S
C664   F682    1.359   .     S
C665   C668    1.403   .     A
C665   F672    1.359   .     S
C665   C551    1.385   1_655 S
C666   C668    1.403   .     A
C666   F673    1.359   .     S
C666   C548    1.385   1_655 S
C667   F674    1.359   .     S
Cu669  Cu670   2.673   .     S
Cu669  O691    1.965   .     S
Cu669  N687    2.009   .     S
Cu669  O693    1.975   .     S
Cu669  O695    1.975   .     S
Cu669  O689    1.965   .     S
Cu670  O696    1.975   .     S
Cu670  N688    2.009   .     S
Cu670  O692    1.965   .     S
Cu670  O694    1.975   .     S
Cu670  O690    1.965   .     S
C697   O750    1.289   .     A
C697   O747    1.289   .     A
C697   C698    1.449   .     S
C698   C722    1.403   .     A
C698   C725    1.403   .     A
C699   N746    1.367   .     A
C699   H741    1.082   .     S
C700   N745    1.367   .     A
C700   H742    1.082   .     S
C700   C875    1.415   .     S
C701   H743    1.082   .     S
C701   N746    1.367   .     A
C702   H744    1.082   .     S
C702   N745    1.367   .     A
C702   C873    1.415   .     S
C703   O754    1.294   .     A
C703   O751    1.293   .     A
C703   C709    1.467   .     S
C704   O753    1.294   .     A
C704   C707    1.467   .     S
C704   O752    1.293   .     A
C705   C707    1.405   .     A
C705   F729    1.360   .     S
C705   C716    1.399   .     A
C706   C717    1.399   .     A
C706   F733    1.360   .     S
C706   C709    1.405   .     A
C707   C710    1.405   .     A
C708   O748    1.289   .     A
C708   C726    1.449   .     S
C708   O749    1.289   .     A
C709   C711    1.405   .     A
C710   F734    1.360   .     S
C710   C712    1.399   .     A
C711   F735    1.360   .     S
C711   C713    1.399   .     A
C712   C714    1.415   .     A
C712   C718    1.406   .     A
C713   C720    1.406   .     A
C713   C715    1.415   .     A
C714   C716    1.415   .     A
C714   C193    1.408   1_556 S
C715   C717    1.415   .     A
C716   C721    1.406   .     A
C717   C719    1.406   .     A
C718   F736    1.359   .     S
C718   C197    1.390   1_556 S
C719   F738    1.359   .     S
C720   F737    1.359   .     S
C721   F739    1.359   .     S
C721   C198    1.390   1_556 S
C722   F740    1.359   .     S
C722   C840    1.385   1_455 S
C723   C726    1.403   .     A
C723   F730    1.359   .     S
C723   C783    1.385   .     S
C724   C726    1.403   .     A
C724   F731    1.359   .     S
C724   C780    1.385   .     S
C725   F732    1.359   .     S
C725   C839    1.385   1_455 S
Cu727  Cu728   2.673   .     S
Cu727  O749    1.965   .     S
Cu727  N745    2.009   .     S
Cu727  O751    1.975   .     S
Cu727  O753    1.975   .     S
Cu727  O747    1.965   .     S
Cu728  O754    1.975   .     S
Cu728  N746    2.009   .     S
Cu728  O750    1.965   .     S
Cu728  O752    1.975   .     S
Cu728  O748    1.965   .     S
C755   O808    1.289   .     A
C755   O805    1.289   .     A
C755   C756    1.449   .     S
C756   C780    1.403   .     A
C756   C783    1.403   .     A
C757   N804    1.367   .     A
C757   H799    1.082   .     S
C758   N803    1.367   .     A
C758   H800    1.082   .     S
C758   C933    1.415   .     S
C759   H801    1.082   .     S
C759   N804    1.367   .     A
C760   H802    1.082   .     S
C760   N803    1.367   .     A
C760   C931    1.415   .     S
C761   O812    1.294   .     A
C761   O809    1.293   .     A
C761   C767    1.467   .     S
C762   O811    1.294   .     A
C762   C765    1.467   .     S
C762   O810    1.293   .     A
C763   C765    1.405   .     A
C763   F787    1.360   .     S
C763   C774    1.399   .     A
C764   C775    1.399   .     A
C764   F791    1.360   .     S
C764   C767    1.405   .     A
C765   C768    1.405   .     A
C766   O806    1.289   .     A
C766   C784    1.449   .     S
C766   O807    1.289   .     A
C767   C769    1.405   .     A
C768   F792    1.360   .     S
C768   C770    1.399   .     A
C769   F793    1.360   .     S
C769   C771    1.399   .     A
C770   C772    1.415   .     A
C770   C776    1.406   .     A
C771   C778    1.406   .     A
C771   C773    1.415   .     A
C772   C774    1.415   .     A
C772   C251    1.408   1_556 S
C773   C775    1.415   .     A
C774   C779    1.406   .     A
C775   C777    1.406   .     A
C776   F794    1.359   .     S
C776   C255    1.390   1_556 S
C777   F796    1.359   .     S
C778   F795    1.359   .     S
C779   F797    1.359   .     S
C779   C256    1.390   1_556 S
C780   F798    1.359   .     S
C781   C784    1.403   .     A
C781   F788    1.359   .     S
C781   C841    1.385   .     S
C782   C784    1.403   .     A
C782   F789    1.359   .     S
C782   C838    1.385   .     S
C783   F790    1.359   .     S
Cu785  Cu786   2.673   .     S
Cu785  O807    1.965   .     S
Cu785  N803    2.009   .     S
Cu785  O809    1.975   .     S
Cu785  O811    1.975   .     S
Cu785  O805    1.965   .     S
Cu786  O812    1.975   .     S
Cu786  N804    2.009   .     S
Cu786  O808    1.965   .     S
Cu786  O810    1.975   .     S
Cu786  O806    1.965   .     S
C813   O866    1.289   .     A
C813   O863    1.289   .     A
C813   C814    1.449   .     S
C814   C838    1.403   .     A
C814   C841    1.403   .     A
C815   N862    1.367   .     A
C815   H857    1.082   .     S
C816   N861    1.367   .     A
C816   H858    1.082   .     S
C816   C991    1.415   .     S
C817   H859    1.082   .     S
C817   N862    1.367   .     A
C818   H860    1.082   .     S
C818   N861    1.367   .     A
C818   C989    1.415   .     S
C819   O870    1.294   .     A
C819   O867    1.293   .     A
C819   C825    1.467   .     S
C820   O869    1.294   .     A
C820   C823    1.467   .     S
C820   O868    1.293   .     A
C821   C823    1.405   .     A
C821   F845    1.360   .     S
C821   C832    1.399   .     A
C822   C833    1.399   .     A
C822   F849    1.360   .     S
C822   C825    1.405   .     A
C823   C826    1.405   .     A
C824   O864    1.289   .     A
C824   C842    1.449   .     S
C824   O865    1.289   .     A
C825   C827    1.405   .     A
C826   F850    1.360   .     S
C826   C828    1.399   .     A
C827   F851    1.360   .     S
C827   C829    1.399   .     A
C828   C830    1.415   .     A
C828   C834    1.406   .     A
C829   C836    1.406   .     A
C829   C831    1.415   .     A
C830   C832    1.415   .     A
C830   C309    1.408   1_556 S
C831   C833    1.415   .     A
C832   C837    1.406   .     A
C833   C835    1.406   .     A
C834   F852    1.359   .     S
C834   C313    1.390   1_556 S
C835   F854    1.359   .     S
C836   F853    1.359   .     S
C837   F855    1.359   .     S
C837   C314    1.390   1_556 S
C838   F856    1.359   .     S
C839   C842    1.403   .     A
C839   F846    1.359   .     S
C839   C725    1.385   1_655 S
C840   C842    1.403   .     A
C840   F847    1.359   .     S
C840   C722    1.385   1_655 S
C841   F848    1.359   .     S
Cu843  Cu844   2.673   .     S
Cu843  O865    1.965   .     S
Cu843  N861    2.009   .     S
Cu843  O867    1.975   .     S
Cu843  O869    1.975   .     S
Cu843  O863    1.965   .     S
Cu844  O870    1.975   .     S
Cu844  N862    2.009   .     S
Cu844  O866    1.965   .     S
Cu844  O868    1.975   .     S
Cu844  O864    1.965   .     S
C871   O924    1.289   .     A
C871   O921    1.289   .     A
C871   C872    1.449   .     S
C872   C896    1.403   .     A
C872   C899    1.403   .     A
C873   N920    1.367   .     A
C873   H915    1.082   .     S
C874   N919    1.367   .     A
C874   H916    1.082   .     S
C874   C527    1.415   1_565 S
C875   H917    1.082   .     S
C875   N920    1.367   .     A
C876   H918    1.082   .     S
C876   N919    1.367   .     A
C876   C525    1.415   1_565 S
C877   O928    1.294   .     A
C877   O925    1.293   .     A
C877   C883    1.467   .     S
C878   O927    1.294   .     A
C878   C881    1.467   .     S
C878   O926    1.293   .     A
C879   C881    1.405   .     A
C879   F903    1.360   .     S
C879   C890    1.399   .     A
C880   C891    1.399   .     A
C880   F907    1.360   .     S
C880   C883    1.405   .     A
C881   C884    1.405   .     A
C882   O922    1.289   .     A
C882   C900    1.449   .     S
C882   O923    1.289   .     A
C883   C885    1.405   .     A
C884   F908    1.360   .     S
C884   C886    1.399   .     A
C885   F909    1.360   .     S
C885   C887    1.399   .     A
C886   C888    1.415   .     A
C886   C892    1.406   .     A
C887   C894    1.406   .     A
C887   C889    1.415   .     A
C888   C890    1.415   .     A
C888   C367    1.408   1_556 S
C889   C891    1.415   .     A
C890   C895    1.406   .     A
C891   C893    1.406   .     A
C892   F910    1.359   .     S
C892   C371    1.390   1_556 S
C893   F912    1.359   .     S
C894   F911    1.359   .     S
C895   F913    1.359   .     S
C895   C372    1.390   1_556 S
C896   F914    1.359   .     S
C896   C1014   1.385   1_455 S
C897   C900    1.403   .     A
C897   F904    1.359   .     S
C897   C957    1.385   .     S
C898   C900    1.403   .     A
C898   F905    1.359   .     S
C898   C954    1.385   .     S
C899   F906    1.359   .     S
C899   C1013   1.385   1_455 S
Cu901  Cu902   2.673   .     S
Cu901  O923    1.965   .     S
Cu901  N919    2.009   .     S
Cu901  O925    1.975   .     S
Cu901  O927    1.975   .     S
Cu901  O921    1.965   .     S
Cu902  O928    1.975   .     S
Cu902  N920    2.009   .     S
Cu902  O924    1.965   .     S
Cu902  O926    1.975   .     S
Cu902  O922    1.965   .     S
C929   O982    1.289   .     A
C929   O979    1.289   .     A
C929   C930    1.449   .     S
C930   C954    1.403   .     A
C930   C957    1.403   .     A
C931   N978    1.367   .     A
C931   H973    1.082   .     S
C932   N977    1.367   .     A
C932   H974    1.082   .     S
C932   C585    1.415   1_565 S
C933   H975    1.082   .     S
C933   N978    1.367   .     A
C934   H976    1.082   .     S
C934   N977    1.367   .     A
C934   C583    1.415   1_565 S
C935   O986    1.294   .     A
C935   O983    1.293   .     A
C935   C941    1.467   .     S
C936   O985    1.294   .     A
C936   C939    1.467   .     S
C936   O984    1.293   .     A
C937   C939    1.405   .     A
C937   F961    1.360   .     S
C937   C948    1.399   .     A
C938   C949    1.399   .     A
C938   F965    1.360   .     S
C938   C941    1.405   .     A
C939   C942    1.405   .     A
C940   O980    1.289   .     A
C940   C958    1.449   .     S
C940   O981    1.289   .     A
C941   C943    1.405   .     A
C942   F966    1.360   .     S
C942   C944    1.399   .     A
C943   F967    1.360   .     S
C943   C945    1.399   .     A
C944   C946    1.415   .     A
C944   C950    1.406   .     A
C945   C952    1.406   .     A
C945   C947    1.415   .     A
C946   C948    1.415   .     A
C946   C425    1.408   1_556 S
C947   C949    1.415   .     A
C948   C953    1.406   .     A
C949   C951    1.406   .     A
C950   F968    1.359   .     S
C950   C429    1.390   1_556 S
C951   F970    1.359   .     S
C952   F969    1.359   .     S
C953   F971    1.359   .     S
C953   C430    1.390   1_556 S
C954   F972    1.359   .     S
C955   C958    1.403   .     A
C955   F962    1.359   .     S
C955   C1015   1.385   .     S
C956   C958    1.403   .     A
C956   F963    1.359   .     S
C956   C1012   1.385   .     S
C957   F964    1.359   .     S
Cu959  Cu960   2.673   .     S
Cu959  O981    1.965   .     S
Cu959  N977    2.009   .     S
Cu959  O983    1.975   .     S
Cu959  O985    1.975   .     S
Cu959  O979    1.965   .     S
Cu960  O986    1.975   .     S
Cu960  N978    2.009   .     S
Cu960  O982    1.965   .     S
Cu960  O984    1.975   .     S
Cu960  O980    1.965   .     S
C987   O1040   1.289   .     A
C987   O1037   1.289   .     A
C987   C988    1.449   .     S
C988   C1012   1.403   .     A
C988   C1015   1.403   .     A
C989   N1036   1.367   .     A
C989   H1031   1.082   .     S
C990   N1035   1.367   .     A
C990   H1032   1.082   .     S
C990   C643    1.415   1_565 S
C991   H1033   1.082   .     S
C991   N1036   1.367   .     A
C992   H1034   1.082   .     S
C992   N1035   1.367   .     A
C992   C641    1.415   1_565 S
C993   O1044   1.294   .     A
C993   O1041   1.293   .     A
C993   C999    1.467   .     S
C994   O1043   1.294   .     A
C994   C997    1.467   .     S
C994   O1042   1.293   .     A
C995   C997    1.405   .     A
C995   F1019   1.360   .     S
C995   C1006   1.399   .     A
C996   C1007   1.399   .     A
C996   F1023   1.360   .     S
C996   C999    1.405   .     A
C997   C1000   1.405   .     A
C998   O1038   1.289   .     A
C998   C1016   1.449   .     S
C998   O1039   1.289   .     A
C999   C1001   1.405   .     A
C1000  F1024   1.360   .     S
C1000  C1002   1.399   .     A
C1001  F1025   1.360   .     S
C1001  C1003   1.399   .     A
C1002  C1004   1.415   .     A
C1002  C1008   1.406   .     A
C1003  C1010   1.406   .     A
C1003  C1005   1.415   .     A
C1004  C1006   1.415   .     A
C1004  C483    1.408   1_556 S
C1005  C1007   1.415   .     A
C1006  C1011   1.406   .     A
C1007  C1009   1.406   .     A
C1008  F1026   1.359   .     S
C1008  C487    1.390   1_556 S
C1009  F1028   1.359   .     S
C1010  F1027   1.359   .     S
C1011  F1029   1.359   .     S
C1011  C488    1.390   1_556 S
C1012  F1030   1.359   .     S
C1013  C1016   1.403   .     A
C1013  F1020   1.359   .     S
C1013  C899    1.385   1_655 S
C1014  C1016   1.403   .     A
C1014  F1021   1.359   .     S
C1014  C896    1.385   1_655 S
C1015  F1022   1.359   .     S
Cu1017 Cu1018  2.673   .     S
Cu1017 O1039   1.965   .     S
Cu1017 N1035   2.009   .     S
Cu1017 O1041   1.975   .     S
Cu1017 O1043   1.975   .     S
Cu1017 O1037   1.965   .     S
Cu1018 O1044   1.975   .     S
Cu1018 N1036   2.009   .     S
Cu1018 O1040   1.965   .     S
Cu1018 O1042   1.975   .     S
Cu1018 O1038   1.965   .     S
