data_str_m2_o10_o18_pcu_sym.17
_audit_creation_date              2020-01-03
_audit_creation_method            'Materials Studio'
_symmetry_space_group_name_H-M    'P1'
_symmetry_Int_Tables_number       1
_symmetry_cell_setting            triclinic
loop_
_symmetry_equiv_pos_as_xyz
  x,y,z
_cell_length_a                    22.2554
_cell_length_b                    26.2829
_cell_length_c                    31.6411
_cell_angle_alpha                 94.2683
_cell_angle_beta                  75.0509
_cell_angle_gamma                 102.8118
loop_
_atom_site_label
_atom_site_type_symbol
_atom_site_fract_x
_atom_site_fract_y
_atom_site_fract_z
_atom_site_U_iso_or_equiv
_atom_site_adp_type
_atom_site_occupancy
C1     C     0.18167   0.26639   0.25071   0.00000  Uiso   1.00
C2     C     0.20537   0.17071   0.16688   0.00000  Uiso   1.00
C3     C     0.10456   0.15864   0.38086   0.00000  Uiso   1.00
C4     C     0.22880   0.17809   0.11952   0.00000  Uiso   1.00
C5     C     0.02265   0.12658   0.44513   0.00000  Uiso   1.00
C6     C     0.30719   0.21984   0.05729   0.00000  Uiso   1.00
C7     C     0.04121   0.13618   0.40043   0.00000  Uiso   1.00
C8     C     0.29014   0.20612   0.10112   0.00000  Uiso   1.00
C9     C     0.14823   0.17389   0.40669   0.00000  Uiso   1.00
C10    C     0.18575   0.16202   0.09339   0.00000  Uiso   1.00
C11    C     0.13065   0.16540   0.45198   0.00000  Uiso   1.00
C12    C     0.15179   0.06684   0.24931   0.00000  Uiso   1.00
C13    C     0.20072   0.17707   0.04954   0.00000  Uiso   1.00
C14    C     0.06702   0.14000   0.47077   0.00000  Uiso   1.00
C15    C     0.26293   0.20608   0.03158   0.00000  Uiso   1.00
C16    C     0.17488   0.17971   0.47867   0.00000  Uiso   1.00
C17    C     0.15558   0.16491   0.02339   0.00000  Uiso   1.00
C18    C     0.27527   0.02342   0.18209   0.00000  Uiso   1.00
C19    C     0.06048   0.31506   0.31985   0.00000  Uiso   1.00
C20    C     0.09150   0.13948   0.04066   0.00000  Uiso   1.00
C21    C     0.23742   0.20893   0.46232   0.00000  Uiso   1.00
C22    C     0.04831   0.12760   0.01483   0.00000  Uiso   1.00
C23    C     0.28026   0.22182   0.48836   0.00000  Uiso   1.00
C24    C     0.19223   0.32142   0.24599   0.00000  Uiso   1.00
C25    C     0.14192   0.01168   0.25471   0.00000  Uiso   1.00
C26    C     0.12799   0.16299   0.33316   0.00000  Uiso   1.00
Cu27   Cu    0.10737   0.16108   0.24517   0.00000  Uiso   1.00
Cu28   Cu    0.22596   0.17225   0.25484   0.00000  Uiso   1.00
H29    H     0.33303   0.10834   0.02956   0.00000  Uiso   1.00
H30    H     0.25481   0.22384   0.42967   0.00000  Uiso   1.00
H31    H     0.00085   0.20391   0.28505   0.00000  Uiso   1.00
H32    H     0.33267   0.12974   0.21473   0.00000  Uiso   1.00
H33    H     0.27760   0.04172   0.24821   0.00000  Uiso   1.00
H34    H     0.25107   0.05279   0.17413   0.00000  Uiso   1.00
H35    H     0.26300   0.31982   0.16369   0.00000  Uiso   1.00
H36    H     0.32750   0.03828   0.17163   0.00000  Uiso   1.00
H37    H     0.04434   0.32793   0.26034   0.00000  Uiso   1.00
H38    H     0.01173   0.29097   0.33092   0.00000  Uiso   1.00
H39    H     0.06107   0.02166   0.33431   0.00000  Uiso   1.00
H40    H     0.32755   0.24437   0.47443   0.00000  Uiso   1.00
H41    H     0.09362   0.29697   0.33169   0.00000  Uiso   1.00
H42    H     0.14033   0.13836   0.10864   0.00000  Uiso   1.00
H43    H     0.19650   0.19052   0.39014   0.00000  Uiso   1.00
H44    H     0.32401   0.21897   0.12091   0.00000  Uiso   1.00
H45    H     0.00674   0.12421   0.38100   0.00000  Uiso   1.00
H46    H     0.30709   0.10782   0.45959   0.00000  Uiso   1.00
H47    H     0.02139   0.24208   0.04363   0.00000  Uiso   1.00
H48    H     0.07218   0.12897   0.07442   0.00000  Uiso   1.00
N49    N     0.31506   0.18068   0.26212   0.00000  Uiso   1.00
N50    N     0.01827   0.15265   0.23788   0.00000  Uiso   1.00
N51    N     0.25675   0.01404   0.22860   0.00000  Uiso   1.00
N52    N     0.07830   0.31715   0.27258   0.00000  Uiso   1.00
O53    O     0.12815   0.23809   0.24686   0.00000  Uiso   1.00
O54    O     0.20518   0.09524   0.25314   0.00000  Uiso   1.00
O55    O     0.22829   0.24753   0.25503   0.00000  Uiso   1.00
O56    O     0.10504   0.08580   0.24498   0.00000  Uiso   1.00
O57    O     0.08851   0.15930   0.30855   0.00000  Uiso   1.00
O58    O     0.24482   0.17403   0.19146   0.00000  Uiso   1.00
O59    O     0.18866   0.16874   0.31671   0.00000  Uiso   1.00
O60    O     0.14468   0.16460   0.18329   0.00000  Uiso   1.00
C61    C     0.51501   0.26639   0.25071   0.00000  Uiso   1.00
C62    C     0.53870   0.17071   0.16688   0.00000  Uiso   1.00
C63    C     0.43789   0.15864   0.38086   0.00000  Uiso   1.00
C64    C     0.56213   0.17809   0.11952   0.00000  Uiso   1.00
C65    C     0.35599   0.12658   0.44513   0.00000  Uiso   1.00
C66    C     0.64052   0.21984   0.05729   0.00000  Uiso   1.00
C67    C     0.37454   0.13618   0.40043   0.00000  Uiso   1.00
C68    C     0.62347   0.20612   0.10112   0.00000  Uiso   1.00
C69    C     0.48156   0.17389   0.40669   0.00000  Uiso   1.00
C70    C     0.51908   0.16202   0.09339   0.00000  Uiso   1.00
C71    C     0.46398   0.16540   0.45198   0.00000  Uiso   1.00
C72    C     0.48512   0.06684   0.24931   0.00000  Uiso   1.00
C73    C     0.53405   0.17707   0.04954   0.00000  Uiso   1.00
C74    C     0.40036   0.14000   0.47077   0.00000  Uiso   1.00
C75    C     0.59626   0.20608   0.03158   0.00000  Uiso   1.00
C76    C     0.50822   0.17971   0.47867   0.00000  Uiso   1.00
C77    C     0.48892   0.16491   0.02339   0.00000  Uiso   1.00
C78    C     0.60860   0.02342   0.18209   0.00000  Uiso   1.00
C79    C     0.39382   0.31506   0.31985   0.00000  Uiso   1.00
C80    C     0.42483   0.13948   0.04066   0.00000  Uiso   1.00
C81    C     0.57076   0.20893   0.46232   0.00000  Uiso   1.00
C82    C     0.38165   0.12760   0.01483   0.00000  Uiso   1.00
C83    C     0.61359   0.22182   0.48836   0.00000  Uiso   1.00
C84    C     0.52556   0.32142   0.24599   0.00000  Uiso   1.00
C85    C     0.47525   0.01168   0.25471   0.00000  Uiso   1.00
C86    C     0.46133   0.16299   0.33316   0.00000  Uiso   1.00
Cu87   Cu    0.44071   0.16108   0.24517   0.00000  Uiso   1.00
Cu88   Cu    0.55929   0.17225   0.25484   0.00000  Uiso   1.00
H89    H     0.66636   0.10834   0.02956   0.00000  Uiso   1.00
H90    H     0.58815   0.22384   0.42967   0.00000  Uiso   1.00
H91    H     0.33419   0.20391   0.28505   0.00000  Uiso   1.00
H92    H     0.66600   0.12974   0.21473   0.00000  Uiso   1.00
H93    H     0.61093   0.04172   0.24821   0.00000  Uiso   1.00
H94    H     0.58440   0.05279   0.17413   0.00000  Uiso   1.00
H95    H     0.59633   0.31982   0.16369   0.00000  Uiso   1.00
H96    H     0.66083   0.03828   0.17163   0.00000  Uiso   1.00
H97    H     0.37767   0.32793   0.26034   0.00000  Uiso   1.00
H98    H     0.34506   0.29097   0.33092   0.00000  Uiso   1.00
H99    H     0.39440   0.02166   0.33431   0.00000  Uiso   1.00
H100   H     0.66089   0.24437   0.47443   0.00000  Uiso   1.00
H101   H     0.42696   0.29697   0.33169   0.00000  Uiso   1.00
H102   H     0.47366   0.13836   0.10864   0.00000  Uiso   1.00
H103   H     0.52983   0.19052   0.39014   0.00000  Uiso   1.00
H104   H     0.65734   0.21897   0.12091   0.00000  Uiso   1.00
H105   H     0.34007   0.12421   0.38100   0.00000  Uiso   1.00
H106   H     0.64043   0.10782   0.45959   0.00000  Uiso   1.00
H107   H     0.35473   0.24208   0.04363   0.00000  Uiso   1.00
H108   H     0.40551   0.12897   0.07442   0.00000  Uiso   1.00
N109   N     0.64839   0.18068   0.26212   0.00000  Uiso   1.00
N110   N     0.35161   0.15265   0.23788   0.00000  Uiso   1.00
N111   N     0.59008   0.01404   0.22860   0.00000  Uiso   1.00
N112   N     0.41164   0.31715   0.27258   0.00000  Uiso   1.00
O113   O     0.46148   0.23809   0.24686   0.00000  Uiso   1.00
O114   O     0.53852   0.09524   0.25314   0.00000  Uiso   1.00
O115   O     0.56163   0.24753   0.25503   0.00000  Uiso   1.00
O116   O     0.43837   0.08580   0.24498   0.00000  Uiso   1.00
O117   O     0.42185   0.15930   0.30855   0.00000  Uiso   1.00
O118   O     0.57815   0.17403   0.19146   0.00000  Uiso   1.00
O119   O     0.52199   0.16874   0.31671   0.00000  Uiso   1.00
O120   O     0.47801   0.16460   0.18329   0.00000  Uiso   1.00
C121   C     0.84834   0.26639   0.25071   0.00000  Uiso   1.00
C122   C     0.87203   0.17071   0.16688   0.00000  Uiso   1.00
C123   C     0.77122   0.15864   0.38086   0.00000  Uiso   1.00
C124   C     0.89547   0.17809   0.11952   0.00000  Uiso   1.00
C125   C     0.68932   0.12658   0.44513   0.00000  Uiso   1.00
C126   C     0.97386   0.21984   0.05729   0.00000  Uiso   1.00
C127   C     0.70787   0.13618   0.40043   0.00000  Uiso   1.00
C128   C     0.95681   0.20612   0.10112   0.00000  Uiso   1.00
C129   C     0.81490   0.17389   0.40669   0.00000  Uiso   1.00
C130   C     0.85242   0.16202   0.09339   0.00000  Uiso   1.00
C131   C     0.79732   0.16540   0.45198   0.00000  Uiso   1.00
C132   C     0.81845   0.06684   0.24931   0.00000  Uiso   1.00
C133   C     0.86738   0.17707   0.04954   0.00000  Uiso   1.00
C134   C     0.73369   0.14000   0.47077   0.00000  Uiso   1.00
C135   C     0.92959   0.20608   0.03158   0.00000  Uiso   1.00
C136   C     0.84155   0.17971   0.47867   0.00000  Uiso   1.00
C137   C     0.82225   0.16491   0.02339   0.00000  Uiso   1.00
C138   C     0.94193   0.02342   0.18209   0.00000  Uiso   1.00
C139   C     0.72715   0.31506   0.31985   0.00000  Uiso   1.00
C140   C     0.75816   0.13948   0.04066   0.00000  Uiso   1.00
C141   C     0.90409   0.20893   0.46232   0.00000  Uiso   1.00
C142   C     0.71498   0.12760   0.01483   0.00000  Uiso   1.00
C143   C     0.94693   0.22182   0.48836   0.00000  Uiso   1.00
C144   C     0.85889   0.32142   0.24599   0.00000  Uiso   1.00
C145   C     0.80858   0.01168   0.25471   0.00000  Uiso   1.00
C146   C     0.79466   0.16299   0.33316   0.00000  Uiso   1.00
Cu147  Cu    0.77404   0.16108   0.24517   0.00000  Uiso   1.00
Cu148  Cu    0.89263   0.17225   0.25484   0.00000  Uiso   1.00
H149   H     0.99969   0.10834   0.02956   0.00000  Uiso   1.00
H150   H     0.92148   0.22384   0.42967   0.00000  Uiso   1.00
H151   H     0.66752   0.20391   0.28505   0.00000  Uiso   1.00
H152   H     0.99933   0.12974   0.21473   0.00000  Uiso   1.00
H153   H     0.94426   0.04172   0.24821   0.00000  Uiso   1.00
H154   H     0.91773   0.05279   0.17413   0.00000  Uiso   1.00
H155   H     0.92967   0.31982   0.16369   0.00000  Uiso   1.00
H156   H     0.99416   0.03828   0.17163   0.00000  Uiso   1.00
H157   H     0.71100   0.32793   0.26034   0.00000  Uiso   1.00
H158   H     0.67840   0.29097   0.33092   0.00000  Uiso   1.00
H159   H     0.72773   0.02166   0.33431   0.00000  Uiso   1.00
H160   H     0.99422   0.24437   0.47443   0.00000  Uiso   1.00
H161   H     0.76029   0.29697   0.33169   0.00000  Uiso   1.00
H162   H     0.80699   0.13836   0.10864   0.00000  Uiso   1.00
H163   H     0.86316   0.19052   0.39014   0.00000  Uiso   1.00
H164   H     0.99067   0.21897   0.12091   0.00000  Uiso   1.00
H165   H     0.67341   0.12421   0.38100   0.00000  Uiso   1.00
H166   H     0.97376   0.10782   0.45959   0.00000  Uiso   1.00
H167   H     0.68806   0.24208   0.04363   0.00000  Uiso   1.00
H168   H     0.73885   0.12897   0.07442   0.00000  Uiso   1.00
N169   N     0.98173   0.18068   0.26212   0.00000  Uiso   1.00
N170   N     0.68494   0.15265   0.23788   0.00000  Uiso   1.00
N171   N     0.92342   0.01404   0.22860   0.00000  Uiso   1.00
N172   N     0.74497   0.31715   0.27258   0.00000  Uiso   1.00
O173   O     0.79482   0.23809   0.24686   0.00000  Uiso   1.00
O174   O     0.87185   0.09524   0.25314   0.00000  Uiso   1.00
O175   O     0.89496   0.24753   0.25503   0.00000  Uiso   1.00
O176   O     0.77171   0.08580   0.24498   0.00000  Uiso   1.00
O177   O     0.75518   0.15930   0.30855   0.00000  Uiso   1.00
O178   O     0.91149   0.17403   0.19146   0.00000  Uiso   1.00
O179   O     0.85532   0.16874   0.31671   0.00000  Uiso   1.00
O180   O     0.81134   0.16460   0.18329   0.00000  Uiso   1.00
C181   C     0.18167   0.59972   0.25071   0.00000  Uiso   1.00
C182   C     0.20537   0.50404   0.16688   0.00000  Uiso   1.00
C183   C     0.10456   0.49197   0.38086   0.00000  Uiso   1.00
C184   C     0.22880   0.51143   0.11952   0.00000  Uiso   1.00
C185   C     0.02265   0.45992   0.44513   0.00000  Uiso   1.00
C186   C     0.30719   0.55318   0.05729   0.00000  Uiso   1.00
C187   C     0.04121   0.46951   0.40043   0.00000  Uiso   1.00
C188   C     0.29014   0.53945   0.10112   0.00000  Uiso   1.00
C189   C     0.14823   0.50722   0.40669   0.00000  Uiso   1.00
C190   C     0.18575   0.49535   0.09339   0.00000  Uiso   1.00
C191   C     0.13065   0.49874   0.45198   0.00000  Uiso   1.00
C192   C     0.15179   0.40017   0.24931   0.00000  Uiso   1.00
C193   C     0.20072   0.51040   0.04954   0.00000  Uiso   1.00
C194   C     0.06702   0.47333   0.47077   0.00000  Uiso   1.00
C195   C     0.26293   0.53942   0.03158   0.00000  Uiso   1.00
C196   C     0.17488   0.51305   0.47867   0.00000  Uiso   1.00
C197   C     0.15558   0.49824   0.02339   0.00000  Uiso   1.00
C198   C     0.27527   0.35675   0.18209   0.00000  Uiso   1.00
C199   C     0.06048   0.64839   0.31985   0.00000  Uiso   1.00
C200   C     0.09150   0.47282   0.04066   0.00000  Uiso   1.00
C201   C     0.23742   0.54226   0.46232   0.00000  Uiso   1.00
C202   C     0.04831   0.46093   0.01483   0.00000  Uiso   1.00
C203   C     0.28026   0.55516   0.48836   0.00000  Uiso   1.00
C204   C     0.19223   0.65475   0.24599   0.00000  Uiso   1.00
C205   C     0.14192   0.34501   0.25471   0.00000  Uiso   1.00
C206   C     0.12799   0.49633   0.33316   0.00000  Uiso   1.00
Cu207  Cu    0.10737   0.49441   0.24517   0.00000  Uiso   1.00
Cu208  Cu    0.22596   0.50559   0.25484   0.00000  Uiso   1.00
H209   H     0.33303   0.44167   0.02956   0.00000  Uiso   1.00
H210   H     0.25481   0.55717   0.42967   0.00000  Uiso   1.00
H211   H     0.00085   0.53724   0.28505   0.00000  Uiso   1.00
H212   H     0.33267   0.46308   0.21473   0.00000  Uiso   1.00
H213   H     0.27760   0.37505   0.24821   0.00000  Uiso   1.00
H214   H     0.25107   0.38612   0.17413   0.00000  Uiso   1.00
H215   H     0.26300   0.65316   0.16369   0.00000  Uiso   1.00
H216   H     0.32750   0.37162   0.17163   0.00000  Uiso   1.00
H217   H     0.04434   0.66126   0.26034   0.00000  Uiso   1.00
H218   H     0.01173   0.62430   0.33092   0.00000  Uiso   1.00
H219   H     0.06107   0.35499   0.33431   0.00000  Uiso   1.00
H220   H     0.32755   0.57770   0.47443   0.00000  Uiso   1.00
H221   H     0.09362   0.63030   0.33169   0.00000  Uiso   1.00
H222   H     0.14033   0.47169   0.10864   0.00000  Uiso   1.00
H223   H     0.19650   0.52385   0.39014   0.00000  Uiso   1.00
H224   H     0.32401   0.55231   0.12091   0.00000  Uiso   1.00
H225   H     0.00674   0.45755   0.38100   0.00000  Uiso   1.00
H226   H     0.30709   0.44116   0.45959   0.00000  Uiso   1.00
H227   H     0.02139   0.57542   0.04363   0.00000  Uiso   1.00
H228   H     0.07218   0.46230   0.07442   0.00000  Uiso   1.00
N229   N     0.31506   0.51401   0.26212   0.00000  Uiso   1.00
N230   N     0.01827   0.48599   0.23788   0.00000  Uiso   1.00
N231   N     0.25675   0.34738   0.22860   0.00000  Uiso   1.00
N232   N     0.07830   0.65048   0.27258   0.00000  Uiso   1.00
O233   O     0.12815   0.57142   0.24686   0.00000  Uiso   1.00
O234   O     0.20518   0.42858   0.25314   0.00000  Uiso   1.00
O235   O     0.22829   0.58086   0.25503   0.00000  Uiso   1.00
O236   O     0.10504   0.41914   0.24498   0.00000  Uiso   1.00
O237   O     0.08851   0.49263   0.30855   0.00000  Uiso   1.00
O238   O     0.24482   0.50737   0.19146   0.00000  Uiso   1.00
O239   O     0.18866   0.50207   0.31671   0.00000  Uiso   1.00
O240   O     0.14468   0.49793   0.18329   0.00000  Uiso   1.00
C241   C     0.51501   0.59972   0.25071   0.00000  Uiso   1.00
C242   C     0.53870   0.50404   0.16688   0.00000  Uiso   1.00
C243   C     0.43789   0.49197   0.38086   0.00000  Uiso   1.00
C244   C     0.56213   0.51143   0.11952   0.00000  Uiso   1.00
C245   C     0.35599   0.45992   0.44513   0.00000  Uiso   1.00
C246   C     0.64052   0.55318   0.05729   0.00000  Uiso   1.00
C247   C     0.37454   0.46951   0.40043   0.00000  Uiso   1.00
C248   C     0.62347   0.53945   0.10112   0.00000  Uiso   1.00
C249   C     0.48156   0.50722   0.40669   0.00000  Uiso   1.00
C250   C     0.51908   0.49535   0.09339   0.00000  Uiso   1.00
C251   C     0.46398   0.49874   0.45198   0.00000  Uiso   1.00
C252   C     0.48512   0.40017   0.24931   0.00000  Uiso   1.00
C253   C     0.53405   0.51040   0.04954   0.00000  Uiso   1.00
C254   C     0.40036   0.47333   0.47077   0.00000  Uiso   1.00
C255   C     0.59626   0.53942   0.03158   0.00000  Uiso   1.00
C256   C     0.50822   0.51305   0.47867   0.00000  Uiso   1.00
C257   C     0.48892   0.49824   0.02339   0.00000  Uiso   1.00
C258   C     0.60860   0.35675   0.18209   0.00000  Uiso   1.00
C259   C     0.39382   0.64839   0.31985   0.00000  Uiso   1.00
C260   C     0.42483   0.47282   0.04066   0.00000  Uiso   1.00
C261   C     0.57076   0.54226   0.46232   0.00000  Uiso   1.00
C262   C     0.38165   0.46093   0.01483   0.00000  Uiso   1.00
C263   C     0.61359   0.55516   0.48836   0.00000  Uiso   1.00
C264   C     0.52556   0.65475   0.24599   0.00000  Uiso   1.00
C265   C     0.47525   0.34501   0.25471   0.00000  Uiso   1.00
C266   C     0.46133   0.49633   0.33316   0.00000  Uiso   1.00
Cu267  Cu    0.44071   0.49441   0.24517   0.00000  Uiso   1.00
Cu268  Cu    0.55929   0.50559   0.25484   0.00000  Uiso   1.00
H269   H     0.66636   0.44167   0.02956   0.00000  Uiso   1.00
H270   H     0.58815   0.55717   0.42967   0.00000  Uiso   1.00
H271   H     0.33419   0.53724   0.28505   0.00000  Uiso   1.00
H272   H     0.66600   0.46308   0.21473   0.00000  Uiso   1.00
H273   H     0.61093   0.37505   0.24821   0.00000  Uiso   1.00
H274   H     0.58440   0.38612   0.17413   0.00000  Uiso   1.00
H275   H     0.59633   0.65316   0.16369   0.00000  Uiso   1.00
H276   H     0.66083   0.37162   0.17163   0.00000  Uiso   1.00
H277   H     0.37767   0.66126   0.26034   0.00000  Uiso   1.00
H278   H     0.34506   0.62430   0.33092   0.00000  Uiso   1.00
H279   H     0.39440   0.35499   0.33431   0.00000  Uiso   1.00
H280   H     0.66089   0.57770   0.47443   0.00000  Uiso   1.00
H281   H     0.42696   0.63030   0.33169   0.00000  Uiso   1.00
H282   H     0.47366   0.47169   0.10864   0.00000  Uiso   1.00
H283   H     0.52983   0.52385   0.39014   0.00000  Uiso   1.00
H284   H     0.65734   0.55231   0.12091   0.00000  Uiso   1.00
H285   H     0.34007   0.45755   0.38100   0.00000  Uiso   1.00
H286   H     0.64043   0.44116   0.45959   0.00000  Uiso   1.00
H287   H     0.35473   0.57542   0.04363   0.00000  Uiso   1.00
H288   H     0.40551   0.46230   0.07442   0.00000  Uiso   1.00
N289   N     0.64839   0.51401   0.26212   0.00000  Uiso   1.00
N290   N     0.35161   0.48599   0.23788   0.00000  Uiso   1.00
N291   N     0.59008   0.34738   0.22860   0.00000  Uiso   1.00
N292   N     0.41164   0.65048   0.27258   0.00000  Uiso   1.00
O293   O     0.46148   0.57142   0.24686   0.00000  Uiso   1.00
O294   O     0.53852   0.42858   0.25314   0.00000  Uiso   1.00
O295   O     0.56163   0.58086   0.25503   0.00000  Uiso   1.00
O296   O     0.43837   0.41914   0.24498   0.00000  Uiso   1.00
O297   O     0.42185   0.49263   0.30855   0.00000  Uiso   1.00
O298   O     0.57815   0.50737   0.19146   0.00000  Uiso   1.00
O299   O     0.52199   0.50207   0.31671   0.00000  Uiso   1.00
O300   O     0.47801   0.49793   0.18329   0.00000  Uiso   1.00
C301   C     0.84834   0.59972   0.25071   0.00000  Uiso   1.00
C302   C     0.87203   0.50404   0.16688   0.00000  Uiso   1.00
C303   C     0.77122   0.49197   0.38086   0.00000  Uiso   1.00
C304   C     0.89547   0.51143   0.11952   0.00000  Uiso   1.00
C305   C     0.68932   0.45992   0.44513   0.00000  Uiso   1.00
C306   C     0.97386   0.55318   0.05729   0.00000  Uiso   1.00
C307   C     0.70787   0.46951   0.40043   0.00000  Uiso   1.00
C308   C     0.95681   0.53945   0.10112   0.00000  Uiso   1.00
C309   C     0.81490   0.50722   0.40669   0.00000  Uiso   1.00
C310   C     0.85242   0.49535   0.09339   0.00000  Uiso   1.00
C311   C     0.79732   0.49874   0.45198   0.00000  Uiso   1.00
C312   C     0.81845   0.40017   0.24931   0.00000  Uiso   1.00
C313   C     0.86738   0.51040   0.04954   0.00000  Uiso   1.00
C314   C     0.73369   0.47333   0.47077   0.00000  Uiso   1.00
C315   C     0.92959   0.53942   0.03158   0.00000  Uiso   1.00
C316   C     0.84155   0.51305   0.47867   0.00000  Uiso   1.00
C317   C     0.82225   0.49824   0.02339   0.00000  Uiso   1.00
C318   C     0.94193   0.35675   0.18209   0.00000  Uiso   1.00
C319   C     0.72715   0.64839   0.31985   0.00000  Uiso   1.00
C320   C     0.75816   0.47282   0.04066   0.00000  Uiso   1.00
C321   C     0.90409   0.54226   0.46232   0.00000  Uiso   1.00
C322   C     0.71498   0.46093   0.01483   0.00000  Uiso   1.00
C323   C     0.94693   0.55516   0.48836   0.00000  Uiso   1.00
C324   C     0.85889   0.65475   0.24599   0.00000  Uiso   1.00
C325   C     0.80858   0.34501   0.25471   0.00000  Uiso   1.00
C326   C     0.79466   0.49633   0.33316   0.00000  Uiso   1.00
Cu327  Cu    0.77404   0.49441   0.24517   0.00000  Uiso   1.00
Cu328  Cu    0.89263   0.50559   0.25484   0.00000  Uiso   1.00
H329   H     0.99969   0.44167   0.02956   0.00000  Uiso   1.00
H330   H     0.92148   0.55717   0.42967   0.00000  Uiso   1.00
H331   H     0.66752   0.53724   0.28505   0.00000  Uiso   1.00
H332   H     0.99933   0.46308   0.21473   0.00000  Uiso   1.00
H333   H     0.94426   0.37505   0.24821   0.00000  Uiso   1.00
H334   H     0.91773   0.38612   0.17413   0.00000  Uiso   1.00
H335   H     0.92967   0.65316   0.16369   0.00000  Uiso   1.00
H336   H     0.99416   0.37162   0.17163   0.00000  Uiso   1.00
H337   H     0.71100   0.66126   0.26034   0.00000  Uiso   1.00
H338   H     0.67840   0.62430   0.33092   0.00000  Uiso   1.00
H339   H     0.72773   0.35499   0.33431   0.00000  Uiso   1.00
H340   H     0.99422   0.57770   0.47443   0.00000  Uiso   1.00
H341   H     0.76029   0.63030   0.33169   0.00000  Uiso   1.00
H342   H     0.80699   0.47169   0.10864   0.00000  Uiso   1.00
H343   H     0.86316   0.52385   0.39014   0.00000  Uiso   1.00
H344   H     0.99067   0.55231   0.12091   0.00000  Uiso   1.00
H345   H     0.67341   0.45755   0.38100   0.00000  Uiso   1.00
H346   H     0.97376   0.44116   0.45959   0.00000  Uiso   1.00
H347   H     0.68806   0.57542   0.04363   0.00000  Uiso   1.00
H348   H     0.73885   0.46230   0.07442   0.00000  Uiso   1.00
N349   N     0.98173   0.51401   0.26212   0.00000  Uiso   1.00
N350   N     0.68494   0.48599   0.23788   0.00000  Uiso   1.00
N351   N     0.92342   0.34738   0.22860   0.00000  Uiso   1.00
N352   N     0.74497   0.65048   0.27258   0.00000  Uiso   1.00
O353   O     0.79482   0.57142   0.24686   0.00000  Uiso   1.00
O354   O     0.87185   0.42858   0.25314   0.00000  Uiso   1.00
O355   O     0.89496   0.58086   0.25503   0.00000  Uiso   1.00
O356   O     0.77171   0.41914   0.24498   0.00000  Uiso   1.00
O357   O     0.75518   0.49263   0.30855   0.00000  Uiso   1.00
O358   O     0.91149   0.50737   0.19146   0.00000  Uiso   1.00
O359   O     0.85532   0.50207   0.31671   0.00000  Uiso   1.00
O360   O     0.81134   0.49793   0.18329   0.00000  Uiso   1.00
C361   C     0.18167   0.93306   0.25071   0.00000  Uiso   1.00
C362   C     0.20537   0.83737   0.16688   0.00000  Uiso   1.00
C363   C     0.10456   0.82531   0.38086   0.00000  Uiso   1.00
C364   C     0.22880   0.84476   0.11952   0.00000  Uiso   1.00
C365   C     0.02265   0.79325   0.44513   0.00000  Uiso   1.00
C366   C     0.30719   0.88651   0.05729   0.00000  Uiso   1.00
C367   C     0.04121   0.80285   0.40043   0.00000  Uiso   1.00
C368   C     0.29014   0.87278   0.10112   0.00000  Uiso   1.00
C369   C     0.14823   0.84056   0.40669   0.00000  Uiso   1.00
C370   C     0.18575   0.82868   0.09339   0.00000  Uiso   1.00
C371   C     0.13065   0.83207   0.45198   0.00000  Uiso   1.00
C372   C     0.15179   0.73351   0.24931   0.00000  Uiso   1.00
C373   C     0.20072   0.84373   0.04954   0.00000  Uiso   1.00
C374   C     0.06702   0.80667   0.47077   0.00000  Uiso   1.00
C375   C     0.26293   0.87275   0.03158   0.00000  Uiso   1.00
C376   C     0.17488   0.84638   0.47867   0.00000  Uiso   1.00
C377   C     0.15558   0.83158   0.02339   0.00000  Uiso   1.00
C378   C     0.27527   0.69008   0.18209   0.00000  Uiso   1.00
C379   C     0.06048   0.98173   0.31985   0.00000  Uiso   1.00
C380   C     0.09150   0.80615   0.04066   0.00000  Uiso   1.00
C381   C     0.23742   0.87560   0.46232   0.00000  Uiso   1.00
C382   C     0.04831   0.79426   0.01483   0.00000  Uiso   1.00
C383   C     0.28026   0.88849   0.48836   0.00000  Uiso   1.00
C384   C     0.19223   0.98809   0.24599   0.00000  Uiso   1.00
C385   C     0.14192   0.67835   0.25471   0.00000  Uiso   1.00
C386   C     0.12799   0.82966   0.33316   0.00000  Uiso   1.00
Cu387  Cu    0.10737   0.82775   0.24517   0.00000  Uiso   1.00
Cu388  Cu    0.22596   0.83892   0.25484   0.00000  Uiso   1.00
H389   H     0.33303   0.77500   0.02956   0.00000  Uiso   1.00
H390   H     0.25481   0.89051   0.42967   0.00000  Uiso   1.00
H391   H     0.00085   0.87057   0.28505   0.00000  Uiso   1.00
H392   H     0.33267   0.79641   0.21473   0.00000  Uiso   1.00
H393   H     0.27760   0.70838   0.24821   0.00000  Uiso   1.00
H394   H     0.25107   0.71945   0.17413   0.00000  Uiso   1.00
H395   H     0.26300   0.98649   0.16369   0.00000  Uiso   1.00
H396   H     0.32750   0.70495   0.17163   0.00000  Uiso   1.00
H397   H     0.04434   0.99460   0.26034   0.00000  Uiso   1.00
H398   H     0.01173   0.95764   0.33092   0.00000  Uiso   1.00
H399   H     0.06107   0.68832   0.33431   0.00000  Uiso   1.00
H400   H     0.32755   0.91103   0.47443   0.00000  Uiso   1.00
H401   H     0.09362   0.96364   0.33169   0.00000  Uiso   1.00
H402   H     0.14033   0.80503   0.10864   0.00000  Uiso   1.00
H403   H     0.19650   0.85719   0.39014   0.00000  Uiso   1.00
H404   H     0.32401   0.88564   0.12091   0.00000  Uiso   1.00
H405   H     0.00674   0.79088   0.38100   0.00000  Uiso   1.00
H406   H     0.30709   0.77449   0.45959   0.00000  Uiso   1.00
H407   H     0.02139   0.90875   0.04363   0.00000  Uiso   1.00
H408   H     0.07218   0.79563   0.07442   0.00000  Uiso   1.00
N409   N     0.31506   0.84735   0.26212   0.00000  Uiso   1.00
N410   N     0.01827   0.81932   0.23788   0.00000  Uiso   1.00
N411   N     0.25675   0.68071   0.22860   0.00000  Uiso   1.00
N412   N     0.07830   0.98382   0.27258   0.00000  Uiso   1.00
O413   O     0.12815   0.90476   0.24686   0.00000  Uiso   1.00
O414   O     0.20518   0.76191   0.25314   0.00000  Uiso   1.00
O415   O     0.22829   0.91420   0.25503   0.00000  Uiso   1.00
O416   O     0.10504   0.75247   0.24498   0.00000  Uiso   1.00
O417   O     0.08851   0.82597   0.30855   0.00000  Uiso   1.00
O418   O     0.24482   0.84070   0.19146   0.00000  Uiso   1.00
O419   O     0.18866   0.83540   0.31671   0.00000  Uiso   1.00
O420   O     0.14468   0.83126   0.18329   0.00000  Uiso   1.00
C421   C     0.51501   0.93306   0.25071   0.00000  Uiso   1.00
C422   C     0.53870   0.83737   0.16688   0.00000  Uiso   1.00
C423   C     0.43789   0.82531   0.38086   0.00000  Uiso   1.00
C424   C     0.56213   0.84476   0.11952   0.00000  Uiso   1.00
C425   C     0.35599   0.79325   0.44513   0.00000  Uiso   1.00
C426   C     0.64052   0.88651   0.05729   0.00000  Uiso   1.00
C427   C     0.37454   0.80285   0.40043   0.00000  Uiso   1.00
C428   C     0.62347   0.87278   0.10112   0.00000  Uiso   1.00
C429   C     0.48156   0.84056   0.40669   0.00000  Uiso   1.00
C430   C     0.51908   0.82868   0.09339   0.00000  Uiso   1.00
C431   C     0.46398   0.83207   0.45198   0.00000  Uiso   1.00
C432   C     0.48512   0.73351   0.24931   0.00000  Uiso   1.00
C433   C     0.53405   0.84373   0.04954   0.00000  Uiso   1.00
C434   C     0.40036   0.80667   0.47077   0.00000  Uiso   1.00
C435   C     0.59626   0.87275   0.03158   0.00000  Uiso   1.00
C436   C     0.50822   0.84638   0.47867   0.00000  Uiso   1.00
C437   C     0.48892   0.83158   0.02339   0.00000  Uiso   1.00
C438   C     0.60860   0.69008   0.18209   0.00000  Uiso   1.00
C439   C     0.39382   0.98173   0.31985   0.00000  Uiso   1.00
C440   C     0.42483   0.80615   0.04066   0.00000  Uiso   1.00
C441   C     0.57076   0.87560   0.46232   0.00000  Uiso   1.00
C442   C     0.38165   0.79426   0.01483   0.00000  Uiso   1.00
C443   C     0.61359   0.88849   0.48836   0.00000  Uiso   1.00
C444   C     0.52556   0.98809   0.24599   0.00000  Uiso   1.00
C445   C     0.47525   0.67835   0.25471   0.00000  Uiso   1.00
C446   C     0.46133   0.82966   0.33316   0.00000  Uiso   1.00
Cu447  Cu    0.44071   0.82775   0.24517   0.00000  Uiso   1.00
Cu448  Cu    0.55929   0.83892   0.25484   0.00000  Uiso   1.00
H449   H     0.66636   0.77500   0.02956   0.00000  Uiso   1.00
H450   H     0.58815   0.89051   0.42967   0.00000  Uiso   1.00
H451   H     0.33419   0.87057   0.28505   0.00000  Uiso   1.00
H452   H     0.66600   0.79641   0.21473   0.00000  Uiso   1.00
H453   H     0.61093   0.70838   0.24821   0.00000  Uiso   1.00
H454   H     0.58440   0.71945   0.17413   0.00000  Uiso   1.00
H455   H     0.59633   0.98649   0.16369   0.00000  Uiso   1.00
H456   H     0.66083   0.70495   0.17163   0.00000  Uiso   1.00
H457   H     0.37767   0.99460   0.26034   0.00000  Uiso   1.00
H458   H     0.34506   0.95764   0.33092   0.00000  Uiso   1.00
H459   H     0.39440   0.68832   0.33431   0.00000  Uiso   1.00
H460   H     0.66089   0.91103   0.47443   0.00000  Uiso   1.00
H461   H     0.42696   0.96364   0.33169   0.00000  Uiso   1.00
H462   H     0.47366   0.80503   0.10864   0.00000  Uiso   1.00
H463   H     0.52983   0.85719   0.39014   0.00000  Uiso   1.00
H464   H     0.65734   0.88564   0.12091   0.00000  Uiso   1.00
H465   H     0.34007   0.79088   0.38100   0.00000  Uiso   1.00
H466   H     0.64043   0.77449   0.45959   0.00000  Uiso   1.00
H467   H     0.35473   0.90875   0.04363   0.00000  Uiso   1.00
H468   H     0.40551   0.79563   0.07442   0.00000  Uiso   1.00
N469   N     0.64839   0.84735   0.26212   0.00000  Uiso   1.00
N470   N     0.35161   0.81932   0.23788   0.00000  Uiso   1.00
N471   N     0.59008   0.68071   0.22860   0.00000  Uiso   1.00
N472   N     0.41164   0.98382   0.27258   0.00000  Uiso   1.00
O473   O     0.46148   0.90476   0.24686   0.00000  Uiso   1.00
O474   O     0.53852   0.76191   0.25314   0.00000  Uiso   1.00
O475   O     0.56163   0.91420   0.25503   0.00000  Uiso   1.00
O476   O     0.43837   0.75247   0.24498   0.00000  Uiso   1.00
O477   O     0.42185   0.82597   0.30855   0.00000  Uiso   1.00
O478   O     0.57815   0.84070   0.19146   0.00000  Uiso   1.00
O479   O     0.52199   0.83540   0.31671   0.00000  Uiso   1.00
O480   O     0.47801   0.83126   0.18329   0.00000  Uiso   1.00
C481   C     0.84834   0.93306   0.25071   0.00000  Uiso   1.00
C482   C     0.87203   0.83737   0.16688   0.00000  Uiso   1.00
C483   C     0.77122   0.82531   0.38086   0.00000  Uiso   1.00
C484   C     0.89547   0.84476   0.11952   0.00000  Uiso   1.00
C485   C     0.68932   0.79325   0.44513   0.00000  Uiso   1.00
C486   C     0.97386   0.88651   0.05729   0.00000  Uiso   1.00
C487   C     0.70787   0.80285   0.40043   0.00000  Uiso   1.00
C488   C     0.95681   0.87278   0.10112   0.00000  Uiso   1.00
C489   C     0.81490   0.84056   0.40669   0.00000  Uiso   1.00
C490   C     0.85242   0.82868   0.09339   0.00000  Uiso   1.00
C491   C     0.79732   0.83207   0.45198   0.00000  Uiso   1.00
C492   C     0.81845   0.73351   0.24931   0.00000  Uiso   1.00
C493   C     0.86738   0.84373   0.04954   0.00000  Uiso   1.00
C494   C     0.73369   0.80667   0.47077   0.00000  Uiso   1.00
C495   C     0.92959   0.87275   0.03158   0.00000  Uiso   1.00
C496   C     0.84155   0.84638   0.47867   0.00000  Uiso   1.00
C497   C     0.82225   0.83158   0.02339   0.00000  Uiso   1.00
C498   C     0.94193   0.69008   0.18209   0.00000  Uiso   1.00
C499   C     0.72715   0.98173   0.31985   0.00000  Uiso   1.00
C500   C     0.75816   0.80615   0.04066   0.00000  Uiso   1.00
C501   C     0.90409   0.87560   0.46232   0.00000  Uiso   1.00
C502   C     0.71498   0.79426   0.01483   0.00000  Uiso   1.00
C503   C     0.94693   0.88849   0.48836   0.00000  Uiso   1.00
C504   C     0.85889   0.98809   0.24599   0.00000  Uiso   1.00
C505   C     0.80858   0.67835   0.25471   0.00000  Uiso   1.00
C506   C     0.79466   0.82966   0.33316   0.00000  Uiso   1.00
Cu507  Cu    0.77404   0.82775   0.24517   0.00000  Uiso   1.00
Cu508  Cu    0.89263   0.83892   0.25484   0.00000  Uiso   1.00
H509   H     0.99969   0.77500   0.02956   0.00000  Uiso   1.00
H510   H     0.92148   0.89051   0.42967   0.00000  Uiso   1.00
H511   H     0.66752   0.87057   0.28505   0.00000  Uiso   1.00
H512   H     0.99933   0.79641   0.21473   0.00000  Uiso   1.00
H513   H     0.94426   0.70838   0.24821   0.00000  Uiso   1.00
H514   H     0.91773   0.71945   0.17413   0.00000  Uiso   1.00
H515   H     0.92967   0.98649   0.16369   0.00000  Uiso   1.00
H516   H     0.99416   0.70495   0.17163   0.00000  Uiso   1.00
H517   H     0.71100   0.99460   0.26034   0.00000  Uiso   1.00
H518   H     0.67840   0.95764   0.33092   0.00000  Uiso   1.00
H519   H     0.72773   0.68832   0.33431   0.00000  Uiso   1.00
H520   H     0.99422   0.91103   0.47443   0.00000  Uiso   1.00
H521   H     0.76029   0.96364   0.33169   0.00000  Uiso   1.00
H522   H     0.80699   0.80503   0.10864   0.00000  Uiso   1.00
H523   H     0.86316   0.85719   0.39014   0.00000  Uiso   1.00
H524   H     0.99067   0.88564   0.12091   0.00000  Uiso   1.00
H525   H     0.67341   0.79088   0.38100   0.00000  Uiso   1.00
H526   H     0.97376   0.77449   0.45959   0.00000  Uiso   1.00
H527   H     0.68806   0.90875   0.04363   0.00000  Uiso   1.00
H528   H     0.73885   0.79563   0.07442   0.00000  Uiso   1.00
N529   N     0.98173   0.84735   0.26212   0.00000  Uiso   1.00
N530   N     0.68494   0.81932   0.23788   0.00000  Uiso   1.00
N531   N     0.92342   0.68071   0.22860   0.00000  Uiso   1.00
N532   N     0.74497   0.98382   0.27258   0.00000  Uiso   1.00
O533   O     0.79482   0.90476   0.24686   0.00000  Uiso   1.00
O534   O     0.87185   0.76191   0.25314   0.00000  Uiso   1.00
O535   O     0.89496   0.91420   0.25503   0.00000  Uiso   1.00
O536   O     0.77171   0.75247   0.24498   0.00000  Uiso   1.00
O537   O     0.75518   0.82597   0.30855   0.00000  Uiso   1.00
O538   O     0.91149   0.84070   0.19146   0.00000  Uiso   1.00
O539   O     0.85532   0.83540   0.31671   0.00000  Uiso   1.00
O540   O     0.81134   0.83126   0.18329   0.00000  Uiso   1.00
C541   C     0.18167   0.26639   0.75071   0.00000  Uiso   1.00
C542   C     0.20537   0.17071   0.66688   0.00000  Uiso   1.00
C543   C     0.10456   0.15864   0.88086   0.00000  Uiso   1.00
C544   C     0.22880   0.17809   0.61952   0.00000  Uiso   1.00
C545   C     0.02265   0.12658   0.94513   0.00000  Uiso   1.00
C546   C     0.30719   0.21984   0.55729   0.00000  Uiso   1.00
C547   C     0.04121   0.13618   0.90043   0.00000  Uiso   1.00
C548   C     0.29014   0.20612   0.60112   0.00000  Uiso   1.00
C549   C     0.14823   0.17389   0.90669   0.00000  Uiso   1.00
C550   C     0.18575   0.16202   0.59339   0.00000  Uiso   1.00
C551   C     0.13065   0.16540   0.95198   0.00000  Uiso   1.00
C552   C     0.15179   0.06684   0.74931   0.00000  Uiso   1.00
C553   C     0.20072   0.17707   0.54954   0.00000  Uiso   1.00
C554   C     0.06702   0.14000   0.97077   0.00000  Uiso   1.00
C555   C     0.26293   0.20608   0.53158   0.00000  Uiso   1.00
C556   C     0.17488   0.17971   0.97867   0.00000  Uiso   1.00
C557   C     0.15558   0.16491   0.52339   0.00000  Uiso   1.00
C558   C     0.27527   0.02342   0.68209   0.00000  Uiso   1.00
C559   C     0.06048   0.31506   0.81985   0.00000  Uiso   1.00
C560   C     0.09150   0.13948   0.54066   0.00000  Uiso   1.00
C561   C     0.23742   0.20893   0.96232   0.00000  Uiso   1.00
C562   C     0.04831   0.12760   0.51483   0.00000  Uiso   1.00
C563   C     0.28026   0.22182   0.98836   0.00000  Uiso   1.00
C564   C     0.19223   0.32142   0.74599   0.00000  Uiso   1.00
C565   C     0.14192   0.01168   0.75471   0.00000  Uiso   1.00
C566   C     0.12799   0.16299   0.83316   0.00000  Uiso   1.00
Cu567  Cu    0.10737   0.16108   0.74517   0.00000  Uiso   1.00
Cu568  Cu    0.22596   0.17225   0.75484   0.00000  Uiso   1.00
H569   H     0.33303   0.10834   0.52956   0.00000  Uiso   1.00
H570   H     0.25481   0.22384   0.92967   0.00000  Uiso   1.00
H571   H     0.00085   0.20391   0.78505   0.00000  Uiso   1.00
H572   H     0.33267   0.12974   0.71473   0.00000  Uiso   1.00
H573   H     0.27760   0.04172   0.74821   0.00000  Uiso   1.00
H574   H     0.25107   0.05279   0.67413   0.00000  Uiso   1.00
H575   H     0.26300   0.31982   0.66369   0.00000  Uiso   1.00
H576   H     0.32750   0.03828   0.67163   0.00000  Uiso   1.00
H577   H     0.04434   0.32793   0.76034   0.00000  Uiso   1.00
H578   H     0.01173   0.29097   0.83092   0.00000  Uiso   1.00
H579   H     0.06107   0.02166   0.83431   0.00000  Uiso   1.00
H580   H     0.32755   0.24437   0.97443   0.00000  Uiso   1.00
H581   H     0.09362   0.29697   0.83169   0.00000  Uiso   1.00
H582   H     0.14033   0.13836   0.60864   0.00000  Uiso   1.00
H583   H     0.19650   0.19052   0.89014   0.00000  Uiso   1.00
H584   H     0.32401   0.21897   0.62091   0.00000  Uiso   1.00
H585   H     0.00674   0.12421   0.88100   0.00000  Uiso   1.00
H586   H     0.30709   0.10782   0.95959   0.00000  Uiso   1.00
H587   H     0.02139   0.24208   0.54363   0.00000  Uiso   1.00
H588   H     0.07218   0.12897   0.57442   0.00000  Uiso   1.00
N589   N     0.31506   0.18068   0.76212   0.00000  Uiso   1.00
N590   N     0.01827   0.15265   0.73788   0.00000  Uiso   1.00
N591   N     0.25675   0.01404   0.72860   0.00000  Uiso   1.00
N592   N     0.07830   0.31715   0.77258   0.00000  Uiso   1.00
O593   O     0.12815   0.23809   0.74686   0.00000  Uiso   1.00
O594   O     0.20518   0.09524   0.75314   0.00000  Uiso   1.00
O595   O     0.22829   0.24753   0.75503   0.00000  Uiso   1.00
O596   O     0.10504   0.08580   0.74498   0.00000  Uiso   1.00
O597   O     0.08851   0.15930   0.80855   0.00000  Uiso   1.00
O598   O     0.24482   0.17403   0.69146   0.00000  Uiso   1.00
O599   O     0.18866   0.16874   0.81671   0.00000  Uiso   1.00
O600   O     0.14468   0.16460   0.68329   0.00000  Uiso   1.00
C601   C     0.51501   0.26639   0.75071   0.00000  Uiso   1.00
C602   C     0.53870   0.17071   0.66688   0.00000  Uiso   1.00
C603   C     0.43789   0.15864   0.88086   0.00000  Uiso   1.00
C604   C     0.56213   0.17809   0.61952   0.00000  Uiso   1.00
C605   C     0.35599   0.12658   0.94513   0.00000  Uiso   1.00
C606   C     0.64052   0.21984   0.55729   0.00000  Uiso   1.00
C607   C     0.37454   0.13618   0.90043   0.00000  Uiso   1.00
C608   C     0.62347   0.20612   0.60112   0.00000  Uiso   1.00
C609   C     0.48156   0.17389   0.90669   0.00000  Uiso   1.00
C610   C     0.51908   0.16202   0.59339   0.00000  Uiso   1.00
C611   C     0.46398   0.16540   0.95198   0.00000  Uiso   1.00
C612   C     0.48512   0.06684   0.74931   0.00000  Uiso   1.00
C613   C     0.53405   0.17707   0.54954   0.00000  Uiso   1.00
C614   C     0.40036   0.14000   0.97077   0.00000  Uiso   1.00
C615   C     0.59626   0.20608   0.53158   0.00000  Uiso   1.00
C616   C     0.50822   0.17971   0.97867   0.00000  Uiso   1.00
C617   C     0.48892   0.16491   0.52339   0.00000  Uiso   1.00
C618   C     0.60860   0.02342   0.68209   0.00000  Uiso   1.00
C619   C     0.39382   0.31506   0.81985   0.00000  Uiso   1.00
C620   C     0.42483   0.13948   0.54066   0.00000  Uiso   1.00
C621   C     0.57076   0.20893   0.96232   0.00000  Uiso   1.00
C622   C     0.38165   0.12760   0.51483   0.00000  Uiso   1.00
C623   C     0.61359   0.22182   0.98836   0.00000  Uiso   1.00
C624   C     0.52556   0.32142   0.74599   0.00000  Uiso   1.00
C625   C     0.47525   0.01168   0.75471   0.00000  Uiso   1.00
C626   C     0.46133   0.16299   0.83316   0.00000  Uiso   1.00
Cu627  Cu    0.44071   0.16108   0.74517   0.00000  Uiso   1.00
Cu628  Cu    0.55929   0.17225   0.75484   0.00000  Uiso   1.00
H629   H     0.66636   0.10834   0.52956   0.00000  Uiso   1.00
H630   H     0.58815   0.22384   0.92967   0.00000  Uiso   1.00
H631   H     0.33419   0.20391   0.78505   0.00000  Uiso   1.00
H632   H     0.66600   0.12974   0.71473   0.00000  Uiso   1.00
H633   H     0.61093   0.04172   0.74821   0.00000  Uiso   1.00
H634   H     0.58440   0.05279   0.67413   0.00000  Uiso   1.00
H635   H     0.59633   0.31982   0.66369   0.00000  Uiso   1.00
H636   H     0.66083   0.03828   0.67163   0.00000  Uiso   1.00
H637   H     0.37767   0.32793   0.76034   0.00000  Uiso   1.00
H638   H     0.34506   0.29097   0.83092   0.00000  Uiso   1.00
H639   H     0.39440   0.02166   0.83431   0.00000  Uiso   1.00
H640   H     0.66089   0.24437   0.97443   0.00000  Uiso   1.00
H641   H     0.42696   0.29697   0.83169   0.00000  Uiso   1.00
H642   H     0.47366   0.13836   0.60864   0.00000  Uiso   1.00
H643   H     0.52983   0.19052   0.89014   0.00000  Uiso   1.00
H644   H     0.65734   0.21897   0.62091   0.00000  Uiso   1.00
H645   H     0.34007   0.12421   0.88100   0.00000  Uiso   1.00
H646   H     0.64043   0.10782   0.95959   0.00000  Uiso   1.00
H647   H     0.35473   0.24208   0.54363   0.00000  Uiso   1.00
H648   H     0.40551   0.12897   0.57442   0.00000  Uiso   1.00
N649   N     0.64839   0.18068   0.76212   0.00000  Uiso   1.00
N650   N     0.35161   0.15265   0.73788   0.00000  Uiso   1.00
N651   N     0.59008   0.01404   0.72860   0.00000  Uiso   1.00
N652   N     0.41164   0.31715   0.77258   0.00000  Uiso   1.00
O653   O     0.46148   0.23809   0.74686   0.00000  Uiso   1.00
O654   O     0.53852   0.09524   0.75314   0.00000  Uiso   1.00
O655   O     0.56163   0.24753   0.75503   0.00000  Uiso   1.00
O656   O     0.43837   0.08580   0.74498   0.00000  Uiso   1.00
O657   O     0.42185   0.15930   0.80855   0.00000  Uiso   1.00
O658   O     0.57815   0.17403   0.69146   0.00000  Uiso   1.00
O659   O     0.52199   0.16874   0.81671   0.00000  Uiso   1.00
O660   O     0.47801   0.16460   0.68329   0.00000  Uiso   1.00
C661   C     0.84834   0.26639   0.75071   0.00000  Uiso   1.00
C662   C     0.87203   0.17071   0.66688   0.00000  Uiso   1.00
C663   C     0.77122   0.15864   0.88086   0.00000  Uiso   1.00
C664   C     0.89547   0.17809   0.61952   0.00000  Uiso   1.00
C665   C     0.68932   0.12658   0.94513   0.00000  Uiso   1.00
C666   C     0.97386   0.21984   0.55729   0.00000  Uiso   1.00
C667   C     0.70787   0.13618   0.90043   0.00000  Uiso   1.00
C668   C     0.95681   0.20612   0.60112   0.00000  Uiso   1.00
C669   C     0.81490   0.17389   0.90669   0.00000  Uiso   1.00
C670   C     0.85242   0.16202   0.59339   0.00000  Uiso   1.00
C671   C     0.79732   0.16540   0.95198   0.00000  Uiso   1.00
C672   C     0.81845   0.06684   0.74931   0.00000  Uiso   1.00
C673   C     0.86738   0.17707   0.54954   0.00000  Uiso   1.00
C674   C     0.73369   0.14000   0.97077   0.00000  Uiso   1.00
C675   C     0.92959   0.20608   0.53158   0.00000  Uiso   1.00
C676   C     0.84155   0.17971   0.97867   0.00000  Uiso   1.00
C677   C     0.82225   0.16491   0.52339   0.00000  Uiso   1.00
C678   C     0.94193   0.02342   0.68209   0.00000  Uiso   1.00
C679   C     0.72715   0.31506   0.81985   0.00000  Uiso   1.00
C680   C     0.75816   0.13948   0.54066   0.00000  Uiso   1.00
C681   C     0.90409   0.20893   0.96232   0.00000  Uiso   1.00
C682   C     0.71498   0.12760   0.51483   0.00000  Uiso   1.00
C683   C     0.94693   0.22182   0.98836   0.00000  Uiso   1.00
C684   C     0.85889   0.32142   0.74599   0.00000  Uiso   1.00
C685   C     0.80858   0.01168   0.75471   0.00000  Uiso   1.00
C686   C     0.79466   0.16299   0.83316   0.00000  Uiso   1.00
Cu687  Cu    0.77404   0.16108   0.74517   0.00000  Uiso   1.00
Cu688  Cu    0.89263   0.17225   0.75484   0.00000  Uiso   1.00
H689   H     0.99969   0.10834   0.52956   0.00000  Uiso   1.00
H690   H     0.92148   0.22384   0.92967   0.00000  Uiso   1.00
H691   H     0.66752   0.20391   0.78505   0.00000  Uiso   1.00
H692   H     0.99933   0.12974   0.71473   0.00000  Uiso   1.00
H693   H     0.94426   0.04172   0.74821   0.00000  Uiso   1.00
H694   H     0.91773   0.05279   0.67413   0.00000  Uiso   1.00
H695   H     0.92967   0.31982   0.66369   0.00000  Uiso   1.00
H696   H     0.99416   0.03828   0.67163   0.00000  Uiso   1.00
H697   H     0.71100   0.32793   0.76034   0.00000  Uiso   1.00
H698   H     0.67840   0.29097   0.83092   0.00000  Uiso   1.00
H699   H     0.72773   0.02166   0.83431   0.00000  Uiso   1.00
H700   H     0.99422   0.24437   0.97443   0.00000  Uiso   1.00
H701   H     0.76029   0.29697   0.83169   0.00000  Uiso   1.00
H702   H     0.80699   0.13836   0.60864   0.00000  Uiso   1.00
H703   H     0.86316   0.19052   0.89014   0.00000  Uiso   1.00
H704   H     0.99067   0.21897   0.62091   0.00000  Uiso   1.00
H705   H     0.67341   0.12421   0.88100   0.00000  Uiso   1.00
H706   H     0.97376   0.10782   0.95959   0.00000  Uiso   1.00
H707   H     0.68806   0.24208   0.54363   0.00000  Uiso   1.00
H708   H     0.73885   0.12897   0.57442   0.00000  Uiso   1.00
N709   N     0.98173   0.18068   0.76212   0.00000  Uiso   1.00
N710   N     0.68494   0.15265   0.73788   0.00000  Uiso   1.00
N711   N     0.92342   0.01404   0.72860   0.00000  Uiso   1.00
N712   N     0.74497   0.31715   0.77258   0.00000  Uiso   1.00
O713   O     0.79482   0.23809   0.74686   0.00000  Uiso   1.00
O714   O     0.87185   0.09524   0.75314   0.00000  Uiso   1.00
O715   O     0.89496   0.24753   0.75503   0.00000  Uiso   1.00
O716   O     0.77171   0.08580   0.74498   0.00000  Uiso   1.00
O717   O     0.75518   0.15930   0.80855   0.00000  Uiso   1.00
O718   O     0.91149   0.17403   0.69146   0.00000  Uiso   1.00
O719   O     0.85532   0.16874   0.81671   0.00000  Uiso   1.00
O720   O     0.81134   0.16460   0.68329   0.00000  Uiso   1.00
C721   C     0.18167   0.59972   0.75071   0.00000  Uiso   1.00
C722   C     0.20537   0.50404   0.66688   0.00000  Uiso   1.00
C723   C     0.10456   0.49197   0.88086   0.00000  Uiso   1.00
C724   C     0.22880   0.51143   0.61952   0.00000  Uiso   1.00
C725   C     0.02265   0.45992   0.94513   0.00000  Uiso   1.00
C726   C     0.30719   0.55318   0.55729   0.00000  Uiso   1.00
C727   C     0.04121   0.46951   0.90043   0.00000  Uiso   1.00
C728   C     0.29014   0.53945   0.60112   0.00000  Uiso   1.00
C729   C     0.14823   0.50722   0.90669   0.00000  Uiso   1.00
C730   C     0.18575   0.49535   0.59339   0.00000  Uiso   1.00
C731   C     0.13065   0.49874   0.95198   0.00000  Uiso   1.00
C732   C     0.15179   0.40017   0.74931   0.00000  Uiso   1.00
C733   C     0.20072   0.51040   0.54954   0.00000  Uiso   1.00
C734   C     0.06702   0.47333   0.97077   0.00000  Uiso   1.00
C735   C     0.26293   0.53942   0.53158   0.00000  Uiso   1.00
C736   C     0.17488   0.51305   0.97867   0.00000  Uiso   1.00
C737   C     0.15558   0.49824   0.52339   0.00000  Uiso   1.00
C738   C     0.27527   0.35675   0.68209   0.00000  Uiso   1.00
C739   C     0.06048   0.64839   0.81985   0.00000  Uiso   1.00
C740   C     0.09150   0.47282   0.54066   0.00000  Uiso   1.00
C741   C     0.23742   0.54226   0.96232   0.00000  Uiso   1.00
C742   C     0.04831   0.46093   0.51483   0.00000  Uiso   1.00
C743   C     0.28026   0.55516   0.98836   0.00000  Uiso   1.00
C744   C     0.19223   0.65475   0.74599   0.00000  Uiso   1.00
C745   C     0.14192   0.34501   0.75471   0.00000  Uiso   1.00
C746   C     0.12799   0.49633   0.83316   0.00000  Uiso   1.00
Cu747  Cu    0.10737   0.49441   0.74517   0.00000  Uiso   1.00
Cu748  Cu    0.22596   0.50559   0.75484   0.00000  Uiso   1.00
H749   H     0.33303   0.44167   0.52956   0.00000  Uiso   1.00
H750   H     0.25481   0.55717   0.92967   0.00000  Uiso   1.00
H751   H     0.00085   0.53724   0.78505   0.00000  Uiso   1.00
H752   H     0.33267   0.46308   0.71473   0.00000  Uiso   1.00
H753   H     0.27760   0.37505   0.74821   0.00000  Uiso   1.00
H754   H     0.25107   0.38612   0.67413   0.00000  Uiso   1.00
H755   H     0.26300   0.65316   0.66369   0.00000  Uiso   1.00
H756   H     0.32750   0.37162   0.67163   0.00000  Uiso   1.00
H757   H     0.04434   0.66126   0.76034   0.00000  Uiso   1.00
H758   H     0.01173   0.62430   0.83092   0.00000  Uiso   1.00
H759   H     0.06107   0.35499   0.83431   0.00000  Uiso   1.00
H760   H     0.32755   0.57770   0.97443   0.00000  Uiso   1.00
H761   H     0.09362   0.63030   0.83169   0.00000  Uiso   1.00
H762   H     0.14033   0.47169   0.60864   0.00000  Uiso   1.00
H763   H     0.19650   0.52385   0.89014   0.00000  Uiso   1.00
H764   H     0.32401   0.55231   0.62091   0.00000  Uiso   1.00
H765   H     0.00674   0.45755   0.88100   0.00000  Uiso   1.00
H766   H     0.30709   0.44116   0.95959   0.00000  Uiso   1.00
H767   H     0.02139   0.57542   0.54363   0.00000  Uiso   1.00
H768   H     0.07218   0.46230   0.57442   0.00000  Uiso   1.00
N769   N     0.31506   0.51401   0.76212   0.00000  Uiso   1.00
N770   N     0.01827   0.48599   0.73788   0.00000  Uiso   1.00
N771   N     0.25675   0.34738   0.72860   0.00000  Uiso   1.00
N772   N     0.07830   0.65048   0.77258   0.00000  Uiso   1.00
O773   O     0.12815   0.57142   0.74686   0.00000  Uiso   1.00
O774   O     0.20518   0.42858   0.75314   0.00000  Uiso   1.00
O775   O     0.22829   0.58086   0.75503   0.00000  Uiso   1.00
O776   O     0.10504   0.41914   0.74498   0.00000  Uiso   1.00
O777   O     0.08851   0.49263   0.80855   0.00000  Uiso   1.00
O778   O     0.24482   0.50737   0.69146   0.00000  Uiso   1.00
O779   O     0.18866   0.50207   0.81671   0.00000  Uiso   1.00
O780   O     0.14468   0.49793   0.68329   0.00000  Uiso   1.00
C781   C     0.51501   0.59972   0.75071   0.00000  Uiso   1.00
C782   C     0.53870   0.50404   0.66688   0.00000  Uiso   1.00
C783   C     0.43789   0.49197   0.88086   0.00000  Uiso   1.00
C784   C     0.56213   0.51143   0.61952   0.00000  Uiso   1.00
C785   C     0.35599   0.45992   0.94513   0.00000  Uiso   1.00
C786   C     0.64052   0.55318   0.55729   0.00000  Uiso   1.00
C787   C     0.37454   0.46951   0.90043   0.00000  Uiso   1.00
C788   C     0.62347   0.53945   0.60112   0.00000  Uiso   1.00
C789   C     0.48156   0.50722   0.90669   0.00000  Uiso   1.00
C790   C     0.51908   0.49535   0.59339   0.00000  Uiso   1.00
C791   C     0.46398   0.49874   0.95198   0.00000  Uiso   1.00
C792   C     0.48512   0.40017   0.74931   0.00000  Uiso   1.00
C793   C     0.53405   0.51040   0.54954   0.00000  Uiso   1.00
C794   C     0.40036   0.47333   0.97077   0.00000  Uiso   1.00
C795   C     0.59626   0.53942   0.53158   0.00000  Uiso   1.00
C796   C     0.50822   0.51305   0.97867   0.00000  Uiso   1.00
C797   C     0.48892   0.49824   0.52339   0.00000  Uiso   1.00
C798   C     0.60860   0.35675   0.68209   0.00000  Uiso   1.00
C799   C     0.39382   0.64839   0.81985   0.00000  Uiso   1.00
C800   C     0.42483   0.47282   0.54066   0.00000  Uiso   1.00
C801   C     0.57076   0.54226   0.96232   0.00000  Uiso   1.00
C802   C     0.38165   0.46093   0.51483   0.00000  Uiso   1.00
C803   C     0.61359   0.55516   0.98836   0.00000  Uiso   1.00
C804   C     0.52556   0.65475   0.74599   0.00000  Uiso   1.00
C805   C     0.47525   0.34501   0.75471   0.00000  Uiso   1.00
C806   C     0.46133   0.49633   0.83316   0.00000  Uiso   1.00
Cu807  Cu    0.44071   0.49441   0.74517   0.00000  Uiso   1.00
Cu808  Cu    0.55929   0.50559   0.75484   0.00000  Uiso   1.00
H809   H     0.66636   0.44167   0.52956   0.00000  Uiso   1.00
H810   H     0.58815   0.55717   0.92967   0.00000  Uiso   1.00
H811   H     0.33419   0.53724   0.78505   0.00000  Uiso   1.00
H812   H     0.66600   0.46308   0.71473   0.00000  Uiso   1.00
H813   H     0.61093   0.37505   0.74821   0.00000  Uiso   1.00
H814   H     0.58440   0.38612   0.67413   0.00000  Uiso   1.00
H815   H     0.59633   0.65316   0.66369   0.00000  Uiso   1.00
H816   H     0.66083   0.37162   0.67163   0.00000  Uiso   1.00
H817   H     0.37767   0.66126   0.76034   0.00000  Uiso   1.00
H818   H     0.34506   0.62430   0.83092   0.00000  Uiso   1.00
H819   H     0.39440   0.35499   0.83431   0.00000  Uiso   1.00
H820   H     0.66089   0.57770   0.97443   0.00000  Uiso   1.00
H821   H     0.42696   0.63030   0.83169   0.00000  Uiso   1.00
H822   H     0.47366   0.47169   0.60864   0.00000  Uiso   1.00
H823   H     0.52983   0.52385   0.89014   0.00000  Uiso   1.00
H824   H     0.65734   0.55231   0.62091   0.00000  Uiso   1.00
H825   H     0.34007   0.45755   0.88100   0.00000  Uiso   1.00
H826   H     0.64043   0.44116   0.95959   0.00000  Uiso   1.00
H827   H     0.35473   0.57542   0.54363   0.00000  Uiso   1.00
H828   H     0.40551   0.46230   0.57442   0.00000  Uiso   1.00
N829   N     0.64839   0.51401   0.76212   0.00000  Uiso   1.00
N830   N     0.35161   0.48599   0.73788   0.00000  Uiso   1.00
N831   N     0.59008   0.34738   0.72860   0.00000  Uiso   1.00
N832   N     0.41164   0.65048   0.77258   0.00000  Uiso   1.00
O833   O     0.46148   0.57142   0.74686   0.00000  Uiso   1.00
O834   O     0.53852   0.42858   0.75314   0.00000  Uiso   1.00
O835   O     0.56163   0.58086   0.75503   0.00000  Uiso   1.00
O836   O     0.43837   0.41914   0.74498   0.00000  Uiso   1.00
O837   O     0.42185   0.49263   0.80855   0.00000  Uiso   1.00
O838   O     0.57815   0.50737   0.69146   0.00000  Uiso   1.00
O839   O     0.52199   0.50207   0.81671   0.00000  Uiso   1.00
O840   O     0.47801   0.49793   0.68329   0.00000  Uiso   1.00
C841   C     0.84834   0.59972   0.75071   0.00000  Uiso   1.00
C842   C     0.87203   0.50404   0.66688   0.00000  Uiso   1.00
C843   C     0.77122   0.49197   0.88086   0.00000  Uiso   1.00
C844   C     0.89547   0.51143   0.61952   0.00000  Uiso   1.00
C845   C     0.68932   0.45992   0.94513   0.00000  Uiso   1.00
C846   C     0.97386   0.55318   0.55729   0.00000  Uiso   1.00
C847   C     0.70787   0.46951   0.90043   0.00000  Uiso   1.00
C848   C     0.95681   0.53945   0.60112   0.00000  Uiso   1.00
C849   C     0.81490   0.50722   0.90669   0.00000  Uiso   1.00
C850   C     0.85242   0.49535   0.59339   0.00000  Uiso   1.00
C851   C     0.79732   0.49874   0.95198   0.00000  Uiso   1.00
C852   C     0.81845   0.40017   0.74931   0.00000  Uiso   1.00
C853   C     0.86738   0.51040   0.54954   0.00000  Uiso   1.00
C854   C     0.73369   0.47333   0.97077   0.00000  Uiso   1.00
C855   C     0.92959   0.53942   0.53158   0.00000  Uiso   1.00
C856   C     0.84155   0.51305   0.97867   0.00000  Uiso   1.00
C857   C     0.82225   0.49824   0.52339   0.00000  Uiso   1.00
C858   C     0.94193   0.35675   0.68209   0.00000  Uiso   1.00
C859   C     0.72715   0.64839   0.81985   0.00000  Uiso   1.00
C860   C     0.75816   0.47282   0.54066   0.00000  Uiso   1.00
C861   C     0.90409   0.54226   0.96232   0.00000  Uiso   1.00
C862   C     0.71498   0.46093   0.51483   0.00000  Uiso   1.00
C863   C     0.94693   0.55516   0.98836   0.00000  Uiso   1.00
C864   C     0.85889   0.65475   0.74599   0.00000  Uiso   1.00
C865   C     0.80858   0.34501   0.75471   0.00000  Uiso   1.00
C866   C     0.79466   0.49633   0.83316   0.00000  Uiso   1.00
Cu867  Cu    0.77404   0.49441   0.74517   0.00000  Uiso   1.00
Cu868  Cu    0.89263   0.50559   0.75484   0.00000  Uiso   1.00
H869   H     0.99969   0.44167   0.52956   0.00000  Uiso   1.00
H870   H     0.92148   0.55717   0.92967   0.00000  Uiso   1.00
H871   H     0.66752   0.53724   0.78505   0.00000  Uiso   1.00
H872   H     0.99933   0.46308   0.71473   0.00000  Uiso   1.00
H873   H     0.94426   0.37505   0.74821   0.00000  Uiso   1.00
H874   H     0.91773   0.38612   0.67413   0.00000  Uiso   1.00
H875   H     0.92967   0.65316   0.66369   0.00000  Uiso   1.00
H876   H     0.99416   0.37162   0.67163   0.00000  Uiso   1.00
H877   H     0.71100   0.66126   0.76034   0.00000  Uiso   1.00
H878   H     0.67840   0.62430   0.83092   0.00000  Uiso   1.00
H879   H     0.72773   0.35499   0.83431   0.00000  Uiso   1.00
H880   H     0.99422   0.57770   0.97443   0.00000  Uiso   1.00
H881   H     0.76029   0.63030   0.83169   0.00000  Uiso   1.00
H882   H     0.80699   0.47169   0.60864   0.00000  Uiso   1.00
H883   H     0.86316   0.52385   0.89014   0.00000  Uiso   1.00
H884   H     0.99067   0.55231   0.62091   0.00000  Uiso   1.00
H885   H     0.67341   0.45755   0.88100   0.00000  Uiso   1.00
H886   H     0.97376   0.44116   0.95959   0.00000  Uiso   1.00
H887   H     0.68806   0.57542   0.54363   0.00000  Uiso   1.00
H888   H     0.73885   0.46230   0.57442   0.00000  Uiso   1.00
N889   N     0.98173   0.51401   0.76212   0.00000  Uiso   1.00
N890   N     0.68494   0.48599   0.73788   0.00000  Uiso   1.00
N891   N     0.92342   0.34738   0.72860   0.00000  Uiso   1.00
N892   N     0.74497   0.65048   0.77258   0.00000  Uiso   1.00
O893   O     0.79482   0.57142   0.74686   0.00000  Uiso   1.00
O894   O     0.87185   0.42858   0.75314   0.00000  Uiso   1.00
O895   O     0.89496   0.58086   0.75503   0.00000  Uiso   1.00
O896   O     0.77171   0.41914   0.74498   0.00000  Uiso   1.00
O897   O     0.75518   0.49263   0.80855   0.00000  Uiso   1.00
O898   O     0.91149   0.50737   0.69146   0.00000  Uiso   1.00
O899   O     0.85532   0.50207   0.81671   0.00000  Uiso   1.00
O900   O     0.81134   0.49793   0.68329   0.00000  Uiso   1.00
C901   C     0.18167   0.93306   0.75071   0.00000  Uiso   1.00
C902   C     0.20537   0.83737   0.66688   0.00000  Uiso   1.00
C903   C     0.10456   0.82531   0.88086   0.00000  Uiso   1.00
C904   C     0.22880   0.84476   0.61952   0.00000  Uiso   1.00
C905   C     0.02265   0.79325   0.94513   0.00000  Uiso   1.00
C906   C     0.30719   0.88651   0.55729   0.00000  Uiso   1.00
C907   C     0.04121   0.80285   0.90043   0.00000  Uiso   1.00
C908   C     0.29014   0.87278   0.60112   0.00000  Uiso   1.00
C909   C     0.14823   0.84056   0.90669   0.00000  Uiso   1.00
C910   C     0.18575   0.82868   0.59339   0.00000  Uiso   1.00
C911   C     0.13065   0.83207   0.95198   0.00000  Uiso   1.00
C912   C     0.15179   0.73351   0.74931   0.00000  Uiso   1.00
C913   C     0.20072   0.84373   0.54954   0.00000  Uiso   1.00
C914   C     0.06702   0.80667   0.97077   0.00000  Uiso   1.00
C915   C     0.26293   0.87275   0.53158   0.00000  Uiso   1.00
C916   C     0.17488   0.84638   0.97867   0.00000  Uiso   1.00
C917   C     0.15558   0.83158   0.52339   0.00000  Uiso   1.00
C918   C     0.27527   0.69008   0.68209   0.00000  Uiso   1.00
C919   C     0.06048   0.98173   0.81985   0.00000  Uiso   1.00
C920   C     0.09150   0.80615   0.54066   0.00000  Uiso   1.00
C921   C     0.23742   0.87560   0.96232   0.00000  Uiso   1.00
C922   C     0.04831   0.79426   0.51483   0.00000  Uiso   1.00
C923   C     0.28026   0.88849   0.98836   0.00000  Uiso   1.00
C924   C     0.19223   0.98809   0.74599   0.00000  Uiso   1.00
C925   C     0.14192   0.67835   0.75471   0.00000  Uiso   1.00
C926   C     0.12799   0.82966   0.83316   0.00000  Uiso   1.00
Cu927  Cu    0.10737   0.82775   0.74517   0.00000  Uiso   1.00
Cu928  Cu    0.22596   0.83892   0.75484   0.00000  Uiso   1.00
H929   H     0.33303   0.77500   0.52956   0.00000  Uiso   1.00
H930   H     0.25481   0.89051   0.92967   0.00000  Uiso   1.00
H931   H     0.00085   0.87057   0.78505   0.00000  Uiso   1.00
H932   H     0.33267   0.79641   0.71473   0.00000  Uiso   1.00
H933   H     0.27760   0.70838   0.74821   0.00000  Uiso   1.00
H934   H     0.25107   0.71945   0.67413   0.00000  Uiso   1.00
H935   H     0.26300   0.98649   0.66369   0.00000  Uiso   1.00
H936   H     0.32750   0.70495   0.67163   0.00000  Uiso   1.00
H937   H     0.04434   0.99460   0.76034   0.00000  Uiso   1.00
H938   H     0.01173   0.95764   0.83092   0.00000  Uiso   1.00
H939   H     0.06107   0.68832   0.83431   0.00000  Uiso   1.00
H940   H     0.32755   0.91103   0.97443   0.00000  Uiso   1.00
H941   H     0.09362   0.96364   0.83169   0.00000  Uiso   1.00
H942   H     0.14033   0.80503   0.60864   0.00000  Uiso   1.00
H943   H     0.19650   0.85719   0.89014   0.00000  Uiso   1.00
H944   H     0.32401   0.88564   0.62091   0.00000  Uiso   1.00
H945   H     0.00674   0.79088   0.88100   0.00000  Uiso   1.00
H946   H     0.30709   0.77449   0.95959   0.00000  Uiso   1.00
H947   H     0.02139   0.90875   0.54363   0.00000  Uiso   1.00
H948   H     0.07218   0.79563   0.57442   0.00000  Uiso   1.00
N949   N     0.31506   0.84735   0.76212   0.00000  Uiso   1.00
N950   N     0.01827   0.81932   0.73788   0.00000  Uiso   1.00
N951   N     0.25675   0.68071   0.72860   0.00000  Uiso   1.00
N952   N     0.07830   0.98382   0.77258   0.00000  Uiso   1.00
O953   O     0.12815   0.90476   0.74686   0.00000  Uiso   1.00
O954   O     0.20518   0.76191   0.75314   0.00000  Uiso   1.00
O955   O     0.22829   0.91420   0.75503   0.00000  Uiso   1.00
O956   O     0.10504   0.75247   0.74498   0.00000  Uiso   1.00
O957   O     0.08851   0.82597   0.80855   0.00000  Uiso   1.00
O958   O     0.24482   0.84070   0.69146   0.00000  Uiso   1.00
O959   O     0.18866   0.83540   0.81671   0.00000  Uiso   1.00
O960   O     0.14468   0.83126   0.68329   0.00000  Uiso   1.00
C961   C     0.51501   0.93306   0.75071   0.00000  Uiso   1.00
C962   C     0.53870   0.83737   0.66688   0.00000  Uiso   1.00
C963   C     0.43789   0.82531   0.88086   0.00000  Uiso   1.00
C964   C     0.56213   0.84476   0.61952   0.00000  Uiso   1.00
C965   C     0.35599   0.79325   0.94513   0.00000  Uiso   1.00
C966   C     0.64052   0.88651   0.55729   0.00000  Uiso   1.00
C967   C     0.37454   0.80285   0.90043   0.00000  Uiso   1.00
C968   C     0.62347   0.87278   0.60112   0.00000  Uiso   1.00
C969   C     0.48156   0.84056   0.90669   0.00000  Uiso   1.00
C970   C     0.51908   0.82868   0.59339   0.00000  Uiso   1.00
C971   C     0.46398   0.83207   0.95198   0.00000  Uiso   1.00
C972   C     0.48512   0.73351   0.74931   0.00000  Uiso   1.00
C973   C     0.53405   0.84373   0.54954   0.00000  Uiso   1.00
C974   C     0.40036   0.80667   0.97077   0.00000  Uiso   1.00
C975   C     0.59626   0.87275   0.53158   0.00000  Uiso   1.00
C976   C     0.50822   0.84638   0.97867   0.00000  Uiso   1.00
C977   C     0.48892   0.83158   0.52339   0.00000  Uiso   1.00
C978   C     0.60860   0.69008   0.68209   0.00000  Uiso   1.00
C979   C     0.39382   0.98173   0.81985   0.00000  Uiso   1.00
C980   C     0.42483   0.80615   0.54066   0.00000  Uiso   1.00
C981   C     0.57076   0.87560   0.96232   0.00000  Uiso   1.00
C982   C     0.38165   0.79426   0.51483   0.00000  Uiso   1.00
C983   C     0.61359   0.88849   0.98836   0.00000  Uiso   1.00
C984   C     0.52556   0.98809   0.74599   0.00000  Uiso   1.00
C985   C     0.47525   0.67835   0.75471   0.00000  Uiso   1.00
C986   C     0.46133   0.82966   0.83316   0.00000  Uiso   1.00
Cu987  Cu    0.44071   0.82775   0.74517   0.00000  Uiso   1.00
Cu988  Cu    0.55929   0.83892   0.75484   0.00000  Uiso   1.00
H989   H     0.66636   0.77500   0.52956   0.00000  Uiso   1.00
H990   H     0.58815   0.89051   0.92967   0.00000  Uiso   1.00
H991   H     0.33419   0.87057   0.78505   0.00000  Uiso   1.00
H992   H     0.66600   0.79641   0.71473   0.00000  Uiso   1.00
H993   H     0.61093   0.70838   0.74821   0.00000  Uiso   1.00
H994   H     0.58440   0.71945   0.67413   0.00000  Uiso   1.00
H995   H     0.59633   0.98649   0.66369   0.00000  Uiso   1.00
H996   H     0.66083   0.70495   0.67163   0.00000  Uiso   1.00
H997   H     0.37767   0.99460   0.76034   0.00000  Uiso   1.00
H998   H     0.34506   0.95764   0.83092   0.00000  Uiso   1.00
H999   H     0.39440   0.68832   0.83431   0.00000  Uiso   1.00
H1000  H     0.66089   0.91103   0.97443   0.00000  Uiso   1.00
H1001  H     0.42696   0.96364   0.83169   0.00000  Uiso   1.00
H1002  H     0.47366   0.80503   0.60864   0.00000  Uiso   1.00
H1003  H     0.52983   0.85719   0.89014   0.00000  Uiso   1.00
H1004  H     0.65734   0.88564   0.62091   0.00000  Uiso   1.00
H1005  H     0.34007   0.79088   0.88100   0.00000  Uiso   1.00
H1006  H     0.64043   0.77449   0.95959   0.00000  Uiso   1.00
H1007  H     0.35473   0.90875   0.54363   0.00000  Uiso   1.00
H1008  H     0.40551   0.79563   0.57442   0.00000  Uiso   1.00
N1009  N     0.64839   0.84735   0.76212   0.00000  Uiso   1.00
N1010  N     0.35161   0.81932   0.73788   0.00000  Uiso   1.00
N1011  N     0.59008   0.68071   0.72860   0.00000  Uiso   1.00
N1012  N     0.41164   0.98382   0.77258   0.00000  Uiso   1.00
O1013  O     0.46148   0.90476   0.74686   0.00000  Uiso   1.00
O1014  O     0.53852   0.76191   0.75314   0.00000  Uiso   1.00
O1015  O     0.56163   0.91420   0.75503   0.00000  Uiso   1.00
O1016  O     0.43837   0.75247   0.74498   0.00000  Uiso   1.00
O1017  O     0.42185   0.82597   0.80855   0.00000  Uiso   1.00
O1018  O     0.57815   0.84070   0.69146   0.00000  Uiso   1.00
O1019  O     0.52199   0.83540   0.81671   0.00000  Uiso   1.00
O1020  O     0.47801   0.83126   0.68329   0.00000  Uiso   1.00
C1021  C     0.84834   0.93306   0.75071   0.00000  Uiso   1.00
C1022  C     0.87203   0.83737   0.66688   0.00000  Uiso   1.00
C1023  C     0.77122   0.82531   0.88086   0.00000  Uiso   1.00
C1024  C     0.89547   0.84476   0.61952   0.00000  Uiso   1.00
C1025  C     0.68932   0.79325   0.94513   0.00000  Uiso   1.00
C1026  C     0.97386   0.88651   0.55729   0.00000  Uiso   1.00
C1027  C     0.70787   0.80285   0.90043   0.00000  Uiso   1.00
C1028  C     0.95681   0.87278   0.60112   0.00000  Uiso   1.00
C1029  C     0.81490   0.84056   0.90669   0.00000  Uiso   1.00
C1030  C     0.85242   0.82868   0.59339   0.00000  Uiso   1.00
C1031  C     0.79732   0.83207   0.95198   0.00000  Uiso   1.00
C1032  C     0.81845   0.73351   0.74931   0.00000  Uiso   1.00
C1033  C     0.86738   0.84373   0.54954   0.00000  Uiso   1.00
C1034  C     0.73369   0.80667   0.97077   0.00000  Uiso   1.00
C1035  C     0.92959   0.87275   0.53158   0.00000  Uiso   1.00
C1036  C     0.84155   0.84638   0.97867   0.00000  Uiso   1.00
C1037  C     0.82225   0.83158   0.52339   0.00000  Uiso   1.00
C1038  C     0.94193   0.69008   0.68209   0.00000  Uiso   1.00
C1039  C     0.72715   0.98173   0.81985   0.00000  Uiso   1.00
C1040  C     0.75816   0.80615   0.54066   0.00000  Uiso   1.00
C1041  C     0.90409   0.87560   0.96232   0.00000  Uiso   1.00
C1042  C     0.71498   0.79426   0.51483   0.00000  Uiso   1.00
C1043  C     0.94693   0.88849   0.98836   0.00000  Uiso   1.00
C1044  C     0.85889   0.98809   0.74599   0.00000  Uiso   1.00
C1045  C     0.80858   0.67835   0.75471   0.00000  Uiso   1.00
C1046  C     0.79466   0.82966   0.83316   0.00000  Uiso   1.00
Cu1047 Cu    0.77404   0.82775   0.74517   0.00000  Uiso   1.00
Cu1048 Cu    0.89263   0.83892   0.75484   0.00000  Uiso   1.00
H1049  H     0.99969   0.77500   0.52956   0.00000  Uiso   1.00
H1050  H     0.92148   0.89051   0.92967   0.00000  Uiso   1.00
H1051  H     0.66752   0.87057   0.78505   0.00000  Uiso   1.00
H1052  H     0.99933   0.79641   0.71473   0.00000  Uiso   1.00
H1053  H     0.94426   0.70838   0.74821   0.00000  Uiso   1.00
H1054  H     0.91773   0.71945   0.67413   0.00000  Uiso   1.00
H1055  H     0.92967   0.98649   0.66369   0.00000  Uiso   1.00
H1056  H     0.99416   0.70495   0.67163   0.00000  Uiso   1.00
H1057  H     0.71100   0.99460   0.76034   0.00000  Uiso   1.00
H1058  H     0.67840   0.95764   0.83092   0.00000  Uiso   1.00
H1059  H     0.72773   0.68832   0.83431   0.00000  Uiso   1.00
H1060  H     0.99422   0.91103   0.97443   0.00000  Uiso   1.00
H1061  H     0.76029   0.96364   0.83169   0.00000  Uiso   1.00
H1062  H     0.80699   0.80503   0.60864   0.00000  Uiso   1.00
H1063  H     0.86316   0.85719   0.89014   0.00000  Uiso   1.00
H1064  H     0.99067   0.88564   0.62091   0.00000  Uiso   1.00
H1065  H     0.67341   0.79088   0.88100   0.00000  Uiso   1.00
H1066  H     0.97376   0.77449   0.95959   0.00000  Uiso   1.00
H1067  H     0.68806   0.90875   0.54363   0.00000  Uiso   1.00
H1068  H     0.73885   0.79563   0.57442   0.00000  Uiso   1.00
N1069  N     0.98173   0.84735   0.76212   0.00000  Uiso   1.00
N1070  N     0.68494   0.81932   0.73788   0.00000  Uiso   1.00
N1071  N     0.92342   0.68071   0.72860   0.00000  Uiso   1.00
N1072  N     0.74497   0.98382   0.77258   0.00000  Uiso   1.00
O1073  O     0.79482   0.90476   0.74686   0.00000  Uiso   1.00
O1074  O     0.87185   0.76191   0.75314   0.00000  Uiso   1.00
O1075  O     0.89496   0.91420   0.75503   0.00000  Uiso   1.00
O1076  O     0.77171   0.75247   0.74498   0.00000  Uiso   1.00
O1077  O     0.75518   0.82597   0.80855   0.00000  Uiso   1.00
O1078  O     0.91149   0.84070   0.69146   0.00000  Uiso   1.00
O1079  O     0.85532   0.83540   0.81671   0.00000  Uiso   1.00
O1080  O     0.81134   0.83126   0.68329   0.00000  Uiso   1.00
loop_
_geom_bond_atom_site_label_1
_geom_bond_atom_site_label_2
_geom_bond_distance
_geom_bond_site_symmetry_2
_ccdc_geom_bond_type
C1     O55     1.285   .     A
C1     C24     1.426   .     S
C1     O53     1.287   .     A
C2     C4      1.466   .     S
C2     O58     1.300   .     A
C2     O60     1.294   .     A
C3     C9      1.400   .     A
C3     C7      1.398   .     A
C3     C26     1.468   .     S
C4     C8      1.397   .     A
C4     C10     1.399   .     A
C5     C14     1.405   .     A
C5     C7      1.393   .     A
C5     H166    1.084   1_455 S
C6     C8      1.393   .     A
C6     C15     1.405   .     A
C6     H107    1.084   .     S
C7     H45     1.083   .     S
C8     H44     1.083   .     S
C9     C11     1.406   .     A
C9     H43     1.075   .     S
C10    H42     1.075   .     S
C10    C13     1.406   .     A
C11    C14     1.418   .     A
C11    C16     1.429   .     A
C12    C25     1.434   .     S
C12    O56     1.290   .     A
C12    O54     1.285   .     A
C13    C17     1.429   .     A
C13    C15     1.418   .     A
C14    C562    1.389   .     S
C15    C563    1.390   1_554 S
C16    C21     1.417   .     A
C16    C557    1.426   .     S
C17    C20     1.417   .     A
C17    C556    1.426   1_554 S
C18    H34     1.110   .     S
C18    N51     1.447   .     S
C18    H36     1.110   .     S
C18    H395    1.112   1_545 S
C19    H38     1.110   .     S
C19    H41     1.111   .     S
C19    N52     1.447   .     S
C19    H219    1.112   .     S
C20    H48     1.076   .     S
C20    C22     1.387   .     A
C21    H30     1.076   .     S
C21    C23     1.387   .     A
C22    C554    1.389   1_554 S
C22    H149    1.085   1_455 S
C23    H40     1.084   .     S
C23    C555    1.390   .     S
C24    C205    1.356   .     S
C24    N231    1.430   .     S
C25    C384    1.356   1_545 S
C25    N412    1.432   1_545 S
C26    O57     1.301   .     A
C26    O59     1.294   .     A
Cu27   O53     1.974   .     S
Cu27   N50     2.017   .     S
Cu27   O60     1.920   .     S
Cu27   O57     1.942   .     S
Cu27   Cu28    2.684   .     S
Cu27   O56     1.967   .     S
Cu28   O58     1.942   .     S
Cu28   O55     1.967   .     S
Cu28   O59     1.920   .     S
Cu28   O54     1.974   .     S
Cu28   N49     2.017   .     S
H29    C82     1.085   .     S
H31    N169    1.029   1_455 S
H32    N110    1.028   .     S
H33    N51     1.030   .     S
H35    C198    1.112   .     S
H37    N52     1.032   .     S
H39    C379    1.112   1_545 S
H46    C65     1.084   .     S
H47    C126    1.084   1_455 S
N49    H91     1.029   .     S
N49    N110    1.285   .     S
N50    H152    1.028   1_455 S
N50    N169    1.285   1_455 S
N51    C384    1.430   1_545 S
N52    C205    1.432   .     S
C61    O115    1.285   .     A
C61    C84     1.426   .     S
C61    O113    1.287   .     A
C62    C64     1.466   .     S
C62    O118    1.300   .     A
C62    O120    1.294   .     A
C63    C69     1.400   .     A
C63    C67     1.398   .     A
C63    C86     1.468   .     S
C64    C68     1.397   .     A
C64    C70     1.399   .     A
C65    C74     1.405   .     A
C65    C67     1.393   .     A
C66    C68     1.393   .     A
C66    C75     1.405   .     A
C66    H167    1.084   .     S
C67    H105    1.083   .     S
C68    H104    1.083   .     S
C69    C71     1.406   .     A
C69    H103    1.075   .     S
C70    H102    1.075   .     S
C70    C73     1.406   .     A
C71    C74     1.418   .     A
C71    C76     1.429   .     A
C72    C85     1.434   .     S
C72    O116    1.290   .     A
C72    O114    1.285   .     A
C73    C77     1.429   .     A
C73    C75     1.418   .     A
C74    C622    1.389   .     S
C75    C623    1.390   1_554 S
C76    C81     1.417   .     A
C76    C617    1.426   .     S
C77    C80     1.417   .     A
C77    C616    1.426   1_554 S
C78    H94     1.110   .     S
C78    N111    1.447   .     S
C78    H96     1.110   .     S
C78    H455    1.112   1_545 S
C79    H98     1.110   .     S
C79    H101    1.111   .     S
C79    N112    1.447   .     S
C79    H279    1.112   .     S
C80    H108    1.076   .     S
C80    C82     1.387   .     A
C81    H90     1.076   .     S
C81    C83     1.387   .     A
C82    C614    1.389   1_554 S
C83    H100    1.084   .     S
C83    C615    1.390   .     S
C84    C265    1.356   .     S
C84    N291    1.430   .     S
C85    C444    1.356   1_545 S
C85    N472    1.432   1_545 S
C86    O117    1.301   .     A
C86    O119    1.294   .     A
Cu87   O113    1.974   .     S
Cu87   N110    2.017   .     S
Cu87   O120    1.920   .     S
Cu87   O117    1.942   .     S
Cu87   Cu88    2.684   .     S
Cu87   O116    1.967   .     S
Cu88   O118    1.942   .     S
Cu88   O115    1.967   .     S
Cu88   O119    1.920   .     S
Cu88   O114    1.974   .     S
Cu88   N109    2.017   .     S
H89    C142    1.085   .     S
H92    N170    1.028   .     S
H93    N111    1.030   .     S
H95    C258    1.112   .     S
H97    N112    1.032   .     S
H99    C439    1.112   1_545 S
H106   C125    1.084   .     S
N109   H151    1.029   .     S
N109   N170    1.285   .     S
N111   C444    1.430   1_545 S
N112   C265    1.432   .     S
C121   O175    1.285   .     A
C121   C144    1.426   .     S
C121   O173    1.287   .     A
C122   C124    1.466   .     S
C122   O178    1.300   .     A
C122   O180    1.294   .     A
C123   C129    1.400   .     A
C123   C127    1.398   .     A
C123   C146    1.468   .     S
C124   C128    1.397   .     A
C124   C130    1.399   .     A
C125   C134    1.405   .     A
C125   C127    1.393   .     A
C126   C128    1.393   .     A
C126   C135    1.405   .     A
C126   H47     1.084   1_655 S
C127   H165    1.083   .     S
C128   H164    1.083   .     S
C129   C131    1.406   .     A
C129   H163    1.075   .     S
C130   H162    1.075   .     S
C130   C133    1.406   .     A
C131   C134    1.418   .     A
C131   C136    1.429   .     A
C132   C145    1.434   .     S
C132   O176    1.290   .     A
C132   O174    1.285   .     A
C133   C137    1.429   .     A
C133   C135    1.418   .     A
C134   C682    1.389   .     S
C135   C683    1.390   1_554 S
C136   C141    1.417   .     A
C136   C677    1.426   .     S
C137   C140    1.417   .     A
C137   C676    1.426   1_554 S
C138   H154    1.110   .     S
C138   N171    1.447   .     S
C138   H156    1.110   .     S
C138   H515    1.112   1_545 S
C139   H158    1.110   .     S
C139   H161    1.111   .     S
C139   N172    1.447   .     S
C139   H339    1.112   .     S
C140   H168    1.076   .     S
C140   C142    1.387   .     A
C141   H150    1.076   .     S
C141   C143    1.387   .     A
C142   C674    1.389   1_554 S
C143   H160    1.084   .     S
C143   C675    1.390   .     S
C144   C325    1.356   .     S
C144   N351    1.430   .     S
C145   C504    1.356   1_545 S
C145   N532    1.432   1_545 S
C146   O177    1.301   .     A
C146   O179    1.294   .     A
Cu147  O173    1.974   .     S
Cu147  N170    2.017   .     S
Cu147  O180    1.920   .     S
Cu147  O177    1.942   .     S
Cu147  Cu148   2.684   .     S
Cu147  O176    1.967   .     S
Cu148  O178    1.942   .     S
Cu148  O175    1.967   .     S
Cu148  O179    1.920   .     S
Cu148  O174    1.974   .     S
Cu148  N169    2.017   .     S
H149   C22     1.085   1_655 S
H152   N50     1.028   1_655 S
H153   N171    1.030   .     S
H155   C318    1.112   .     S
H157   N172    1.032   .     S
H159   C499    1.112   1_545 S
H166   C5      1.084   1_655 S
N169   H31     1.029   1_655 S
N169   N50     1.285   1_655 S
N171   C504    1.430   1_545 S
N172   C325    1.432   .     S
C181   O235    1.285   .     A
C181   C204    1.426   .     S
C181   O233    1.287   .     A
C182   C184    1.466   .     S
C182   O238    1.300   .     A
C182   O240    1.294   .     A
C183   C189    1.400   .     A
C183   C187    1.398   .     A
C183   C206    1.468   .     S
C184   C188    1.397   .     A
C184   C190    1.399   .     A
C185   C194    1.405   .     A
C185   C187    1.393   .     A
C185   H346    1.084   1_455 S
C186   C188    1.393   .     A
C186   C195    1.405   .     A
C186   H287    1.084   .     S
C187   H225    1.083   .     S
C188   H224    1.083   .     S
C189   C191    1.406   .     A
C189   H223    1.075   .     S
C190   H222    1.075   .     S
C190   C193    1.406   .     A
C191   C194    1.418   .     A
C191   C196    1.429   .     A
C192   C205    1.434   .     S
C192   O236    1.290   .     A
C192   O234    1.285   .     A
C193   C197    1.429   .     A
C193   C195    1.418   .     A
C194   C742    1.389   .     S
C195   C743    1.390   1_554 S
C196   C201    1.417   .     A
C196   C737    1.426   .     S
C197   C200    1.417   .     A
C197   C736    1.426   1_554 S
C198   H214    1.110   .     S
C198   N231    1.447   .     S
C198   H216    1.110   .     S
C199   H218    1.110   .     S
C199   H221    1.111   .     S
C199   N232    1.447   .     S
C199   H399    1.112   .     S
C200   H228    1.076   .     S
C200   C202    1.387   .     A
C201   H210    1.076   .     S
C201   C203    1.387   .     A
C202   C734    1.389   1_554 S
C202   H329    1.085   1_455 S
C203   H220    1.084   .     S
C203   C735    1.390   .     S
C204   C385    1.356   .     S
C204   N411    1.430   .     S
C206   O237    1.301   .     A
C206   O239    1.294   .     A
Cu207  O233    1.974   .     S
Cu207  N230    2.017   .     S
Cu207  O240    1.920   .     S
Cu207  O237    1.942   .     S
Cu207  Cu208   2.684   .     S
Cu207  O236    1.967   .     S
Cu208  O238    1.942   .     S
Cu208  O235    1.967   .     S
Cu208  O239    1.920   .     S
Cu208  O234    1.974   .     S
Cu208  N229    2.017   .     S
H209   C262    1.085   .     S
H211   N349    1.029   1_455 S
H212   N290    1.028   .     S
H213   N231    1.030   .     S
H215   C378    1.112   .     S
H217   N232    1.032   .     S
H226   C245    1.084   .     S
H227   C306    1.084   1_455 S
N229   H271    1.029   .     S
N229   N290    1.285   .     S
N230   H332    1.028   1_455 S
N230   N349    1.285   1_455 S
N232   C385    1.432   .     S
C241   O295    1.285   .     A
C241   C264    1.426   .     S
C241   O293    1.287   .     A
C242   C244    1.466   .     S
C242   O298    1.300   .     A
C242   O300    1.294   .     A
C243   C249    1.400   .     A
C243   C247    1.398   .     A
C243   C266    1.468   .     S
C244   C248    1.397   .     A
C244   C250    1.399   .     A
C245   C254    1.405   .     A
C245   C247    1.393   .     A
C246   C248    1.393   .     A
C246   C255    1.405   .     A
C246   H347    1.084   .     S
C247   H285    1.083   .     S
C248   H284    1.083   .     S
C249   C251    1.406   .     A
C249   H283    1.075   .     S
C250   H282    1.075   .     S
C250   C253    1.406   .     A
C251   C254    1.418   .     A
C251   C256    1.429   .     A
C252   C265    1.434   .     S
C252   O296    1.290   .     A
C252   O294    1.285   .     A
C253   C257    1.429   .     A
C253   C255    1.418   .     A
C254   C802    1.389   .     S
C255   C803    1.390   1_554 S
C256   C261    1.417   .     A
C256   C797    1.426   .     S
C257   C260    1.417   .     A
C257   C796    1.426   1_554 S
C258   H274    1.110   .     S
C258   N291    1.447   .     S
C258   H276    1.110   .     S
C259   H278    1.110   .     S
C259   H281    1.111   .     S
C259   N292    1.447   .     S
C259   H459    1.112   .     S
C260   H288    1.076   .     S
C260   C262    1.387   .     A
C261   H270    1.076   .     S
C261   C263    1.387   .     A
C262   C794    1.389   1_554 S
C263   H280    1.084   .     S
C263   C795    1.390   .     S
C264   C445    1.356   .     S
C264   N471    1.430   .     S
C266   O297    1.301   .     A
C266   O299    1.294   .     A
Cu267  O293    1.974   .     S
Cu267  N290    2.017   .     S
Cu267  O300    1.920   .     S
Cu267  O297    1.942   .     S
Cu267  Cu268   2.684   .     S
Cu267  O296    1.967   .     S
Cu268  O298    1.942   .     S
Cu268  O295    1.967   .     S
Cu268  O299    1.920   .     S
Cu268  O294    1.974   .     S
Cu268  N289    2.017   .     S
H269   C322    1.085   .     S
H272   N350    1.028   .     S
H273   N291    1.030   .     S
H275   C438    1.112   .     S
H277   N292    1.032   .     S
H286   C305    1.084   .     S
N289   H331    1.029   .     S
N289   N350    1.285   .     S
N292   C445    1.432   .     S
C301   O355    1.285   .     A
C301   C324    1.426   .     S
C301   O353    1.287   .     A
C302   C304    1.466   .     S
C302   O358    1.300   .     A
C302   O360    1.294   .     A
C303   C309    1.400   .     A
C303   C307    1.398   .     A
C303   C326    1.468   .     S
C304   C308    1.397   .     A
C304   C310    1.399   .     A
C305   C314    1.405   .     A
C305   C307    1.393   .     A
C306   C308    1.393   .     A
C306   C315    1.405   .     A
C306   H227    1.084   1_655 S
C307   H345    1.083   .     S
C308   H344    1.083   .     S
C309   C311    1.406   .     A
C309   H343    1.075   .     S
C310   H342    1.075   .     S
C310   C313    1.406   .     A
C311   C314    1.418   .     A
C311   C316    1.429   .     A
C312   C325    1.434   .     S
C312   O356    1.290   .     A
C312   O354    1.285   .     A
C313   C317    1.429   .     A
C313   C315    1.418   .     A
C314   C862    1.389   .     S
C315   C863    1.390   1_554 S
C316   C321    1.417   .     A
C316   C857    1.426   .     S
C317   C320    1.417   .     A
C317   C856    1.426   1_554 S
C318   H334    1.110   .     S
C318   N351    1.447   .     S
C318   H336    1.110   .     S
C319   H338    1.110   .     S
C319   H341    1.111   .     S
C319   N352    1.447   .     S
C319   H519    1.112   .     S
C320   H348    1.076   .     S
C320   C322    1.387   .     A
C321   H330    1.076   .     S
C321   C323    1.387   .     A
C322   C854    1.389   1_554 S
C323   H340    1.084   .     S
C323   C855    1.390   .     S
C324   C505    1.356   .     S
C324   N531    1.430   .     S
C326   O357    1.301   .     A
C326   O359    1.294   .     A
Cu327  O353    1.974   .     S
Cu327  N350    2.017   .     S
Cu327  O360    1.920   .     S
Cu327  O357    1.942   .     S
Cu327  Cu328   2.684   .     S
Cu327  O356    1.967   .     S
Cu328  O358    1.942   .     S
Cu328  O355    1.967   .     S
Cu328  O359    1.920   .     S
Cu328  O354    1.974   .     S
Cu328  N349    2.017   .     S
H329   C202    1.085   1_655 S
H332   N230    1.028   1_655 S
H333   N351    1.030   .     S
H335   C498    1.112   .     S
H337   N352    1.032   .     S
H346   C185    1.084   1_655 S
N349   H211    1.029   1_655 S
N349   N230    1.285   1_655 S
N352   C505    1.432   .     S
C361   O415    1.285   .     A
C361   C384    1.426   .     S
C361   O413    1.287   .     A
C362   C364    1.466   .     S
C362   O418    1.300   .     A
C362   O420    1.294   .     A
C363   C369    1.400   .     A
C363   C367    1.398   .     A
C363   C386    1.468   .     S
C364   C368    1.397   .     A
C364   C370    1.399   .     A
C365   C374    1.405   .     A
C365   C367    1.393   .     A
C365   H526    1.084   1_455 S
C366   C368    1.393   .     A
C366   C375    1.405   .     A
C366   H467    1.084   .     S
C367   H405    1.083   .     S
C368   H404    1.083   .     S
C369   C371    1.406   .     A
C369   H403    1.075   .     S
C370   H402    1.075   .     S
C370   C373    1.406   .     A
C371   C374    1.418   .     A
C371   C376    1.429   .     A
C372   C385    1.434   .     S
C372   O416    1.290   .     A
C372   O414    1.285   .     A
C373   C377    1.429   .     A
C373   C375    1.418   .     A
C374   C922    1.389   .     S
C375   C923    1.390   1_554 S
C376   C381    1.417   .     A
C376   C917    1.426   .     S
C377   C380    1.417   .     A
C377   C916    1.426   1_554 S
C378   H394    1.110   .     S
C378   N411    1.447   .     S
C378   H396    1.110   .     S
C379   H398    1.110   .     S
C379   H401    1.111   .     S
C379   N412    1.447   .     S
C379   H39     1.112   1_565 S
C380   H408    1.076   .     S
C380   C382    1.387   .     A
C381   H390    1.076   .     S
C381   C383    1.387   .     A
C382   C914    1.389   1_554 S
C382   H509    1.085   1_455 S
C383   H400    1.084   .     S
C383   C915    1.390   .     S
C384   C25     1.356   1_565 S
C384   N51     1.430   1_565 S
C386   O417    1.301   .     A
C386   O419    1.294   .     A
Cu387  O413    1.974   .     S
Cu387  N410    2.017   .     S
Cu387  O420    1.920   .     S
Cu387  O417    1.942   .     S
Cu387  Cu388   2.684   .     S
Cu387  O416    1.967   .     S
Cu388  O418    1.942   .     S
Cu388  O415    1.967   .     S
Cu388  O419    1.920   .     S
Cu388  O414    1.974   .     S
Cu388  N409    2.017   .     S
H389   C442    1.085   .     S
H391   N529    1.029   1_455 S
H392   N470    1.028   .     S
H393   N411    1.030   .     S
H395   C18     1.112   1_565 S
H397   N412    1.032   .     S
H406   C425    1.084   .     S
H407   C486    1.084   1_455 S
N409   H451    1.029   .     S
N409   N470    1.285   .     S
N410   H512    1.028   1_455 S
N410   N529    1.285   1_455 S
N412   C25     1.432   1_565 S
C421   O475    1.285   .     A
C421   C444    1.426   .     S
C421   O473    1.287   .     A
C422   C424    1.466   .     S
C422   O478    1.300   .     A
C422   O480    1.294   .     A
C423   C429    1.400   .     A
C423   C427    1.398   .     A
C423   C446    1.468   .     S
C424   C428    1.397   .     A
C424   C430    1.399   .     A
C425   C434    1.405   .     A
C425   C427    1.393   .     A
C426   C428    1.393   .     A
C426   C435    1.405   .     A
C426   H527    1.084   .     S
C427   H465    1.083   .     S
C428   H464    1.083   .     S
C429   C431    1.406   .     A
C429   H463    1.075   .     S
C430   H462    1.075   .     S
C430   C433    1.406   .     A
C431   C434    1.418   .     A
C431   C436    1.429   .     A
C432   C445    1.434   .     S
C432   O476    1.290   .     A
C432   O474    1.285   .     A
C433   C437    1.429   .     A
C433   C435    1.418   .     A
C434   C982    1.389   .     S
C435   C983    1.390   1_554 S
C436   C441    1.417   .     A
C436   C977    1.426   .     S
C437   C440    1.417   .     A
C437   C976    1.426   1_554 S
C438   H454    1.110   .     S
C438   N471    1.447   .     S
C438   H456    1.110   .     S
C439   H458    1.110   .     S
C439   H461    1.111   .     S
C439   N472    1.447   .     S
C439   H99     1.112   1_565 S
C440   H468    1.076   .     S
C440   C442    1.387   .     A
C441   H450    1.076   .     S
C441   C443    1.387   .     A
C442   C974    1.389   1_554 S
C443   H460    1.084   .     S
C443   C975    1.390   .     S
C444   C85     1.356   1_565 S
C444   N111    1.430   1_565 S
C446   O477    1.301   .     A
C446   O479    1.294   .     A
Cu447  O473    1.974   .     S
Cu447  N470    2.017   .     S
Cu447  O480    1.920   .     S
Cu447  O477    1.942   .     S
Cu447  Cu448   2.684   .     S
Cu447  O476    1.967   .     S
Cu448  O478    1.942   .     S
Cu448  O475    1.967   .     S
Cu448  O479    1.920   .     S
Cu448  O474    1.974   .     S
Cu448  N469    2.017   .     S
H449   C502    1.085   .     S
H452   N530    1.028   .     S
H453   N471    1.030   .     S
H455   C78     1.112   1_565 S
H457   N472    1.032   .     S
H466   C485    1.084   .     S
N469   H511    1.029   .     S
N469   N530    1.285   .     S
N472   C85     1.432   1_565 S
C481   O535    1.285   .     A
C481   C504    1.426   .     S
C481   O533    1.287   .     A
C482   C484    1.466   .     S
C482   O538    1.300   .     A
C482   O540    1.294   .     A
C483   C489    1.400   .     A
C483   C487    1.398   .     A
C483   C506    1.468   .     S
C484   C488    1.397   .     A
C484   C490    1.399   .     A
C485   C494    1.405   .     A
C485   C487    1.393   .     A
C486   C488    1.393   .     A
C486   C495    1.405   .     A
C486   H407    1.084   1_655 S
C487   H525    1.083   .     S
C488   H524    1.083   .     S
C489   C491    1.406   .     A
C489   H523    1.075   .     S
C490   H522    1.075   .     S
C490   C493    1.406   .     A
C491   C494    1.418   .     A
C491   C496    1.429   .     A
C492   C505    1.434   .     S
C492   O536    1.290   .     A
C492   O534    1.285   .     A
C493   C497    1.429   .     A
C493   C495    1.418   .     A
C494   C1042   1.389   .     S
C495   C1043   1.390   1_554 S
C496   C501    1.417   .     A
C496   C1037   1.426   .     S
C497   C500    1.417   .     A
C497   C1036   1.426   1_554 S
C498   H514    1.110   .     S
C498   N531    1.447   .     S
C498   H516    1.110   .     S
C499   H518    1.110   .     S
C499   H521    1.111   .     S
C499   N532    1.447   .     S
C499   H159    1.112   1_565 S
C500   H528    1.076   .     S
C500   C502    1.387   .     A
C501   H510    1.076   .     S
C501   C503    1.387   .     A
C502   C1034   1.389   1_554 S
C503   H520    1.084   .     S
C503   C1035   1.390   .     S
C504   C145    1.356   1_565 S
C504   N171    1.430   1_565 S
C506   O537    1.301   .     A
C506   O539    1.294   .     A
Cu507  O533    1.974   .     S
Cu507  N530    2.017   .     S
Cu507  O540    1.920   .     S
Cu507  O537    1.942   .     S
Cu507  Cu508   2.684   .     S
Cu507  O536    1.967   .     S
Cu508  O538    1.942   .     S
Cu508  O535    1.967   .     S
Cu508  O539    1.920   .     S
Cu508  O534    1.974   .     S
Cu508  N529    2.017   .     S
H509   C382    1.085   1_655 S
H512   N410    1.028   1_655 S
H513   N531    1.030   .     S
H515   C138    1.112   1_565 S
H517   N532    1.032   .     S
H526   C365    1.084   1_655 S
N529   H391    1.029   1_655 S
N529   N410    1.285   1_655 S
N532   C145    1.432   1_565 S
C541   O595    1.285   .     A
C541   C564    1.426   .     S
C541   O593    1.287   .     A
C542   C544    1.466   .     S
C542   O598    1.300   .     A
C542   O600    1.294   .     A
C543   C549    1.400   .     A
C543   C547    1.398   .     A
C543   C566    1.468   .     S
C544   C548    1.397   .     A
C544   C550    1.399   .     A
C545   C554    1.405   .     A
C545   C547    1.393   .     A
C545   H706    1.084   1_455 S
C546   C548    1.393   .     A
C546   C555    1.405   .     A
C546   H647    1.084   .     S
C547   H585    1.083   .     S
C548   H584    1.083   .     S
C549   C551    1.406   .     A
C549   H583    1.075   .     S
C550   H582    1.075   .     S
C550   C553    1.406   .     A
C551   C554    1.418   .     A
C551   C556    1.429   .     A
C552   C565    1.434   .     S
C552   O596    1.290   .     A
C552   O594    1.285   .     A
C553   C557    1.429   .     A
C553   C555    1.418   .     A
C554   C22     1.389   1_556 S
C556   C561    1.417   .     A
C556   C17     1.426   1_556 S
C557   C560    1.417   .     A
C558   H574    1.110   .     S
C558   N591    1.447   .     S
C558   H576    1.110   .     S
C558   H935    1.112   1_545 S
C559   H578    1.110   .     S
C559   H581    1.111   .     S
C559   N592    1.447   .     S
C559   H759    1.112   .     S
C560   H588    1.076   .     S
C560   C562    1.387   .     A
C561   H570    1.076   .     S
C561   C563    1.387   .     A
C562   H689    1.085   1_455 S
C563   H580    1.084   .     S
C563   C15     1.390   1_556 S
C564   C745    1.356   .     S
C564   N771    1.430   .     S
C565   C924    1.356   1_545 S
C565   N952    1.432   1_545 S
C566   O597    1.301   .     A
C566   O599    1.294   .     A
Cu567  O593    1.974   .     S
Cu567  N590    2.017   .     S
Cu567  O600    1.920   .     S
Cu567  O597    1.942   .     S
Cu567  Cu568   2.684   .     S
Cu567  O596    1.967   .     S
Cu568  O598    1.942   .     S
Cu568  O595    1.967   .     S
Cu568  O599    1.920   .     S
Cu568  O594    1.974   .     S
Cu568  N589    2.017   .     S
H569   C622    1.085   .     S
H571   N709    1.029   1_455 S
H572   N650    1.028   .     S
H573   N591    1.030   .     S
H575   C738    1.112   .     S
H577   N592    1.032   .     S
H579   C919    1.112   1_545 S
H586   C605    1.084   .     S
H587   C666    1.084   1_455 S
N589   H631    1.029   .     S
N589   N650    1.285   .     S
N590   H692    1.028   1_455 S
N590   N709    1.285   1_455 S
N591   C924    1.430   1_545 S
N592   C745    1.432   .     S
C601   O655    1.285   .     A
C601   C624    1.426   .     S
C601   O653    1.287   .     A
C602   C604    1.466   .     S
C602   O658    1.300   .     A
C602   O660    1.294   .     A
C603   C609    1.400   .     A
C603   C607    1.398   .     A
C603   C626    1.468   .     S
C604   C608    1.397   .     A
C604   C610    1.399   .     A
C605   C614    1.405   .     A
C605   C607    1.393   .     A
C606   C608    1.393   .     A
C606   C615    1.405   .     A
C606   H707    1.084   .     S
C607   H645    1.083   .     S
C608   H644    1.083   .     S
C609   C611    1.406   .     A
C609   H643    1.075   .     S
C610   H642    1.075   .     S
C610   C613    1.406   .     A
C611   C614    1.418   .     A
C611   C616    1.429   .     A
C612   C625    1.434   .     S
C612   O656    1.290   .     A
C612   O654    1.285   .     A
C613   C617    1.429   .     A
C613   C615    1.418   .     A
C614   C82     1.389   1_556 S
C616   C621    1.417   .     A
C616   C77     1.426   1_556 S
C617   C620    1.417   .     A
C618   H634    1.110   .     S
C618   N651    1.447   .     S
C618   H636    1.110   .     S
C618   H995    1.112   1_545 S
C619   H638    1.110   .     S
C619   H641    1.111   .     S
C619   N652    1.447   .     S
C619   H819    1.112   .     S
C620   H648    1.076   .     S
C620   C622    1.387   .     A
C621   H630    1.076   .     S
C621   C623    1.387   .     A
C623   H640    1.084   .     S
C623   C75     1.390   1_556 S
C624   C805    1.356   .     S
C624   N831    1.430   .     S
C625   C984    1.356   1_545 S
C625   N1012   1.432   1_545 S
C626   O657    1.301   .     A
C626   O659    1.294   .     A
Cu627  O653    1.974   .     S
Cu627  N650    2.017   .     S
Cu627  O660    1.920   .     S
Cu627  O657    1.942   .     S
Cu627  Cu628   2.684   .     S
Cu627  O656    1.967   .     S
Cu628  O658    1.942   .     S
Cu628  O655    1.967   .     S
Cu628  O659    1.920   .     S
Cu628  O654    1.974   .     S
Cu628  N649    2.017   .     S
H629   C682    1.085   .     S
H632   N710    1.028   .     S
H633   N651    1.030   .     S
H635   C798    1.112   .     S
H637   N652    1.032   .     S
H639   C979    1.112   1_545 S
H646   C665    1.084   .     S
N649   H691    1.029   .     S
N649   N710    1.285   .     S
N651   C984    1.430   1_545 S
N652   C805    1.432   .     S
C661   O715    1.285   .     A
C661   C684    1.426   .     S
C661   O713    1.287   .     A
C662   C664    1.466   .     S
C662   O718    1.300   .     A
C662   O720    1.294   .     A
C663   C669    1.400   .     A
C663   C667    1.398   .     A
C663   C686    1.468   .     S
C664   C668    1.397   .     A
C664   C670    1.399   .     A
C665   C674    1.405   .     A
C665   C667    1.393   .     A
C666   C668    1.393   .     A
C666   C675    1.405   .     A
C666   H587    1.084   1_655 S
C667   H705    1.083   .     S
C668   H704    1.083   .     S
C669   C671    1.406   .     A
C669   H703    1.075   .     S
C670   H702    1.075   .     S
C670   C673    1.406   .     A
C671   C674    1.418   .     A
C671   C676    1.429   .     A
C672   C685    1.434   .     S
C672   O716    1.290   .     A
C672   O714    1.285   .     A
C673   C677    1.429   .     A
C673   C675    1.418   .     A
C674   C142    1.389   1_556 S
C676   C681    1.417   .     A
C676   C137    1.426   1_556 S
C677   C680    1.417   .     A
C678   H694    1.110   .     S
C678   N711    1.447   .     S
C678   H696    1.110   .     S
C678   H1055   1.112   1_545 S
C679   H698    1.110   .     S
C679   H701    1.111   .     S
C679   N712    1.447   .     S
C679   H879    1.112   .     S
C680   H708    1.076   .     S
C680   C682    1.387   .     A
C681   H690    1.076   .     S
C681   C683    1.387   .     A
C683   H700    1.084   .     S
C683   C135    1.390   1_556 S
C684   C865    1.356   .     S
C684   N891    1.430   .     S
C685   C1044   1.356   1_545 S
C685   N1072   1.432   1_545 S
C686   O717    1.301   .     A
C686   O719    1.294   .     A
Cu687  O713    1.974   .     S
Cu687  N710    2.017   .     S
Cu687  O720    1.920   .     S
Cu687  O717    1.942   .     S
Cu687  Cu688   2.684   .     S
Cu687  O716    1.967   .     S
Cu688  O718    1.942   .     S
Cu688  O715    1.967   .     S
Cu688  O719    1.920   .     S
Cu688  O714    1.974   .     S
Cu688  N709    2.017   .     S
H689   C562    1.085   1_655 S
H692   N590    1.028   1_655 S
H693   N711    1.030   .     S
H695   C858    1.112   .     S
H697   N712    1.032   .     S
H699   C1039   1.112   1_545 S
H706   C545    1.084   1_655 S
N709   H571    1.029   1_655 S
N709   N590    1.285   1_655 S
N711   C1044   1.430   1_545 S
N712   C865    1.432   .     S
C721   O775    1.285   .     A
C721   C744    1.426   .     S
C721   O773    1.287   .     A
C722   C724    1.466   .     S
C722   O778    1.300   .     A
C722   O780    1.294   .     A
C723   C729    1.400   .     A
C723   C727    1.398   .     A
C723   C746    1.468   .     S
C724   C728    1.397   .     A
C724   C730    1.399   .     A
C725   C734    1.405   .     A
C725   C727    1.393   .     A
C725   H886    1.084   1_455 S
C726   C728    1.393   .     A
C726   C735    1.405   .     A
C726   H827    1.084   .     S
C727   H765    1.083   .     S
C728   H764    1.083   .     S
C729   C731    1.406   .     A
C729   H763    1.075   .     S
C730   H762    1.075   .     S
C730   C733    1.406   .     A
C731   C734    1.418   .     A
C731   C736    1.429   .     A
C732   C745    1.434   .     S
C732   O776    1.290   .     A
C732   O774    1.285   .     A
C733   C737    1.429   .     A
C733   C735    1.418   .     A
C734   C202    1.389   1_556 S
C736   C741    1.417   .     A
C736   C197    1.426   1_556 S
C737   C740    1.417   .     A
C738   H754    1.110   .     S
C738   N771    1.447   .     S
C738   H756    1.110   .     S
C739   H758    1.110   .     S
C739   H761    1.111   .     S
C739   N772    1.447   .     S
C739   H939    1.112   .     S
C740   H768    1.076   .     S
C740   C742    1.387   .     A
C741   H750    1.076   .     S
C741   C743    1.387   .     A
C742   H869    1.085   1_455 S
C743   H760    1.084   .     S
C743   C195    1.390   1_556 S
C744   C925    1.356   .     S
C744   N951    1.430   .     S
C746   O777    1.301   .     A
C746   O779    1.294   .     A
Cu747  O773    1.974   .     S
Cu747  N770    2.017   .     S
Cu747  O780    1.920   .     S
Cu747  O777    1.942   .     S
Cu747  Cu748   2.684   .     S
Cu747  O776    1.967   .     S
Cu748  O778    1.942   .     S
Cu748  O775    1.967   .     S
Cu748  O779    1.920   .     S
Cu748  O774    1.974   .     S
Cu748  N769    2.017   .     S
H749   C802    1.085   .     S
H751   N889    1.029   1_455 S
H752   N830    1.028   .     S
H753   N771    1.030   .     S
H755   C918    1.112   .     S
H757   N772    1.032   .     S
H766   C785    1.084   .     S
H767   C846    1.084   1_455 S
N769   H811    1.029   .     S
N769   N830    1.285   .     S
N770   H872    1.028   1_455 S
N770   N889    1.285   1_455 S
N772   C925    1.432   .     S
C781   O835    1.285   .     A
C781   C804    1.426   .     S
C781   O833    1.287   .     A
C782   C784    1.466   .     S
C782   O838    1.300   .     A
C782   O840    1.294   .     A
C783   C789    1.400   .     A
C783   C787    1.398   .     A
C783   C806    1.468   .     S
C784   C788    1.397   .     A
C784   C790    1.399   .     A
C785   C794    1.405   .     A
C785   C787    1.393   .     A
C786   C788    1.393   .     A
C786   C795    1.405   .     A
C786   H887    1.084   .     S
C787   H825    1.083   .     S
C788   H824    1.083   .     S
C789   C791    1.406   .     A
C789   H823    1.075   .     S
C790   H822    1.075   .     S
C790   C793    1.406   .     A
C791   C794    1.418   .     A
C791   C796    1.429   .     A
C792   C805    1.434   .     S
C792   O836    1.290   .     A
C792   O834    1.285   .     A
C793   C797    1.429   .     A
C793   C795    1.418   .     A
C794   C262    1.389   1_556 S
C796   C801    1.417   .     A
C796   C257    1.426   1_556 S
C797   C800    1.417   .     A
C798   H814    1.110   .     S
C798   N831    1.447   .     S
C798   H816    1.110   .     S
C799   H818    1.110   .     S
C799   H821    1.111   .     S
C799   N832    1.447   .     S
C799   H999    1.112   .     S
C800   H828    1.076   .     S
C800   C802    1.387   .     A
C801   H810    1.076   .     S
C801   C803    1.387   .     A
C803   H820    1.084   .     S
C803   C255    1.390   1_556 S
C804   C985    1.356   .     S
C804   N1011   1.430   .     S
C806   O837    1.301   .     A
C806   O839    1.294   .     A
Cu807  O833    1.974   .     S
Cu807  N830    2.017   .     S
Cu807  O840    1.920   .     S
Cu807  O837    1.942   .     S
Cu807  Cu808   2.684   .     S
Cu807  O836    1.967   .     S
Cu808  O838    1.942   .     S
Cu808  O835    1.967   .     S
Cu808  O839    1.920   .     S
Cu808  O834    1.974   .     S
Cu808  N829    2.017   .     S
H809   C862    1.085   .     S
H812   N890    1.028   .     S
H813   N831    1.030   .     S
H815   C978    1.112   .     S
H817   N832    1.032   .     S
H826   C845    1.084   .     S
N829   H871    1.029   .     S
N829   N890    1.285   .     S
N832   C985    1.432   .     S
C841   O895    1.285   .     A
C841   C864    1.426   .     S
C841   O893    1.287   .     A
C842   C844    1.466   .     S
C842   O898    1.300   .     A
C842   O900    1.294   .     A
C843   C849    1.400   .     A
C843   C847    1.398   .     A
C843   C866    1.468   .     S
C844   C848    1.397   .     A
C844   C850    1.399   .     A
C845   C854    1.405   .     A
C845   C847    1.393   .     A
C846   C848    1.393   .     A
C846   C855    1.405   .     A
C846   H767    1.084   1_655 S
C847   H885    1.083   .     S
C848   H884    1.083   .     S
C849   C851    1.406   .     A
C849   H883    1.075   .     S
C850   H882    1.075   .     S
C850   C853    1.406   .     A
C851   C854    1.418   .     A
C851   C856    1.429   .     A
C852   C865    1.434   .     S
C852   O896    1.290   .     A
C852   O894    1.285   .     A
C853   C857    1.429   .     A
C853   C855    1.418   .     A
C854   C322    1.389   1_556 S
C856   C861    1.417   .     A
C856   C317    1.426   1_556 S
C857   C860    1.417   .     A
C858   H874    1.110   .     S
C858   N891    1.447   .     S
C858   H876    1.110   .     S
C859   H878    1.110   .     S
C859   H881    1.111   .     S
C859   N892    1.447   .     S
C859   H1059   1.112   .     S
C860   H888    1.076   .     S
C860   C862    1.387   .     A
C861   H870    1.076   .     S
C861   C863    1.387   .     A
C863   H880    1.084   .     S
C863   C315    1.390   1_556 S
C864   C1045   1.356   .     S
C864   N1071   1.430   .     S
C866   O897    1.301   .     A
C866   O899    1.294   .     A
Cu867  O893    1.974   .     S
Cu867  N890    2.017   .     S
Cu867  O900    1.920   .     S
Cu867  O897    1.942   .     S
Cu867  Cu868   2.684   .     S
Cu867  O896    1.967   .     S
Cu868  O898    1.942   .     S
Cu868  O895    1.967   .     S
Cu868  O899    1.920   .     S
Cu868  O894    1.974   .     S
Cu868  N889    2.017   .     S
H869   C742    1.085   1_655 S
H872   N770    1.028   1_655 S
H873   N891    1.030   .     S
H875   C1038   1.112   .     S
H877   N892    1.032   .     S
H886   C725    1.084   1_655 S
N889   H751    1.029   1_655 S
N889   N770    1.285   1_655 S
N892   C1045   1.432   .     S
C901   O955    1.285   .     A
C901   C924    1.426   .     S
C901   O953    1.287   .     A
C902   C904    1.466   .     S
C902   O958    1.300   .     A
C902   O960    1.294   .     A
C903   C909    1.400   .     A
C903   C907    1.398   .     A
C903   C926    1.468   .     S
C904   C908    1.397   .     A
C904   C910    1.399   .     A
C905   C914    1.405   .     A
C905   C907    1.393   .     A
C905   H1066   1.084   1_455 S
C906   C908    1.393   .     A
C906   C915    1.405   .     A
C906   H1007   1.084   .     S
C907   H945    1.083   .     S
C908   H944    1.083   .     S
C909   C911    1.406   .     A
C909   H943    1.075   .     S
C910   H942    1.075   .     S
C910   C913    1.406   .     A
C911   C914    1.418   .     A
C911   C916    1.429   .     A
C912   C925    1.434   .     S
C912   O956    1.290   .     A
C912   O954    1.285   .     A
C913   C917    1.429   .     A
C913   C915    1.418   .     A
C914   C382    1.389   1_556 S
C916   C921    1.417   .     A
C916   C377    1.426   1_556 S
C917   C920    1.417   .     A
C918   H934    1.110   .     S
C918   N951    1.447   .     S
C918   H936    1.110   .     S
C919   H938    1.110   .     S
C919   H941    1.111   .     S
C919   N952    1.447   .     S
C919   H579    1.112   1_565 S
C920   H948    1.076   .     S
C920   C922    1.387   .     A
C921   H930    1.076   .     S
C921   C923    1.387   .     A
C922   H1049   1.085   1_455 S
C923   H940    1.084   .     S
C923   C375    1.390   1_556 S
C924   C565    1.356   1_565 S
C924   N591    1.430   1_565 S
C926   O957    1.301   .     A
C926   O959    1.294   .     A
Cu927  O953    1.974   .     S
Cu927  N950    2.017   .     S
Cu927  O960    1.920   .     S
Cu927  O957    1.942   .     S
Cu927  Cu928   2.684   .     S
Cu927  O956    1.967   .     S
Cu928  O958    1.942   .     S
Cu928  O955    1.967   .     S
Cu928  O959    1.920   .     S
Cu928  O954    1.974   .     S
Cu928  N949    2.017   .     S
H929   C982    1.085   .     S
H931   N1069   1.029   1_455 S
H932   N1010   1.028   .     S
H933   N951    1.030   .     S
H935   C558    1.112   1_565 S
H937   N952    1.032   .     S
H946   C965    1.084   .     S
H947   C1026   1.084   1_455 S
N949   H991    1.029   .     S
N949   N1010   1.285   .     S
N950   H1052   1.028   1_455 S
N950   N1069   1.285   1_455 S
N952   C565    1.432   1_565 S
C961   O1015   1.285   .     A
C961   C984    1.426   .     S
C961   O1013   1.287   .     A
C962   C964    1.466   .     S
C962   O1018   1.300   .     A
C962   O1020   1.294   .     A
C963   C969    1.400   .     A
C963   C967    1.398   .     A
C963   C986    1.468   .     S
C964   C968    1.397   .     A
C964   C970    1.399   .     A
C965   C974    1.405   .     A
C965   C967    1.393   .     A
C966   C968    1.393   .     A
C966   C975    1.405   .     A
C966   H1067   1.084   .     S
C967   H1005   1.083   .     S
C968   H1004   1.083   .     S
C969   C971    1.406   .     A
C969   H1003   1.075   .     S
C970   H1002   1.075   .     S
C970   C973    1.406   .     A
C971   C974    1.418   .     A
C971   C976    1.429   .     A
C972   C985    1.434   .     S
C972   O1016   1.290   .     A
C972   O1014   1.285   .     A
C973   C977    1.429   .     A
C973   C975    1.418   .     A
C974   C442    1.389   1_556 S
C976   C981    1.417   .     A
C976   C437    1.426   1_556 S
C977   C980    1.417   .     A
C978   H994    1.110   .     S
C978   N1011   1.447   .     S
C978   H996    1.110   .     S
C979   H998    1.110   .     S
C979   H1001   1.111   .     S
C979   N1012   1.447   .     S
C979   H639    1.112   1_565 S
C980   H1008   1.076   .     S
C980   C982    1.387   .     A
C981   H990    1.076   .     S
C981   C983    1.387   .     A
C983   H1000   1.084   .     S
C983   C435    1.390   1_556 S
C984   C625    1.356   1_565 S
C984   N651    1.430   1_565 S
C986   O1017   1.301   .     A
C986   O1019   1.294   .     A
Cu987  O1013   1.974   .     S
Cu987  N1010   2.017   .     S
Cu987  O1020   1.920   .     S
Cu987  O1017   1.942   .     S
Cu987  Cu988   2.684   .     S
Cu987  O1016   1.967   .     S
Cu988  O1018   1.942   .     S
Cu988  O1015   1.967   .     S
Cu988  O1019   1.920   .     S
Cu988  O1014   1.974   .     S
Cu988  N1009   2.017   .     S
H989   C1042   1.085   .     S
H992   N1070   1.028   .     S
H993   N1011   1.030   .     S
H995   C618    1.112   1_565 S
H997   N1012   1.032   .     S
H1006  C1025   1.084   .     S
N1009  H1051   1.029   .     S
N1009  N1070   1.285   .     S
N1012  C625    1.432   1_565 S
C1021  O1075   1.285   .     A
C1021  C1044   1.426   .     S
C1021  O1073   1.287   .     A
C1022  C1024   1.466   .     S
C1022  O1078   1.300   .     A
C1022  O1080   1.294   .     A
C1023  C1029   1.400   .     A
C1023  C1027   1.398   .     A
C1023  C1046   1.468   .     S
C1024  C1028   1.397   .     A
C1024  C1030   1.399   .     A
C1025  C1034   1.405   .     A
C1025  C1027   1.393   .     A
C1026  C1028   1.393   .     A
C1026  C1035   1.405   .     A
C1026  H947    1.084   1_655 S
C1027  H1065   1.083   .     S
C1028  H1064   1.083   .     S
C1029  C1031   1.406   .     A
C1029  H1063   1.075   .     S
C1030  H1062   1.075   .     S
C1030  C1033   1.406   .     A
C1031  C1034   1.418   .     A
C1031  C1036   1.429   .     A
C1032  C1045   1.434   .     S
C1032  O1076   1.290   .     A
C1032  O1074   1.285   .     A
C1033  C1037   1.429   .     A
C1033  C1035   1.418   .     A
C1034  C502    1.389   1_556 S
C1036  C1041   1.417   .     A
C1036  C497    1.426   1_556 S
C1037  C1040   1.417   .     A
C1038  H1054   1.110   .     S
C1038  N1071   1.447   .     S
C1038  H1056   1.110   .     S
C1039  H1058   1.110   .     S
C1039  H1061   1.111   .     S
C1039  N1072   1.447   .     S
C1039  H699    1.112   1_565 S
C1040  H1068   1.076   .     S
C1040  C1042   1.387   .     A
C1041  H1050   1.076   .     S
C1041  C1043   1.387   .     A
C1043  H1060   1.084   .     S
C1043  C495    1.390   1_556 S
C1044  C685    1.356   1_565 S
C1044  N711    1.430   1_565 S
C1046  O1077   1.301   .     A
C1046  O1079   1.294   .     A
Cu1047 O1073   1.974   .     S
Cu1047 N1070   2.017   .     S
Cu1047 O1080   1.920   .     S
Cu1047 O1077   1.942   .     S
Cu1047 Cu1048  2.684   .     S
Cu1047 O1076   1.967   .     S
Cu1048 O1078   1.942   .     S
Cu1048 O1075   1.967   .     S
Cu1048 O1079   1.920   .     S
Cu1048 O1074   1.974   .     S
Cu1048 N1069   2.017   .     S
H1049  C922    1.085   1_655 S
H1052  N950    1.028   1_655 S
H1053  N1071   1.030   .     S
H1055  C678    1.112   1_565 S
H1057  N1072   1.032   .     S
H1066  C905    1.084   1_655 S
N1069  H931    1.029   1_655 S
N1069  N950    1.285   1_655 S
N1072  C685    1.432   1_565 S
