data_str_m2_o1_o16_pcu_sym.83
_audit_creation_date              2020-01-03
_audit_creation_method            'Materials Studio'
_symmetry_space_group_name_H-M    'P1'
_symmetry_Int_Tables_number       1
_symmetry_cell_setting            triclinic
loop_
_symmetry_equiv_pos_as_xyz
  x,y,z
_cell_length_a                    28.6793
_cell_length_b                    32.5066
_cell_length_c                    26.9842
_cell_angle_alpha                 91.1823
_cell_angle_beta                  72.4910
_cell_angle_gamma                 89.3264
loop_
_atom_site_label
_atom_site_type_symbol
_atom_site_fract_x
_atom_site_fract_y
_atom_site_fract_z
_atom_site_U_iso_or_equiv
_atom_site_adp_type
_atom_site_occupancy
C1     C     0.16649   0.24593   0.25002   0.00000  Uiso   1.00
C2     C     0.12615   0.15696   0.40597   0.00000  Uiso   1.00
C3     C     0.20977   0.31088   0.22273   0.00000  Uiso   1.00
C4     C     0.14042   0.16560   0.34996   0.00000  Uiso   1.00
C5     C     0.20986   0.02056   0.22310   0.00000  Uiso   1.00
C6     C     0.16733   0.04292   0.24940   0.00000  Uiso   1.00
C7     C     0.12451   0.02277   0.27532   0.00000  Uiso   1.00
C8     C     0.12373   0.31323   0.27597   0.00000  Uiso   1.00
C9     C     0.16652   0.29069   0.24946   0.00000  Uiso   1.00
C10    C     0.29921   0.19420   0.28083   0.00000  Uiso   1.00
C11    C     0.01566   0.19352   0.28136   0.00000  Uiso   1.00
C12    C     0.15646   0.15147   0.48154   0.00000  Uiso   1.00
C13    C     0.03451   0.13986   0.21904   0.00000  Uiso   1.00
C14    C     0.31891   0.13952   0.21860   0.00000  Uiso   1.00
C15    C     0.16698   0.08747   0.24961   0.00000  Uiso   1.00
C16    C     0.19277   0.16780   0.14997   0.00000  Uiso   1.00
C17    C     0.25404   0.20927   0.01668   0.00000  Uiso   1.00
C18    C     0.20703   0.17336   0.09318   0.00000  Uiso   1.00
C19    C     0.09381   0.12427   0.42495   0.00000  Uiso   1.00
C20    C     0.09897   0.10176   0.46635   0.00000  Uiso   1.00
C21    C     0.13184   0.11367   0.49249   0.00000  Uiso   1.00
C22    C     0.15553   0.17199   0.43604   0.00000  Uiso   1.00
C23    C     0.18454   0.16819   0.01240   0.00000  Uiso   1.00
C24    C     0.22048   0.19766   0.49057   0.00000  Uiso   1.00
C25    C     0.21994   0.21701   0.44483   0.00000  Uiso   1.00
C26    C     0.18554   0.20622   0.42027   0.00000  Uiso   1.00
C27    C     0.17514   0.15931   0.06566   0.00000  Uiso   1.00
C28    C     0.24783   0.19727   0.06750   0.00000  Uiso   1.00
Cu29   Cu    0.11978   0.16666   0.25000   0.00000  Uiso   1.00
Cu30   Cu    0.21355   0.16667   0.25000   0.00000  Uiso   1.00
F31    F     0.25073   0.04048   0.19637   0.00000  Uiso   1.00
F32    F     0.03001   0.21942   0.31375   0.00000  Uiso   1.00
F33    F     0.24996   0.24874   0.42598   0.00000  Uiso   1.00
F34    F     0.29143   0.23466   0.49430   0.00000  Uiso   1.00
F35    F     0.14189   0.08653   0.02565   0.00000  Uiso   1.00
F36    F     0.07323   0.06684   0.48001   0.00000  Uiso   1.00
H37    H     0.09193   0.04049   0.29592   0.00000  Uiso   1.00
H38    H     0.27811   0.30633   0.17940   0.00000  Uiso   1.00
H39    H     0.06091   0.11843   0.19417   0.00000  Uiso   1.00
H40    H     0.18339   0.22437   0.38783   0.00000  Uiso   1.00
H41    H     0.26022   0.22443   0.12626   0.00000  Uiso   1.00
H42    H     0.05573   0.31330   0.31949   0.00000  Uiso   1.00
H43    H     0.28281   0.24257   0.32666   0.00000  Uiso   1.00
H44    H     0.27610   0.11615   0.18282   0.00000  Uiso   1.00
H45    H     0.10529   0.15287   0.08122   0.00000  Uiso   1.00
H46    H     0.04596   0.13481   0.38968   0.00000  Uiso   1.00
N47    N     0.04931   0.16666   0.24998   0.00000  Uiso   1.00
N48    N     0.28402   0.16669   0.24999   0.00000  Uiso   1.00
O49    O     0.12708   0.22678   0.25000   0.00000  Uiso   1.00
O50    O     0.08222   0.29290   0.30335   0.00000  Uiso   1.00
O51    O     0.26571   0.22242   0.31065   0.00000  Uiso   1.00
O52    O     0.30885   0.11094   0.18521   0.00000  Uiso   1.00
O53    O     0.13202   0.14132   0.09331   0.00000  Uiso   1.00
O54    O     0.06106   0.11037   0.40041   0.00000  Uiso   1.00
O55    O     0.25081   0.28789   0.19574   0.00000  Uiso   1.00
O56    O     0.20627   0.22679   0.25000   0.00000  Uiso   1.00
O57    O     0.10775   0.16665   0.32549   0.00000  Uiso   1.00
O58    O     0.18694   0.16666   0.32549   0.00000  Uiso   1.00
O59    O     0.12706   0.10654   0.24999   0.00000  Uiso   1.00
O60    O     0.20625   0.10655   0.24999   0.00000  Uiso   1.00
O61    O     0.14640   0.16667   0.17451   0.00000  Uiso   1.00
O62    O     0.22559   0.16668   0.17451   0.00000  Uiso   1.00
O63    O     0.27981   0.21284   0.09204   0.00000  Uiso   1.00
C64    C     0.49982   0.24593   0.25002   0.00000  Uiso   1.00
C65    C     0.45948   0.15696   0.40597   0.00000  Uiso   1.00
C66    C     0.54311   0.31088   0.22273   0.00000  Uiso   1.00
C67    C     0.47375   0.16560   0.34996   0.00000  Uiso   1.00
C68    C     0.54319   0.02056   0.22310   0.00000  Uiso   1.00
C69    C     0.50067   0.04292   0.24940   0.00000  Uiso   1.00
C70    C     0.45785   0.02277   0.27532   0.00000  Uiso   1.00
C71    C     0.45706   0.31323   0.27597   0.00000  Uiso   1.00
C72    C     0.49985   0.29069   0.24946   0.00000  Uiso   1.00
C73    C     0.63255   0.19420   0.28083   0.00000  Uiso   1.00
C74    C     0.34899   0.19352   0.28136   0.00000  Uiso   1.00
C75    C     0.48979   0.15147   0.48154   0.00000  Uiso   1.00
C76    C     0.36785   0.13986   0.21904   0.00000  Uiso   1.00
C77    C     0.65225   0.13952   0.21860   0.00000  Uiso   1.00
C78    C     0.50032   0.08747   0.24961   0.00000  Uiso   1.00
C79    C     0.52610   0.16780   0.14997   0.00000  Uiso   1.00
C80    C     0.58737   0.20927   0.01668   0.00000  Uiso   1.00
C81    C     0.54037   0.17336   0.09318   0.00000  Uiso   1.00
C82    C     0.42714   0.12427   0.42495   0.00000  Uiso   1.00
C83    C     0.43230   0.10176   0.46635   0.00000  Uiso   1.00
C84    C     0.46517   0.11367   0.49249   0.00000  Uiso   1.00
C85    C     0.48886   0.17199   0.43604   0.00000  Uiso   1.00
C86    C     0.51787   0.16819   0.01240   0.00000  Uiso   1.00
C87    C     0.55381   0.19766   0.49057   0.00000  Uiso   1.00
C88    C     0.55328   0.21701   0.44483   0.00000  Uiso   1.00
C89    C     0.51887   0.20622   0.42027   0.00000  Uiso   1.00
C90    C     0.50847   0.15931   0.06566   0.00000  Uiso   1.00
C91    C     0.58117   0.19727   0.06750   0.00000  Uiso   1.00
Cu92   Cu    0.45311   0.16666   0.25000   0.00000  Uiso   1.00
Cu93   Cu    0.54689   0.16667   0.25000   0.00000  Uiso   1.00
F94    F     0.58406   0.04048   0.19637   0.00000  Uiso   1.00
F95    F     0.36334   0.21942   0.31375   0.00000  Uiso   1.00
F96    F     0.58330   0.24874   0.42598   0.00000  Uiso   1.00
F97    F     0.62476   0.23466   0.49430   0.00000  Uiso   1.00
F98    F     0.47523   0.08653   0.02565   0.00000  Uiso   1.00
F99    F     0.40657   0.06684   0.48001   0.00000  Uiso   1.00
H100   H     0.42526   0.04049   0.29592   0.00000  Uiso   1.00
H101   H     0.61144   0.30633   0.17940   0.00000  Uiso   1.00
H102   H     0.39424   0.11843   0.19417   0.00000  Uiso   1.00
H103   H     0.51673   0.22437   0.38783   0.00000  Uiso   1.00
H104   H     0.59355   0.22443   0.12626   0.00000  Uiso   1.00
H105   H     0.38906   0.31330   0.31949   0.00000  Uiso   1.00
H106   H     0.61614   0.24257   0.32666   0.00000  Uiso   1.00
H107   H     0.60943   0.11615   0.18282   0.00000  Uiso   1.00
H108   H     0.43862   0.15287   0.08122   0.00000  Uiso   1.00
H109   H     0.37929   0.13481   0.38968   0.00000  Uiso   1.00
N110   N     0.38265   0.16666   0.24998   0.00000  Uiso   1.00
N111   N     0.61735   0.16669   0.24999   0.00000  Uiso   1.00
O112   O     0.46042   0.22678   0.25000   0.00000  Uiso   1.00
O113   O     0.41556   0.29290   0.30335   0.00000  Uiso   1.00
O114   O     0.59904   0.22242   0.31065   0.00000  Uiso   1.00
O115   O     0.64219   0.11094   0.18521   0.00000  Uiso   1.00
O116   O     0.46535   0.14132   0.09331   0.00000  Uiso   1.00
O117   O     0.39440   0.11037   0.40041   0.00000  Uiso   1.00
O118   O     0.58415   0.28789   0.19574   0.00000  Uiso   1.00
O119   O     0.53961   0.22679   0.25000   0.00000  Uiso   1.00
O120   O     0.44108   0.16665   0.32549   0.00000  Uiso   1.00
O121   O     0.52027   0.16666   0.32549   0.00000  Uiso   1.00
O122   O     0.46039   0.10654   0.24999   0.00000  Uiso   1.00
O123   O     0.53958   0.10655   0.24999   0.00000  Uiso   1.00
O124   O     0.47973   0.16667   0.17451   0.00000  Uiso   1.00
O125   O     0.55892   0.16668   0.17451   0.00000  Uiso   1.00
O126   O     0.61315   0.21284   0.09204   0.00000  Uiso   1.00
C127   C     0.83315   0.24593   0.25002   0.00000  Uiso   1.00
C128   C     0.79281   0.15696   0.40597   0.00000  Uiso   1.00
C129   C     0.87644   0.31088   0.22273   0.00000  Uiso   1.00
C130   C     0.80708   0.16560   0.34996   0.00000  Uiso   1.00
C131   C     0.87652   0.02056   0.22310   0.00000  Uiso   1.00
C132   C     0.83400   0.04292   0.24940   0.00000  Uiso   1.00
C133   C     0.79118   0.02277   0.27532   0.00000  Uiso   1.00
C134   C     0.79040   0.31323   0.27597   0.00000  Uiso   1.00
C135   C     0.83319   0.29069   0.24946   0.00000  Uiso   1.00
C136   C     0.96588   0.19420   0.28083   0.00000  Uiso   1.00
C137   C     0.68232   0.19352   0.28136   0.00000  Uiso   1.00
C138   C     0.82313   0.15147   0.48154   0.00000  Uiso   1.00
C139   C     0.70118   0.13986   0.21904   0.00000  Uiso   1.00
C140   C     0.98558   0.13952   0.21860   0.00000  Uiso   1.00
C141   C     0.83365   0.08747   0.24961   0.00000  Uiso   1.00
C142   C     0.85943   0.16780   0.14997   0.00000  Uiso   1.00
C143   C     0.92071   0.20927   0.01668   0.00000  Uiso   1.00
C144   C     0.87370   0.17336   0.09318   0.00000  Uiso   1.00
C145   C     0.76047   0.12427   0.42495   0.00000  Uiso   1.00
C146   C     0.76564   0.10176   0.46635   0.00000  Uiso   1.00
C147   C     0.79850   0.11367   0.49249   0.00000  Uiso   1.00
C148   C     0.82219   0.17199   0.43604   0.00000  Uiso   1.00
C149   C     0.85120   0.16819   0.01240   0.00000  Uiso   1.00
C150   C     0.88714   0.19766   0.49057   0.00000  Uiso   1.00
C151   C     0.88661   0.21701   0.44483   0.00000  Uiso   1.00
C152   C     0.85221   0.20622   0.42027   0.00000  Uiso   1.00
C153   C     0.84180   0.15931   0.06566   0.00000  Uiso   1.00
C154   C     0.91450   0.19727   0.06750   0.00000  Uiso   1.00
Cu155  Cu    0.78645   0.16666   0.25000   0.00000  Uiso   1.00
Cu156  Cu    0.88022   0.16667   0.25000   0.00000  Uiso   1.00
F157   F     0.91739   0.04048   0.19637   0.00000  Uiso   1.00
F158   F     0.69668   0.21942   0.31375   0.00000  Uiso   1.00
F159   F     0.91663   0.24874   0.42598   0.00000  Uiso   1.00
F160   F     0.95809   0.23466   0.49430   0.00000  Uiso   1.00
F161   F     0.80856   0.08653   0.02565   0.00000  Uiso   1.00
F162   F     0.73990   0.06684   0.48001   0.00000  Uiso   1.00
H163   H     0.75860   0.04049   0.29592   0.00000  Uiso   1.00
H164   H     0.94477   0.30633   0.17940   0.00000  Uiso   1.00
H165   H     0.72757   0.11843   0.19417   0.00000  Uiso   1.00
H166   H     0.85006   0.22437   0.38783   0.00000  Uiso   1.00
H167   H     0.92689   0.22443   0.12626   0.00000  Uiso   1.00
H168   H     0.72240   0.31330   0.31949   0.00000  Uiso   1.00
H169   H     0.94948   0.24257   0.32666   0.00000  Uiso   1.00
H170   H     0.94276   0.11615   0.18282   0.00000  Uiso   1.00
H171   H     0.77195   0.15287   0.08122   0.00000  Uiso   1.00
H172   H     0.71262   0.13481   0.38968   0.00000  Uiso   1.00
N173   N     0.71598   0.16666   0.24998   0.00000  Uiso   1.00
N174   N     0.95069   0.16669   0.24999   0.00000  Uiso   1.00
O175   O     0.79375   0.22678   0.25000   0.00000  Uiso   1.00
O176   O     0.74889   0.29290   0.30335   0.00000  Uiso   1.00
O177   O     0.93238   0.22242   0.31065   0.00000  Uiso   1.00
O178   O     0.97552   0.11094   0.18521   0.00000  Uiso   1.00
O179   O     0.79868   0.14132   0.09331   0.00000  Uiso   1.00
O180   O     0.72773   0.11037   0.40041   0.00000  Uiso   1.00
O181   O     0.91748   0.28789   0.19574   0.00000  Uiso   1.00
O182   O     0.87294   0.22679   0.25000   0.00000  Uiso   1.00
O183   O     0.77441   0.16665   0.32549   0.00000  Uiso   1.00
O184   O     0.85360   0.16666   0.32549   0.00000  Uiso   1.00
O185   O     0.79373   0.10654   0.24999   0.00000  Uiso   1.00
O186   O     0.87292   0.10655   0.24999   0.00000  Uiso   1.00
O187   O     0.81306   0.16667   0.17451   0.00000  Uiso   1.00
O188   O     0.89225   0.16668   0.17451   0.00000  Uiso   1.00
O189   O     0.94648   0.21284   0.09204   0.00000  Uiso   1.00
C190   C     0.16649   0.57927   0.25002   0.00000  Uiso   1.00
C191   C     0.12615   0.49030   0.40597   0.00000  Uiso   1.00
C192   C     0.20977   0.64421   0.22273   0.00000  Uiso   1.00
C193   C     0.14042   0.49893   0.34996   0.00000  Uiso   1.00
C194   C     0.20986   0.35390   0.22310   0.00000  Uiso   1.00
C195   C     0.16733   0.37626   0.24940   0.00000  Uiso   1.00
C196   C     0.12451   0.35611   0.27532   0.00000  Uiso   1.00
C197   C     0.12373   0.64657   0.27597   0.00000  Uiso   1.00
C198   C     0.16652   0.62402   0.24946   0.00000  Uiso   1.00
C199   C     0.29921   0.52753   0.28083   0.00000  Uiso   1.00
C200   C     0.01566   0.52685   0.28136   0.00000  Uiso   1.00
C201   C     0.15646   0.48480   0.48154   0.00000  Uiso   1.00
C202   C     0.03451   0.47319   0.21904   0.00000  Uiso   1.00
C203   C     0.31891   0.47286   0.21860   0.00000  Uiso   1.00
C204   C     0.16698   0.42080   0.24961   0.00000  Uiso   1.00
C205   C     0.19277   0.50113   0.14997   0.00000  Uiso   1.00
C206   C     0.25404   0.54261   0.01668   0.00000  Uiso   1.00
C207   C     0.20703   0.50669   0.09318   0.00000  Uiso   1.00
C208   C     0.09381   0.45761   0.42495   0.00000  Uiso   1.00
C209   C     0.09897   0.43509   0.46635   0.00000  Uiso   1.00
C210   C     0.13184   0.44700   0.49249   0.00000  Uiso   1.00
C211   C     0.15553   0.50532   0.43604   0.00000  Uiso   1.00
C212   C     0.18454   0.50152   0.01240   0.00000  Uiso   1.00
C213   C     0.22048   0.53099   0.49057   0.00000  Uiso   1.00
C214   C     0.21994   0.55035   0.44483   0.00000  Uiso   1.00
C215   C     0.18554   0.53956   0.42027   0.00000  Uiso   1.00
C216   C     0.17514   0.49265   0.06566   0.00000  Uiso   1.00
C217   C     0.24783   0.53060   0.06750   0.00000  Uiso   1.00
Cu218  Cu    0.11978   0.49999   0.25000   0.00000  Uiso   1.00
Cu219  Cu    0.21355   0.50001   0.25000   0.00000  Uiso   1.00
F220   F     0.25073   0.37381   0.19637   0.00000  Uiso   1.00
F221   F     0.03001   0.55275   0.31375   0.00000  Uiso   1.00
F222   F     0.24996   0.58208   0.42598   0.00000  Uiso   1.00
F223   F     0.29143   0.56800   0.49430   0.00000  Uiso   1.00
F224   F     0.14189   0.41987   0.02565   0.00000  Uiso   1.00
F225   F     0.07323   0.40017   0.48001   0.00000  Uiso   1.00
H226   H     0.09193   0.37383   0.29592   0.00000  Uiso   1.00
H227   H     0.27811   0.63966   0.17940   0.00000  Uiso   1.00
H228   H     0.06091   0.45176   0.19417   0.00000  Uiso   1.00
H229   H     0.18339   0.55770   0.38783   0.00000  Uiso   1.00
H230   H     0.26022   0.55776   0.12626   0.00000  Uiso   1.00
H231   H     0.05573   0.64663   0.31949   0.00000  Uiso   1.00
H232   H     0.28281   0.57591   0.32666   0.00000  Uiso   1.00
H233   H     0.27610   0.44948   0.18282   0.00000  Uiso   1.00
H234   H     0.10529   0.48620   0.08122   0.00000  Uiso   1.00
H235   H     0.04596   0.46814   0.38968   0.00000  Uiso   1.00
N236   N     0.04931   0.49999   0.24998   0.00000  Uiso   1.00
N237   N     0.28402   0.50002   0.24999   0.00000  Uiso   1.00
O238   O     0.12708   0.56011   0.25000   0.00000  Uiso   1.00
O239   O     0.08222   0.62624   0.30335   0.00000  Uiso   1.00
O240   O     0.26571   0.55575   0.31065   0.00000  Uiso   1.00
O241   O     0.30885   0.44427   0.18521   0.00000  Uiso   1.00
O242   O     0.13202   0.47465   0.09331   0.00000  Uiso   1.00
O243   O     0.06106   0.44370   0.40041   0.00000  Uiso   1.00
O244   O     0.25081   0.62122   0.19574   0.00000  Uiso   1.00
O245   O     0.20627   0.56012   0.25000   0.00000  Uiso   1.00
O246   O     0.10775   0.49998   0.32549   0.00000  Uiso   1.00
O247   O     0.18694   0.49999   0.32549   0.00000  Uiso   1.00
O248   O     0.12706   0.43988   0.24999   0.00000  Uiso   1.00
O249   O     0.20625   0.43989   0.24999   0.00000  Uiso   1.00
O250   O     0.14640   0.50001   0.17451   0.00000  Uiso   1.00
O251   O     0.22559   0.50002   0.17451   0.00000  Uiso   1.00
O252   O     0.27981   0.54618   0.09204   0.00000  Uiso   1.00
C253   C     0.49982   0.57927   0.25002   0.00000  Uiso   1.00
C254   C     0.45948   0.49030   0.40597   0.00000  Uiso   1.00
C255   C     0.54311   0.64421   0.22273   0.00000  Uiso   1.00
C256   C     0.47375   0.49893   0.34996   0.00000  Uiso   1.00
C257   C     0.54319   0.35390   0.22310   0.00000  Uiso   1.00
C258   C     0.50067   0.37626   0.24940   0.00000  Uiso   1.00
C259   C     0.45785   0.35611   0.27532   0.00000  Uiso   1.00
C260   C     0.45706   0.64657   0.27597   0.00000  Uiso   1.00
C261   C     0.49985   0.62402   0.24946   0.00000  Uiso   1.00
C262   C     0.63255   0.52753   0.28083   0.00000  Uiso   1.00
C263   C     0.34899   0.52685   0.28136   0.00000  Uiso   1.00
C264   C     0.48979   0.48480   0.48154   0.00000  Uiso   1.00
C265   C     0.36785   0.47319   0.21904   0.00000  Uiso   1.00
C266   C     0.65225   0.47286   0.21860   0.00000  Uiso   1.00
C267   C     0.50032   0.42080   0.24961   0.00000  Uiso   1.00
C268   C     0.52610   0.50113   0.14997   0.00000  Uiso   1.00
C269   C     0.58737   0.54261   0.01668   0.00000  Uiso   1.00
C270   C     0.54037   0.50669   0.09318   0.00000  Uiso   1.00
C271   C     0.42714   0.45761   0.42495   0.00000  Uiso   1.00
C272   C     0.43230   0.43509   0.46635   0.00000  Uiso   1.00
C273   C     0.46517   0.44700   0.49249   0.00000  Uiso   1.00
C274   C     0.48886   0.50532   0.43604   0.00000  Uiso   1.00
C275   C     0.51787   0.50152   0.01240   0.00000  Uiso   1.00
C276   C     0.55381   0.53099   0.49057   0.00000  Uiso   1.00
C277   C     0.55328   0.55035   0.44483   0.00000  Uiso   1.00
C278   C     0.51887   0.53956   0.42027   0.00000  Uiso   1.00
C279   C     0.50847   0.49265   0.06566   0.00000  Uiso   1.00
C280   C     0.58117   0.53060   0.06750   0.00000  Uiso   1.00
Cu281  Cu    0.45311   0.49999   0.25000   0.00000  Uiso   1.00
Cu282  Cu    0.54689   0.50001   0.25000   0.00000  Uiso   1.00
F283   F     0.58406   0.37381   0.19637   0.00000  Uiso   1.00
F284   F     0.36334   0.55275   0.31375   0.00000  Uiso   1.00
F285   F     0.58330   0.58208   0.42598   0.00000  Uiso   1.00
F286   F     0.62476   0.56800   0.49430   0.00000  Uiso   1.00
F287   F     0.47523   0.41987   0.02565   0.00000  Uiso   1.00
F288   F     0.40657   0.40017   0.48001   0.00000  Uiso   1.00
H289   H     0.42526   0.37383   0.29592   0.00000  Uiso   1.00
H290   H     0.61144   0.63966   0.17940   0.00000  Uiso   1.00
H291   H     0.39424   0.45176   0.19417   0.00000  Uiso   1.00
H292   H     0.51673   0.55770   0.38783   0.00000  Uiso   1.00
H293   H     0.59355   0.55776   0.12626   0.00000  Uiso   1.00
H294   H     0.38906   0.64663   0.31949   0.00000  Uiso   1.00
H295   H     0.61614   0.57591   0.32666   0.00000  Uiso   1.00
H296   H     0.60943   0.44948   0.18282   0.00000  Uiso   1.00
H297   H     0.43862   0.48620   0.08122   0.00000  Uiso   1.00
H298   H     0.37929   0.46814   0.38968   0.00000  Uiso   1.00
N299   N     0.38265   0.49999   0.24998   0.00000  Uiso   1.00
N300   N     0.61735   0.50002   0.24999   0.00000  Uiso   1.00
O301   O     0.46042   0.56011   0.25000   0.00000  Uiso   1.00
O302   O     0.41556   0.62624   0.30335   0.00000  Uiso   1.00
O303   O     0.59904   0.55575   0.31065   0.00000  Uiso   1.00
O304   O     0.64219   0.44427   0.18521   0.00000  Uiso   1.00
O305   O     0.46535   0.47465   0.09331   0.00000  Uiso   1.00
O306   O     0.39440   0.44370   0.40041   0.00000  Uiso   1.00
O307   O     0.58415   0.62122   0.19574   0.00000  Uiso   1.00
O308   O     0.53961   0.56012   0.25000   0.00000  Uiso   1.00
O309   O     0.44108   0.49998   0.32549   0.00000  Uiso   1.00
O310   O     0.52027   0.49999   0.32549   0.00000  Uiso   1.00
O311   O     0.46039   0.43988   0.24999   0.00000  Uiso   1.00
O312   O     0.53958   0.43989   0.24999   0.00000  Uiso   1.00
O313   O     0.47973   0.50001   0.17451   0.00000  Uiso   1.00
O314   O     0.55892   0.50002   0.17451   0.00000  Uiso   1.00
O315   O     0.61315   0.54618   0.09204   0.00000  Uiso   1.00
C316   C     0.83315   0.57927   0.25002   0.00000  Uiso   1.00
C317   C     0.79281   0.49030   0.40597   0.00000  Uiso   1.00
C318   C     0.87644   0.64421   0.22273   0.00000  Uiso   1.00
C319   C     0.80708   0.49893   0.34996   0.00000  Uiso   1.00
C320   C     0.87652   0.35390   0.22310   0.00000  Uiso   1.00
C321   C     0.83400   0.37626   0.24940   0.00000  Uiso   1.00
C322   C     0.79118   0.35611   0.27532   0.00000  Uiso   1.00
C323   C     0.79040   0.64657   0.27597   0.00000  Uiso   1.00
C324   C     0.83319   0.62402   0.24946   0.00000  Uiso   1.00
C325   C     0.96588   0.52753   0.28083   0.00000  Uiso   1.00
C326   C     0.68232   0.52685   0.28136   0.00000  Uiso   1.00
C327   C     0.82313   0.48480   0.48154   0.00000  Uiso   1.00
C328   C     0.70118   0.47319   0.21904   0.00000  Uiso   1.00
C329   C     0.98558   0.47286   0.21860   0.00000  Uiso   1.00
C330   C     0.83365   0.42080   0.24961   0.00000  Uiso   1.00
C331   C     0.85943   0.50113   0.14997   0.00000  Uiso   1.00
C332   C     0.92071   0.54261   0.01668   0.00000  Uiso   1.00
C333   C     0.87370   0.50669   0.09318   0.00000  Uiso   1.00
C334   C     0.76047   0.45761   0.42495   0.00000  Uiso   1.00
C335   C     0.76564   0.43509   0.46635   0.00000  Uiso   1.00
C336   C     0.79850   0.44700   0.49249   0.00000  Uiso   1.00
C337   C     0.82219   0.50532   0.43604   0.00000  Uiso   1.00
C338   C     0.85120   0.50152   0.01240   0.00000  Uiso   1.00
C339   C     0.88714   0.53099   0.49057   0.00000  Uiso   1.00
C340   C     0.88661   0.55035   0.44483   0.00000  Uiso   1.00
C341   C     0.85221   0.53956   0.42027   0.00000  Uiso   1.00
C342   C     0.84180   0.49265   0.06566   0.00000  Uiso   1.00
C343   C     0.91450   0.53060   0.06750   0.00000  Uiso   1.00
Cu344  Cu    0.78645   0.49999   0.25000   0.00000  Uiso   1.00
Cu345  Cu    0.88022   0.50001   0.25000   0.00000  Uiso   1.00
F346   F     0.91739   0.37381   0.19637   0.00000  Uiso   1.00
F347   F     0.69668   0.55275   0.31375   0.00000  Uiso   1.00
F348   F     0.91663   0.58208   0.42598   0.00000  Uiso   1.00
F349   F     0.95809   0.56800   0.49430   0.00000  Uiso   1.00
F350   F     0.80856   0.41987   0.02565   0.00000  Uiso   1.00
F351   F     0.73990   0.40017   0.48001   0.00000  Uiso   1.00
H352   H     0.75860   0.37383   0.29592   0.00000  Uiso   1.00
H353   H     0.94477   0.63966   0.17940   0.00000  Uiso   1.00
H354   H     0.72757   0.45176   0.19417   0.00000  Uiso   1.00
H355   H     0.85006   0.55770   0.38783   0.00000  Uiso   1.00
H356   H     0.92689   0.55776   0.12626   0.00000  Uiso   1.00
H357   H     0.72240   0.64663   0.31949   0.00000  Uiso   1.00
H358   H     0.94948   0.57591   0.32666   0.00000  Uiso   1.00
H359   H     0.94276   0.44948   0.18282   0.00000  Uiso   1.00
H360   H     0.77195   0.48620   0.08122   0.00000  Uiso   1.00
H361   H     0.71262   0.46814   0.38968   0.00000  Uiso   1.00
N362   N     0.71598   0.49999   0.24998   0.00000  Uiso   1.00
N363   N     0.95069   0.50002   0.24999   0.00000  Uiso   1.00
O364   O     0.79375   0.56011   0.25000   0.00000  Uiso   1.00
O365   O     0.74889   0.62624   0.30335   0.00000  Uiso   1.00
O366   O     0.93238   0.55575   0.31065   0.00000  Uiso   1.00
O367   O     0.97552   0.44427   0.18521   0.00000  Uiso   1.00
O368   O     0.79868   0.47465   0.09331   0.00000  Uiso   1.00
O369   O     0.72773   0.44370   0.40041   0.00000  Uiso   1.00
O370   O     0.91748   0.62122   0.19574   0.00000  Uiso   1.00
O371   O     0.87294   0.56012   0.25000   0.00000  Uiso   1.00
O372   O     0.77441   0.49998   0.32549   0.00000  Uiso   1.00
O373   O     0.85360   0.49999   0.32549   0.00000  Uiso   1.00
O374   O     0.79373   0.43988   0.24999   0.00000  Uiso   1.00
O375   O     0.87292   0.43989   0.24999   0.00000  Uiso   1.00
O376   O     0.81306   0.50001   0.17451   0.00000  Uiso   1.00
O377   O     0.89225   0.50002   0.17451   0.00000  Uiso   1.00
O378   O     0.94648   0.54618   0.09204   0.00000  Uiso   1.00
C379   C     0.16649   0.91260   0.25002   0.00000  Uiso   1.00
C380   C     0.12615   0.82363   0.40597   0.00000  Uiso   1.00
C381   C     0.20977   0.97755   0.22273   0.00000  Uiso   1.00
C382   C     0.14042   0.83226   0.34996   0.00000  Uiso   1.00
C383   C     0.20986   0.68723   0.22310   0.00000  Uiso   1.00
C384   C     0.16733   0.70959   0.24940   0.00000  Uiso   1.00
C385   C     0.12451   0.68944   0.27532   0.00000  Uiso   1.00
C386   C     0.12373   0.97990   0.27597   0.00000  Uiso   1.00
C387   C     0.16652   0.95736   0.24946   0.00000  Uiso   1.00
C388   C     0.29921   0.86087   0.28083   0.00000  Uiso   1.00
C389   C     0.01566   0.86019   0.28136   0.00000  Uiso   1.00
C390   C     0.15646   0.81814   0.48154   0.00000  Uiso   1.00
C391   C     0.03451   0.80653   0.21904   0.00000  Uiso   1.00
C392   C     0.31891   0.80619   0.21860   0.00000  Uiso   1.00
C393   C     0.16698   0.75413   0.24961   0.00000  Uiso   1.00
C394   C     0.19277   0.83447   0.14997   0.00000  Uiso   1.00
C395   C     0.25404   0.87594   0.01668   0.00000  Uiso   1.00
C396   C     0.20703   0.84003   0.09318   0.00000  Uiso   1.00
C397   C     0.09381   0.79094   0.42495   0.00000  Uiso   1.00
C398   C     0.09897   0.76842   0.46635   0.00000  Uiso   1.00
C399   C     0.13184   0.78034   0.49249   0.00000  Uiso   1.00
C400   C     0.15553   0.83865   0.43604   0.00000  Uiso   1.00
C401   C     0.18454   0.83485   0.01240   0.00000  Uiso   1.00
C402   C     0.22048   0.86432   0.49057   0.00000  Uiso   1.00
C403   C     0.21994   0.88368   0.44483   0.00000  Uiso   1.00
C404   C     0.18554   0.87289   0.42027   0.00000  Uiso   1.00
C405   C     0.17514   0.82598   0.06566   0.00000  Uiso   1.00
C406   C     0.24783   0.86394   0.06750   0.00000  Uiso   1.00
Cu407  Cu    0.11978   0.83333   0.25000   0.00000  Uiso   1.00
Cu408  Cu    0.21355   0.83334   0.25000   0.00000  Uiso   1.00
F409   F     0.25073   0.70715   0.19637   0.00000  Uiso   1.00
F410   F     0.03001   0.88609   0.31375   0.00000  Uiso   1.00
F411   F     0.24996   0.91541   0.42598   0.00000  Uiso   1.00
F412   F     0.29143   0.90133   0.49430   0.00000  Uiso   1.00
F413   F     0.14189   0.75320   0.02565   0.00000  Uiso   1.00
F414   F     0.07323   0.73350   0.48001   0.00000  Uiso   1.00
H415   H     0.09193   0.70716   0.29592   0.00000  Uiso   1.00
H416   H     0.27811   0.97299   0.17940   0.00000  Uiso   1.00
H417   H     0.06091   0.78509   0.19417   0.00000  Uiso   1.00
H418   H     0.18339   0.89104   0.38783   0.00000  Uiso   1.00
H419   H     0.26022   0.89109   0.12626   0.00000  Uiso   1.00
H420   H     0.05573   0.97996   0.31949   0.00000  Uiso   1.00
H421   H     0.28281   0.90924   0.32666   0.00000  Uiso   1.00
H422   H     0.27610   0.78281   0.18282   0.00000  Uiso   1.00
H423   H     0.10529   0.81954   0.08122   0.00000  Uiso   1.00
H424   H     0.04596   0.80148   0.38968   0.00000  Uiso   1.00
N425   N     0.04931   0.83332   0.24998   0.00000  Uiso   1.00
N426   N     0.28402   0.83335   0.24999   0.00000  Uiso   1.00
O427   O     0.12708   0.89345   0.25000   0.00000  Uiso   1.00
O428   O     0.08222   0.95957   0.30335   0.00000  Uiso   1.00
O429   O     0.26571   0.88909   0.31065   0.00000  Uiso   1.00
O430   O     0.30885   0.77761   0.18521   0.00000  Uiso   1.00
O431   O     0.13202   0.80798   0.09331   0.00000  Uiso   1.00
O432   O     0.06106   0.77703   0.40041   0.00000  Uiso   1.00
O433   O     0.25081   0.95455   0.19574   0.00000  Uiso   1.00
O434   O     0.20627   0.89346   0.25000   0.00000  Uiso   1.00
O435   O     0.10775   0.83332   0.32549   0.00000  Uiso   1.00
O436   O     0.18694   0.83333   0.32549   0.00000  Uiso   1.00
O437   O     0.12706   0.77321   0.24999   0.00000  Uiso   1.00
O438   O     0.20625   0.77322   0.24999   0.00000  Uiso   1.00
O439   O     0.14640   0.83334   0.17451   0.00000  Uiso   1.00
O440   O     0.22559   0.83335   0.17451   0.00000  Uiso   1.00
O441   O     0.27981   0.87951   0.09204   0.00000  Uiso   1.00
C442   C     0.49982   0.91260   0.25002   0.00000  Uiso   1.00
C443   C     0.45948   0.82363   0.40597   0.00000  Uiso   1.00
C444   C     0.54311   0.97755   0.22273   0.00000  Uiso   1.00
C445   C     0.47375   0.83226   0.34996   0.00000  Uiso   1.00
C446   C     0.54319   0.68723   0.22310   0.00000  Uiso   1.00
C447   C     0.50067   0.70959   0.24940   0.00000  Uiso   1.00
C448   C     0.45785   0.68944   0.27532   0.00000  Uiso   1.00
C449   C     0.45706   0.97990   0.27597   0.00000  Uiso   1.00
C450   C     0.49985   0.95736   0.24946   0.00000  Uiso   1.00
C451   C     0.63255   0.86087   0.28083   0.00000  Uiso   1.00
C452   C     0.34899   0.86019   0.28136   0.00000  Uiso   1.00
C453   C     0.48979   0.81814   0.48154   0.00000  Uiso   1.00
C454   C     0.36785   0.80653   0.21904   0.00000  Uiso   1.00
C455   C     0.65225   0.80619   0.21860   0.00000  Uiso   1.00
C456   C     0.50032   0.75413   0.24961   0.00000  Uiso   1.00
C457   C     0.52610   0.83447   0.14997   0.00000  Uiso   1.00
C458   C     0.58737   0.87594   0.01668   0.00000  Uiso   1.00
C459   C     0.54037   0.84003   0.09318   0.00000  Uiso   1.00
C460   C     0.42714   0.79094   0.42495   0.00000  Uiso   1.00
C461   C     0.43230   0.76842   0.46635   0.00000  Uiso   1.00
C462   C     0.46517   0.78034   0.49249   0.00000  Uiso   1.00
C463   C     0.48886   0.83865   0.43604   0.00000  Uiso   1.00
C464   C     0.51787   0.83485   0.01240   0.00000  Uiso   1.00
C465   C     0.55381   0.86432   0.49057   0.00000  Uiso   1.00
C466   C     0.55328   0.88368   0.44483   0.00000  Uiso   1.00
C467   C     0.51887   0.87289   0.42027   0.00000  Uiso   1.00
C468   C     0.50847   0.82598   0.06566   0.00000  Uiso   1.00
C469   C     0.58117   0.86394   0.06750   0.00000  Uiso   1.00
Cu470  Cu    0.45311   0.83333   0.25000   0.00000  Uiso   1.00
Cu471  Cu    0.54689   0.83334   0.25000   0.00000  Uiso   1.00
F472   F     0.58406   0.70715   0.19637   0.00000  Uiso   1.00
F473   F     0.36334   0.88609   0.31375   0.00000  Uiso   1.00
F474   F     0.58330   0.91541   0.42598   0.00000  Uiso   1.00
F475   F     0.62476   0.90133   0.49430   0.00000  Uiso   1.00
F476   F     0.47523   0.75320   0.02565   0.00000  Uiso   1.00
F477   F     0.40657   0.73350   0.48001   0.00000  Uiso   1.00
H478   H     0.42526   0.70716   0.29592   0.00000  Uiso   1.00
H479   H     0.61144   0.97299   0.17940   0.00000  Uiso   1.00
H480   H     0.39424   0.78509   0.19417   0.00000  Uiso   1.00
H481   H     0.51673   0.89104   0.38783   0.00000  Uiso   1.00
H482   H     0.59355   0.89109   0.12626   0.00000  Uiso   1.00
H483   H     0.38906   0.97996   0.31949   0.00000  Uiso   1.00
H484   H     0.61614   0.90924   0.32666   0.00000  Uiso   1.00
H485   H     0.60943   0.78281   0.18282   0.00000  Uiso   1.00
H486   H     0.43862   0.81954   0.08122   0.00000  Uiso   1.00
H487   H     0.37929   0.80148   0.38968   0.00000  Uiso   1.00
N488   N     0.38265   0.83332   0.24998   0.00000  Uiso   1.00
N489   N     0.61735   0.83335   0.24999   0.00000  Uiso   1.00
O490   O     0.46042   0.89345   0.25000   0.00000  Uiso   1.00
O491   O     0.41556   0.95957   0.30335   0.00000  Uiso   1.00
O492   O     0.59904   0.88909   0.31065   0.00000  Uiso   1.00
O493   O     0.64219   0.77761   0.18521   0.00000  Uiso   1.00
O494   O     0.46535   0.80798   0.09331   0.00000  Uiso   1.00
O495   O     0.39440   0.77703   0.40041   0.00000  Uiso   1.00
O496   O     0.58415   0.95455   0.19574   0.00000  Uiso   1.00
O497   O     0.53961   0.89346   0.25000   0.00000  Uiso   1.00
O498   O     0.44108   0.83332   0.32549   0.00000  Uiso   1.00
O499   O     0.52027   0.83333   0.32549   0.00000  Uiso   1.00
O500   O     0.46039   0.77321   0.24999   0.00000  Uiso   1.00
O501   O     0.53958   0.77322   0.24999   0.00000  Uiso   1.00
O502   O     0.47973   0.83334   0.17451   0.00000  Uiso   1.00
O503   O     0.55892   0.83335   0.17451   0.00000  Uiso   1.00
O504   O     0.61315   0.87951   0.09204   0.00000  Uiso   1.00
C505   C     0.83315   0.91260   0.25002   0.00000  Uiso   1.00
C506   C     0.79281   0.82363   0.40597   0.00000  Uiso   1.00
C507   C     0.87644   0.97755   0.22273   0.00000  Uiso   1.00
C508   C     0.80708   0.83226   0.34996   0.00000  Uiso   1.00
C509   C     0.87652   0.68723   0.22310   0.00000  Uiso   1.00
C510   C     0.83400   0.70959   0.24940   0.00000  Uiso   1.00
C511   C     0.79118   0.68944   0.27532   0.00000  Uiso   1.00
C512   C     0.79040   0.97990   0.27597   0.00000  Uiso   1.00
C513   C     0.83319   0.95736   0.24946   0.00000  Uiso   1.00
C514   C     0.96588   0.86087   0.28083   0.00000  Uiso   1.00
C515   C     0.68232   0.86019   0.28136   0.00000  Uiso   1.00
C516   C     0.82313   0.81814   0.48154   0.00000  Uiso   1.00
C517   C     0.70118   0.80653   0.21904   0.00000  Uiso   1.00
C518   C     0.98558   0.80619   0.21860   0.00000  Uiso   1.00
C519   C     0.83365   0.75413   0.24961   0.00000  Uiso   1.00
C520   C     0.85943   0.83447   0.14997   0.00000  Uiso   1.00
C521   C     0.92071   0.87594   0.01668   0.00000  Uiso   1.00
C522   C     0.87370   0.84003   0.09318   0.00000  Uiso   1.00
C523   C     0.76047   0.79094   0.42495   0.00000  Uiso   1.00
C524   C     0.76564   0.76842   0.46635   0.00000  Uiso   1.00
C525   C     0.79850   0.78034   0.49249   0.00000  Uiso   1.00
C526   C     0.82219   0.83865   0.43604   0.00000  Uiso   1.00
C527   C     0.85120   0.83485   0.01240   0.00000  Uiso   1.00
C528   C     0.88714   0.86432   0.49057   0.00000  Uiso   1.00
C529   C     0.88661   0.88368   0.44483   0.00000  Uiso   1.00
C530   C     0.85221   0.87289   0.42027   0.00000  Uiso   1.00
C531   C     0.84180   0.82598   0.06566   0.00000  Uiso   1.00
C532   C     0.91450   0.86394   0.06750   0.00000  Uiso   1.00
Cu533  Cu    0.78645   0.83333   0.25000   0.00000  Uiso   1.00
Cu534  Cu    0.88022   0.83334   0.25000   0.00000  Uiso   1.00
F535   F     0.91739   0.70715   0.19637   0.00000  Uiso   1.00
F536   F     0.69668   0.88609   0.31375   0.00000  Uiso   1.00
F537   F     0.91663   0.91541   0.42598   0.00000  Uiso   1.00
F538   F     0.95809   0.90133   0.49430   0.00000  Uiso   1.00
F539   F     0.80856   0.75320   0.02565   0.00000  Uiso   1.00
F540   F     0.73990   0.73350   0.48001   0.00000  Uiso   1.00
H541   H     0.75860   0.70716   0.29592   0.00000  Uiso   1.00
H542   H     0.94477   0.97299   0.17940   0.00000  Uiso   1.00
H543   H     0.72757   0.78509   0.19417   0.00000  Uiso   1.00
H544   H     0.85006   0.89104   0.38783   0.00000  Uiso   1.00
H545   H     0.92689   0.89109   0.12626   0.00000  Uiso   1.00
H546   H     0.72240   0.97996   0.31949   0.00000  Uiso   1.00
H547   H     0.94948   0.90924   0.32666   0.00000  Uiso   1.00
H548   H     0.94276   0.78281   0.18282   0.00000  Uiso   1.00
H549   H     0.77195   0.81954   0.08122   0.00000  Uiso   1.00
H550   H     0.71262   0.80148   0.38968   0.00000  Uiso   1.00
N551   N     0.71598   0.83332   0.24998   0.00000  Uiso   1.00
N552   N     0.95069   0.83335   0.24999   0.00000  Uiso   1.00
O553   O     0.79375   0.89345   0.25000   0.00000  Uiso   1.00
O554   O     0.74889   0.95957   0.30335   0.00000  Uiso   1.00
O555   O     0.93238   0.88909   0.31065   0.00000  Uiso   1.00
O556   O     0.97552   0.77761   0.18521   0.00000  Uiso   1.00
O557   O     0.79868   0.80798   0.09331   0.00000  Uiso   1.00
O558   O     0.72773   0.77703   0.40041   0.00000  Uiso   1.00
O559   O     0.91748   0.95455   0.19574   0.00000  Uiso   1.00
O560   O     0.87294   0.89346   0.25000   0.00000  Uiso   1.00
O561   O     0.77441   0.83332   0.32549   0.00000  Uiso   1.00
O562   O     0.85360   0.83333   0.32549   0.00000  Uiso   1.00
O563   O     0.79373   0.77321   0.24999   0.00000  Uiso   1.00
O564   O     0.87292   0.77322   0.24999   0.00000  Uiso   1.00
O565   O     0.81306   0.83334   0.17451   0.00000  Uiso   1.00
O566   O     0.89225   0.83335   0.17451   0.00000  Uiso   1.00
O567   O     0.94648   0.87951   0.09204   0.00000  Uiso   1.00
C568   C     0.16649   0.24593   0.75002   0.00000  Uiso   1.00
C569   C     0.12615   0.15696   0.90597   0.00000  Uiso   1.00
C570   C     0.20977   0.31088   0.72273   0.00000  Uiso   1.00
C571   C     0.14042   0.16560   0.84996   0.00000  Uiso   1.00
C572   C     0.20986   0.02056   0.72310   0.00000  Uiso   1.00
C573   C     0.16733   0.04292   0.74940   0.00000  Uiso   1.00
C574   C     0.12451   0.02277   0.77532   0.00000  Uiso   1.00
C575   C     0.12373   0.31323   0.77597   0.00000  Uiso   1.00
C576   C     0.16652   0.29069   0.74946   0.00000  Uiso   1.00
C577   C     0.29921   0.19420   0.78083   0.00000  Uiso   1.00
C578   C     0.01566   0.19352   0.78136   0.00000  Uiso   1.00
C579   C     0.15646   0.15147   0.98154   0.00000  Uiso   1.00
C580   C     0.03451   0.13986   0.71904   0.00000  Uiso   1.00
C581   C     0.31891   0.13952   0.71860   0.00000  Uiso   1.00
C582   C     0.16698   0.08747   0.74961   0.00000  Uiso   1.00
C583   C     0.19277   0.16780   0.64997   0.00000  Uiso   1.00
C584   C     0.25404   0.20927   0.51668   0.00000  Uiso   1.00
C585   C     0.20703   0.17336   0.59318   0.00000  Uiso   1.00
C586   C     0.09381   0.12427   0.92495   0.00000  Uiso   1.00
C587   C     0.09897   0.10176   0.96635   0.00000  Uiso   1.00
C588   C     0.13184   0.11367   0.99249   0.00000  Uiso   1.00
C589   C     0.15553   0.17199   0.93604   0.00000  Uiso   1.00
C590   C     0.18454   0.16819   0.51240   0.00000  Uiso   1.00
C591   C     0.22048   0.19766   0.99057   0.00000  Uiso   1.00
C592   C     0.21994   0.21701   0.94483   0.00000  Uiso   1.00
C593   C     0.18554   0.20622   0.92027   0.00000  Uiso   1.00
C594   C     0.17514   0.15931   0.56566   0.00000  Uiso   1.00
C595   C     0.24783   0.19727   0.56750   0.00000  Uiso   1.00
Cu596  Cu    0.11978   0.16666   0.75000   0.00000  Uiso   1.00
Cu597  Cu    0.21355   0.16667   0.75000   0.00000  Uiso   1.00
F598   F     0.25073   0.04048   0.69637   0.00000  Uiso   1.00
F599   F     0.03001   0.21942   0.81375   0.00000  Uiso   1.00
F600   F     0.24996   0.24874   0.92598   0.00000  Uiso   1.00
F601   F     0.29143   0.23466   0.99430   0.00000  Uiso   1.00
F602   F     0.14189   0.08653   0.52565   0.00000  Uiso   1.00
F603   F     0.07323   0.06684   0.98001   0.00000  Uiso   1.00
H604   H     0.09193   0.04049   0.79592   0.00000  Uiso   1.00
H605   H     0.27811   0.30633   0.67940   0.00000  Uiso   1.00
H606   H     0.06091   0.11843   0.69417   0.00000  Uiso   1.00
H607   H     0.18339   0.22437   0.88783   0.00000  Uiso   1.00
H608   H     0.26022   0.22443   0.62626   0.00000  Uiso   1.00
H609   H     0.05573   0.31330   0.81949   0.00000  Uiso   1.00
H610   H     0.28281   0.24257   0.82666   0.00000  Uiso   1.00
H611   H     0.27610   0.11615   0.68282   0.00000  Uiso   1.00
H612   H     0.10529   0.15287   0.58122   0.00000  Uiso   1.00
H613   H     0.04596   0.13481   0.88968   0.00000  Uiso   1.00
N614   N     0.04931   0.16666   0.74998   0.00000  Uiso   1.00
N615   N     0.28402   0.16669   0.74999   0.00000  Uiso   1.00
O616   O     0.12708   0.22678   0.75000   0.00000  Uiso   1.00
O617   O     0.08222   0.29290   0.80335   0.00000  Uiso   1.00
O618   O     0.26571   0.22242   0.81065   0.00000  Uiso   1.00
O619   O     0.30885   0.11094   0.68521   0.00000  Uiso   1.00
O620   O     0.13202   0.14132   0.59331   0.00000  Uiso   1.00
O621   O     0.06106   0.11037   0.90041   0.00000  Uiso   1.00
O622   O     0.25081   0.28789   0.69574   0.00000  Uiso   1.00
O623   O     0.20627   0.22679   0.75000   0.00000  Uiso   1.00
O624   O     0.10775   0.16665   0.82549   0.00000  Uiso   1.00
O625   O     0.18694   0.16666   0.82549   0.00000  Uiso   1.00
O626   O     0.12706   0.10654   0.74999   0.00000  Uiso   1.00
O627   O     0.20625   0.10655   0.74999   0.00000  Uiso   1.00
O628   O     0.14640   0.16667   0.67451   0.00000  Uiso   1.00
O629   O     0.22559   0.16668   0.67451   0.00000  Uiso   1.00
O630   O     0.27981   0.21284   0.59204   0.00000  Uiso   1.00
C631   C     0.49982   0.24593   0.75002   0.00000  Uiso   1.00
C632   C     0.45948   0.15696   0.90597   0.00000  Uiso   1.00
C633   C     0.54311   0.31088   0.72273   0.00000  Uiso   1.00
C634   C     0.47375   0.16560   0.84996   0.00000  Uiso   1.00
C635   C     0.54319   0.02056   0.72310   0.00000  Uiso   1.00
C636   C     0.50067   0.04292   0.74940   0.00000  Uiso   1.00
C637   C     0.45785   0.02277   0.77532   0.00000  Uiso   1.00
C638   C     0.45706   0.31323   0.77597   0.00000  Uiso   1.00
C639   C     0.49985   0.29069   0.74946   0.00000  Uiso   1.00
C640   C     0.63255   0.19420   0.78083   0.00000  Uiso   1.00
C641   C     0.34899   0.19352   0.78136   0.00000  Uiso   1.00
C642   C     0.48979   0.15147   0.98154   0.00000  Uiso   1.00
C643   C     0.36785   0.13986   0.71904   0.00000  Uiso   1.00
C644   C     0.65225   0.13952   0.71860   0.00000  Uiso   1.00
C645   C     0.50032   0.08747   0.74961   0.00000  Uiso   1.00
C646   C     0.52610   0.16780   0.64997   0.00000  Uiso   1.00
C647   C     0.58737   0.20927   0.51668   0.00000  Uiso   1.00
C648   C     0.54037   0.17336   0.59318   0.00000  Uiso   1.00
C649   C     0.42714   0.12427   0.92495   0.00000  Uiso   1.00
C650   C     0.43230   0.10176   0.96635   0.00000  Uiso   1.00
C651   C     0.46517   0.11367   0.99249   0.00000  Uiso   1.00
C652   C     0.48886   0.17199   0.93604   0.00000  Uiso   1.00
C653   C     0.51787   0.16819   0.51240   0.00000  Uiso   1.00
C654   C     0.55381   0.19766   0.99057   0.00000  Uiso   1.00
C655   C     0.55328   0.21701   0.94483   0.00000  Uiso   1.00
C656   C     0.51887   0.20622   0.92027   0.00000  Uiso   1.00
C657   C     0.50847   0.15931   0.56566   0.00000  Uiso   1.00
C658   C     0.58117   0.19727   0.56750   0.00000  Uiso   1.00
Cu659  Cu    0.45311   0.16666   0.75000   0.00000  Uiso   1.00
Cu660  Cu    0.54689   0.16667   0.75000   0.00000  Uiso   1.00
F661   F     0.58406   0.04048   0.69637   0.00000  Uiso   1.00
F662   F     0.36334   0.21942   0.81375   0.00000  Uiso   1.00
F663   F     0.58330   0.24874   0.92598   0.00000  Uiso   1.00
F664   F     0.62476   0.23466   0.99430   0.00000  Uiso   1.00
F665   F     0.47523   0.08653   0.52565   0.00000  Uiso   1.00
F666   F     0.40657   0.06684   0.98001   0.00000  Uiso   1.00
H667   H     0.42526   0.04049   0.79592   0.00000  Uiso   1.00
H668   H     0.61144   0.30633   0.67940   0.00000  Uiso   1.00
H669   H     0.39424   0.11843   0.69417   0.00000  Uiso   1.00
H670   H     0.51673   0.22437   0.88783   0.00000  Uiso   1.00
H671   H     0.59355   0.22443   0.62626   0.00000  Uiso   1.00
H672   H     0.38906   0.31330   0.81949   0.00000  Uiso   1.00
H673   H     0.61614   0.24257   0.82666   0.00000  Uiso   1.00
H674   H     0.60943   0.11615   0.68282   0.00000  Uiso   1.00
H675   H     0.43862   0.15287   0.58122   0.00000  Uiso   1.00
H676   H     0.37929   0.13481   0.88968   0.00000  Uiso   1.00
N677   N     0.38265   0.16666   0.74998   0.00000  Uiso   1.00
N678   N     0.61735   0.16669   0.74999   0.00000  Uiso   1.00
O679   O     0.46042   0.22678   0.75000   0.00000  Uiso   1.00
O680   O     0.41556   0.29290   0.80335   0.00000  Uiso   1.00
O681   O     0.59904   0.22242   0.81065   0.00000  Uiso   1.00
O682   O     0.64219   0.11094   0.68521   0.00000  Uiso   1.00
O683   O     0.46535   0.14132   0.59331   0.00000  Uiso   1.00
O684   O     0.39440   0.11037   0.90041   0.00000  Uiso   1.00
O685   O     0.58415   0.28789   0.69574   0.00000  Uiso   1.00
O686   O     0.53961   0.22679   0.75000   0.00000  Uiso   1.00
O687   O     0.44108   0.16665   0.82549   0.00000  Uiso   1.00
O688   O     0.52027   0.16666   0.82549   0.00000  Uiso   1.00
O689   O     0.46039   0.10654   0.74999   0.00000  Uiso   1.00
O690   O     0.53958   0.10655   0.74999   0.00000  Uiso   1.00
O691   O     0.47973   0.16667   0.67451   0.00000  Uiso   1.00
O692   O     0.55892   0.16668   0.67451   0.00000  Uiso   1.00
O693   O     0.61315   0.21284   0.59204   0.00000  Uiso   1.00
C694   C     0.83315   0.24593   0.75002   0.00000  Uiso   1.00
C695   C     0.79281   0.15696   0.90597   0.00000  Uiso   1.00
C696   C     0.87644   0.31088   0.72273   0.00000  Uiso   1.00
C697   C     0.80708   0.16560   0.84996   0.00000  Uiso   1.00
C698   C     0.87652   0.02056   0.72310   0.00000  Uiso   1.00
C699   C     0.83400   0.04292   0.74940   0.00000  Uiso   1.00
C700   C     0.79118   0.02277   0.77532   0.00000  Uiso   1.00
C701   C     0.79040   0.31323   0.77597   0.00000  Uiso   1.00
C702   C     0.83319   0.29069   0.74946   0.00000  Uiso   1.00
C703   C     0.96588   0.19420   0.78083   0.00000  Uiso   1.00
C704   C     0.68232   0.19352   0.78136   0.00000  Uiso   1.00
C705   C     0.82313   0.15147   0.98154   0.00000  Uiso   1.00
C706   C     0.70118   0.13986   0.71904   0.00000  Uiso   1.00
C707   C     0.98558   0.13952   0.71860   0.00000  Uiso   1.00
C708   C     0.83365   0.08747   0.74961   0.00000  Uiso   1.00
C709   C     0.85943   0.16780   0.64997   0.00000  Uiso   1.00
C710   C     0.92071   0.20927   0.51668   0.00000  Uiso   1.00
C711   C     0.87370   0.17336   0.59318   0.00000  Uiso   1.00
C712   C     0.76047   0.12427   0.92495   0.00000  Uiso   1.00
C713   C     0.76564   0.10176   0.96635   0.00000  Uiso   1.00
C714   C     0.79850   0.11367   0.99249   0.00000  Uiso   1.00
C715   C     0.82219   0.17199   0.93604   0.00000  Uiso   1.00
C716   C     0.85120   0.16819   0.51240   0.00000  Uiso   1.00
C717   C     0.88714   0.19766   0.99057   0.00000  Uiso   1.00
C718   C     0.88661   0.21701   0.94483   0.00000  Uiso   1.00
C719   C     0.85221   0.20622   0.92027   0.00000  Uiso   1.00
C720   C     0.84180   0.15931   0.56566   0.00000  Uiso   1.00
C721   C     0.91450   0.19727   0.56750   0.00000  Uiso   1.00
Cu722  Cu    0.78645   0.16666   0.75000   0.00000  Uiso   1.00
Cu723  Cu    0.88022   0.16667   0.75000   0.00000  Uiso   1.00
F724   F     0.91739   0.04048   0.69637   0.00000  Uiso   1.00
F725   F     0.69668   0.21942   0.81375   0.00000  Uiso   1.00
F726   F     0.91663   0.24874   0.92598   0.00000  Uiso   1.00
F727   F     0.95809   0.23466   0.99430   0.00000  Uiso   1.00
F728   F     0.80856   0.08653   0.52565   0.00000  Uiso   1.00
F729   F     0.73990   0.06684   0.98001   0.00000  Uiso   1.00
H730   H     0.75860   0.04049   0.79592   0.00000  Uiso   1.00
H731   H     0.94477   0.30633   0.67940   0.00000  Uiso   1.00
H732   H     0.72757   0.11843   0.69417   0.00000  Uiso   1.00
H733   H     0.85006   0.22437   0.88783   0.00000  Uiso   1.00
H734   H     0.92689   0.22443   0.62626   0.00000  Uiso   1.00
H735   H     0.72240   0.31330   0.81949   0.00000  Uiso   1.00
H736   H     0.94948   0.24257   0.82666   0.00000  Uiso   1.00
H737   H     0.94276   0.11615   0.68282   0.00000  Uiso   1.00
H738   H     0.77195   0.15287   0.58122   0.00000  Uiso   1.00
H739   H     0.71262   0.13481   0.88968   0.00000  Uiso   1.00
N740   N     0.71598   0.16666   0.74998   0.00000  Uiso   1.00
N741   N     0.95069   0.16669   0.74999   0.00000  Uiso   1.00
O742   O     0.79375   0.22678   0.75000   0.00000  Uiso   1.00
O743   O     0.74889   0.29290   0.80335   0.00000  Uiso   1.00
O744   O     0.93238   0.22242   0.81065   0.00000  Uiso   1.00
O745   O     0.97552   0.11094   0.68521   0.00000  Uiso   1.00
O746   O     0.79868   0.14132   0.59331   0.00000  Uiso   1.00
O747   O     0.72773   0.11037   0.90041   0.00000  Uiso   1.00
O748   O     0.91748   0.28789   0.69574   0.00000  Uiso   1.00
O749   O     0.87294   0.22679   0.75000   0.00000  Uiso   1.00
O750   O     0.77441   0.16665   0.82549   0.00000  Uiso   1.00
O751   O     0.85360   0.16666   0.82549   0.00000  Uiso   1.00
O752   O     0.79373   0.10654   0.74999   0.00000  Uiso   1.00
O753   O     0.87292   0.10655   0.74999   0.00000  Uiso   1.00
O754   O     0.81306   0.16667   0.67451   0.00000  Uiso   1.00
O755   O     0.89225   0.16668   0.67451   0.00000  Uiso   1.00
O756   O     0.94648   0.21284   0.59204   0.00000  Uiso   1.00
C757   C     0.16649   0.57927   0.75002   0.00000  Uiso   1.00
C758   C     0.12615   0.49030   0.90597   0.00000  Uiso   1.00
C759   C     0.20977   0.64421   0.72273   0.00000  Uiso   1.00
C760   C     0.14042   0.49893   0.84996   0.00000  Uiso   1.00
C761   C     0.20986   0.35390   0.72310   0.00000  Uiso   1.00
C762   C     0.16733   0.37626   0.74940   0.00000  Uiso   1.00
C763   C     0.12451   0.35611   0.77532   0.00000  Uiso   1.00
C764   C     0.12373   0.64657   0.77597   0.00000  Uiso   1.00
C765   C     0.16652   0.62402   0.74946   0.00000  Uiso   1.00
C766   C     0.29921   0.52753   0.78083   0.00000  Uiso   1.00
C767   C     0.01566   0.52685   0.78136   0.00000  Uiso   1.00
C768   C     0.15646   0.48480   0.98154   0.00000  Uiso   1.00
C769   C     0.03451   0.47319   0.71904   0.00000  Uiso   1.00
C770   C     0.31891   0.47286   0.71860   0.00000  Uiso   1.00
C771   C     0.16698   0.42080   0.74961   0.00000  Uiso   1.00
C772   C     0.19277   0.50113   0.64997   0.00000  Uiso   1.00
C773   C     0.25404   0.54261   0.51668   0.00000  Uiso   1.00
C774   C     0.20703   0.50669   0.59318   0.00000  Uiso   1.00
C775   C     0.09381   0.45761   0.92495   0.00000  Uiso   1.00
C776   C     0.09897   0.43509   0.96635   0.00000  Uiso   1.00
C777   C     0.13184   0.44700   0.99249   0.00000  Uiso   1.00
C778   C     0.15553   0.50532   0.93604   0.00000  Uiso   1.00
C779   C     0.18454   0.50152   0.51240   0.00000  Uiso   1.00
C780   C     0.22048   0.53099   0.99057   0.00000  Uiso   1.00
C781   C     0.21994   0.55035   0.94483   0.00000  Uiso   1.00
C782   C     0.18554   0.53956   0.92027   0.00000  Uiso   1.00
C783   C     0.17514   0.49265   0.56566   0.00000  Uiso   1.00
C784   C     0.24783   0.53060   0.56750   0.00000  Uiso   1.00
Cu785  Cu    0.11978   0.49999   0.75000   0.00000  Uiso   1.00
Cu786  Cu    0.21355   0.50001   0.75000   0.00000  Uiso   1.00
F787   F     0.25073   0.37381   0.69637   0.00000  Uiso   1.00
F788   F     0.03001   0.55275   0.81375   0.00000  Uiso   1.00
F789   F     0.24996   0.58208   0.92598   0.00000  Uiso   1.00
F790   F     0.29143   0.56800   0.99430   0.00000  Uiso   1.00
F791   F     0.14189   0.41987   0.52565   0.00000  Uiso   1.00
F792   F     0.07323   0.40017   0.98001   0.00000  Uiso   1.00
H793   H     0.09193   0.37383   0.79592   0.00000  Uiso   1.00
H794   H     0.27811   0.63966   0.67940   0.00000  Uiso   1.00
H795   H     0.06091   0.45176   0.69417   0.00000  Uiso   1.00
H796   H     0.18339   0.55770   0.88783   0.00000  Uiso   1.00
H797   H     0.26022   0.55776   0.62626   0.00000  Uiso   1.00
H798   H     0.05573   0.64663   0.81949   0.00000  Uiso   1.00
H799   H     0.28281   0.57591   0.82666   0.00000  Uiso   1.00
H800   H     0.27610   0.44948   0.68282   0.00000  Uiso   1.00
H801   H     0.10529   0.48620   0.58122   0.00000  Uiso   1.00
H802   H     0.04596   0.46814   0.88968   0.00000  Uiso   1.00
N803   N     0.04931   0.49999   0.74998   0.00000  Uiso   1.00
N804   N     0.28402   0.50002   0.74999   0.00000  Uiso   1.00
O805   O     0.12708   0.56011   0.75000   0.00000  Uiso   1.00
O806   O     0.08222   0.62624   0.80335   0.00000  Uiso   1.00
O807   O     0.26571   0.55575   0.81065   0.00000  Uiso   1.00
O808   O     0.30885   0.44427   0.68521   0.00000  Uiso   1.00
O809   O     0.13202   0.47465   0.59331   0.00000  Uiso   1.00
O810   O     0.06106   0.44370   0.90041   0.00000  Uiso   1.00
O811   O     0.25081   0.62122   0.69574   0.00000  Uiso   1.00
O812   O     0.20627   0.56012   0.75000   0.00000  Uiso   1.00
O813   O     0.10775   0.49998   0.82549   0.00000  Uiso   1.00
O814   O     0.18694   0.49999   0.82549   0.00000  Uiso   1.00
O815   O     0.12706   0.43988   0.74999   0.00000  Uiso   1.00
O816   O     0.20625   0.43989   0.74999   0.00000  Uiso   1.00
O817   O     0.14640   0.50001   0.67451   0.00000  Uiso   1.00
O818   O     0.22559   0.50002   0.67451   0.00000  Uiso   1.00
O819   O     0.27981   0.54618   0.59204   0.00000  Uiso   1.00
C820   C     0.49982   0.57927   0.75002   0.00000  Uiso   1.00
C821   C     0.45948   0.49030   0.90597   0.00000  Uiso   1.00
C822   C     0.54311   0.64421   0.72273   0.00000  Uiso   1.00
C823   C     0.47375   0.49893   0.84996   0.00000  Uiso   1.00
C824   C     0.54319   0.35390   0.72310   0.00000  Uiso   1.00
C825   C     0.50067   0.37626   0.74940   0.00000  Uiso   1.00
C826   C     0.45785   0.35611   0.77532   0.00000  Uiso   1.00
C827   C     0.45706   0.64657   0.77597   0.00000  Uiso   1.00
C828   C     0.49985   0.62402   0.74946   0.00000  Uiso   1.00
C829   C     0.63255   0.52753   0.78083   0.00000  Uiso   1.00
C830   C     0.34899   0.52685   0.78136   0.00000  Uiso   1.00
C831   C     0.48979   0.48480   0.98154   0.00000  Uiso   1.00
C832   C     0.36785   0.47319   0.71904   0.00000  Uiso   1.00
C833   C     0.65225   0.47286   0.71860   0.00000  Uiso   1.00
C834   C     0.50032   0.42080   0.74961   0.00000  Uiso   1.00
C835   C     0.52610   0.50113   0.64997   0.00000  Uiso   1.00
C836   C     0.58737   0.54261   0.51668   0.00000  Uiso   1.00
C837   C     0.54037   0.50669   0.59318   0.00000  Uiso   1.00
C838   C     0.42714   0.45761   0.92495   0.00000  Uiso   1.00
C839   C     0.43230   0.43509   0.96635   0.00000  Uiso   1.00
C840   C     0.46517   0.44700   0.99249   0.00000  Uiso   1.00
C841   C     0.48886   0.50532   0.93604   0.00000  Uiso   1.00
C842   C     0.51787   0.50152   0.51240   0.00000  Uiso   1.00
C843   C     0.55381   0.53099   0.99057   0.00000  Uiso   1.00
C844   C     0.55328   0.55035   0.94483   0.00000  Uiso   1.00
C845   C     0.51887   0.53956   0.92027   0.00000  Uiso   1.00
C846   C     0.50847   0.49265   0.56566   0.00000  Uiso   1.00
C847   C     0.58117   0.53060   0.56750   0.00000  Uiso   1.00
Cu848  Cu    0.45311   0.49999   0.75000   0.00000  Uiso   1.00
Cu849  Cu    0.54689   0.50001   0.75000   0.00000  Uiso   1.00
F850   F     0.58406   0.37381   0.69637   0.00000  Uiso   1.00
F851   F     0.36334   0.55275   0.81375   0.00000  Uiso   1.00
F852   F     0.58330   0.58208   0.92598   0.00000  Uiso   1.00
F853   F     0.62476   0.56800   0.99430   0.00000  Uiso   1.00
F854   F     0.47523   0.41987   0.52565   0.00000  Uiso   1.00
F855   F     0.40657   0.40017   0.98001   0.00000  Uiso   1.00
H856   H     0.42526   0.37383   0.79592   0.00000  Uiso   1.00
H857   H     0.61144   0.63966   0.67940   0.00000  Uiso   1.00
H858   H     0.39424   0.45176   0.69417   0.00000  Uiso   1.00
H859   H     0.51673   0.55770   0.88783   0.00000  Uiso   1.00
H860   H     0.59355   0.55776   0.62626   0.00000  Uiso   1.00
H861   H     0.38906   0.64663   0.81949   0.00000  Uiso   1.00
H862   H     0.61614   0.57591   0.82666   0.00000  Uiso   1.00
H863   H     0.60943   0.44948   0.68282   0.00000  Uiso   1.00
H864   H     0.43862   0.48620   0.58122   0.00000  Uiso   1.00
H865   H     0.37929   0.46814   0.88968   0.00000  Uiso   1.00
N866   N     0.38265   0.49999   0.74998   0.00000  Uiso   1.00
N867   N     0.61735   0.50002   0.74999   0.00000  Uiso   1.00
O868   O     0.46042   0.56011   0.75000   0.00000  Uiso   1.00
O869   O     0.41556   0.62624   0.80335   0.00000  Uiso   1.00
O870   O     0.59904   0.55575   0.81065   0.00000  Uiso   1.00
O871   O     0.64219   0.44427   0.68521   0.00000  Uiso   1.00
O872   O     0.46535   0.47465   0.59331   0.00000  Uiso   1.00
O873   O     0.39440   0.44370   0.90041   0.00000  Uiso   1.00
O874   O     0.58415   0.62122   0.69574   0.00000  Uiso   1.00
O875   O     0.53961   0.56012   0.75000   0.00000  Uiso   1.00
O876   O     0.44108   0.49998   0.82549   0.00000  Uiso   1.00
O877   O     0.52027   0.49999   0.82549   0.00000  Uiso   1.00
O878   O     0.46039   0.43988   0.74999   0.00000  Uiso   1.00
O879   O     0.53958   0.43989   0.74999   0.00000  Uiso   1.00
O880   O     0.47973   0.50001   0.67451   0.00000  Uiso   1.00
O881   O     0.55892   0.50002   0.67451   0.00000  Uiso   1.00
O882   O     0.61315   0.54618   0.59204   0.00000  Uiso   1.00
C883   C     0.83315   0.57927   0.75002   0.00000  Uiso   1.00
C884   C     0.79281   0.49030   0.90597   0.00000  Uiso   1.00
C885   C     0.87644   0.64421   0.72273   0.00000  Uiso   1.00
C886   C     0.80708   0.49893   0.84996   0.00000  Uiso   1.00
C887   C     0.87652   0.35390   0.72310   0.00000  Uiso   1.00
C888   C     0.83400   0.37626   0.74940   0.00000  Uiso   1.00
C889   C     0.79118   0.35611   0.77532   0.00000  Uiso   1.00
C890   C     0.79040   0.64657   0.77597   0.00000  Uiso   1.00
C891   C     0.83319   0.62402   0.74946   0.00000  Uiso   1.00
C892   C     0.96588   0.52753   0.78083   0.00000  Uiso   1.00
C893   C     0.68232   0.52685   0.78136   0.00000  Uiso   1.00
C894   C     0.82313   0.48480   0.98154   0.00000  Uiso   1.00
C895   C     0.70118   0.47319   0.71904   0.00000  Uiso   1.00
C896   C     0.98558   0.47286   0.71860   0.00000  Uiso   1.00
C897   C     0.83365   0.42080   0.74961   0.00000  Uiso   1.00
C898   C     0.85943   0.50113   0.64997   0.00000  Uiso   1.00
C899   C     0.92071   0.54261   0.51668   0.00000  Uiso   1.00
C900   C     0.87370   0.50669   0.59318   0.00000  Uiso   1.00
C901   C     0.76047   0.45761   0.92495   0.00000  Uiso   1.00
C902   C     0.76564   0.43509   0.96635   0.00000  Uiso   1.00
C903   C     0.79850   0.44700   0.99249   0.00000  Uiso   1.00
C904   C     0.82219   0.50532   0.93604   0.00000  Uiso   1.00
C905   C     0.85120   0.50152   0.51240   0.00000  Uiso   1.00
C906   C     0.88714   0.53099   0.99057   0.00000  Uiso   1.00
C907   C     0.88661   0.55035   0.94483   0.00000  Uiso   1.00
C908   C     0.85221   0.53956   0.92027   0.00000  Uiso   1.00
C909   C     0.84180   0.49265   0.56566   0.00000  Uiso   1.00
C910   C     0.91450   0.53060   0.56750   0.00000  Uiso   1.00
Cu911  Cu    0.78645   0.49999   0.75000   0.00000  Uiso   1.00
Cu912  Cu    0.88022   0.50001   0.75000   0.00000  Uiso   1.00
F913   F     0.91739   0.37381   0.69637   0.00000  Uiso   1.00
F914   F     0.69668   0.55275   0.81375   0.00000  Uiso   1.00
F915   F     0.91663   0.58208   0.92598   0.00000  Uiso   1.00
F916   F     0.95809   0.56800   0.99430   0.00000  Uiso   1.00
F917   F     0.80856   0.41987   0.52565   0.00000  Uiso   1.00
F918   F     0.73990   0.40017   0.98001   0.00000  Uiso   1.00
H919   H     0.75860   0.37383   0.79592   0.00000  Uiso   1.00
H920   H     0.94477   0.63966   0.67940   0.00000  Uiso   1.00
H921   H     0.72757   0.45176   0.69417   0.00000  Uiso   1.00
H922   H     0.85006   0.55770   0.88783   0.00000  Uiso   1.00
H923   H     0.92689   0.55776   0.62626   0.00000  Uiso   1.00
H924   H     0.72240   0.64663   0.81949   0.00000  Uiso   1.00
H925   H     0.94948   0.57591   0.82666   0.00000  Uiso   1.00
H926   H     0.94276   0.44948   0.68282   0.00000  Uiso   1.00
H927   H     0.77195   0.48620   0.58122   0.00000  Uiso   1.00
H928   H     0.71262   0.46814   0.88968   0.00000  Uiso   1.00
N929   N     0.71598   0.49999   0.74998   0.00000  Uiso   1.00
N930   N     0.95069   0.50002   0.74999   0.00000  Uiso   1.00
O931   O     0.79375   0.56011   0.75000   0.00000  Uiso   1.00
O932   O     0.74889   0.62624   0.80335   0.00000  Uiso   1.00
O933   O     0.93238   0.55575   0.81065   0.00000  Uiso   1.00
O934   O     0.97552   0.44427   0.68521   0.00000  Uiso   1.00
O935   O     0.79868   0.47465   0.59331   0.00000  Uiso   1.00
O936   O     0.72773   0.44370   0.90041   0.00000  Uiso   1.00
O937   O     0.91748   0.62122   0.69574   0.00000  Uiso   1.00
O938   O     0.87294   0.56012   0.75000   0.00000  Uiso   1.00
O939   O     0.77441   0.49998   0.82549   0.00000  Uiso   1.00
O940   O     0.85360   0.49999   0.82549   0.00000  Uiso   1.00
O941   O     0.79373   0.43988   0.74999   0.00000  Uiso   1.00
O942   O     0.87292   0.43989   0.74999   0.00000  Uiso   1.00
O943   O     0.81306   0.50001   0.67451   0.00000  Uiso   1.00
O944   O     0.89225   0.50002   0.67451   0.00000  Uiso   1.00
O945   O     0.94648   0.54618   0.59204   0.00000  Uiso   1.00
C946   C     0.16649   0.91260   0.75002   0.00000  Uiso   1.00
C947   C     0.12615   0.82363   0.90597   0.00000  Uiso   1.00
C948   C     0.20977   0.97755   0.72273   0.00000  Uiso   1.00
C949   C     0.14042   0.83226   0.84996   0.00000  Uiso   1.00
C950   C     0.20986   0.68723   0.72310   0.00000  Uiso   1.00
C951   C     0.16733   0.70959   0.74940   0.00000  Uiso   1.00
C952   C     0.12451   0.68944   0.77532   0.00000  Uiso   1.00
C953   C     0.12373   0.97990   0.77597   0.00000  Uiso   1.00
C954   C     0.16652   0.95736   0.74946   0.00000  Uiso   1.00
C955   C     0.29921   0.86087   0.78083   0.00000  Uiso   1.00
C956   C     0.01566   0.86019   0.78136   0.00000  Uiso   1.00
C957   C     0.15646   0.81814   0.98154   0.00000  Uiso   1.00
C958   C     0.03451   0.80653   0.71904   0.00000  Uiso   1.00
C959   C     0.31891   0.80619   0.71860   0.00000  Uiso   1.00
C960   C     0.16698   0.75413   0.74961   0.00000  Uiso   1.00
C961   C     0.19277   0.83447   0.64997   0.00000  Uiso   1.00
C962   C     0.25404   0.87594   0.51668   0.00000  Uiso   1.00
C963   C     0.20703   0.84003   0.59318   0.00000  Uiso   1.00
C964   C     0.09381   0.79094   0.92495   0.00000  Uiso   1.00
C965   C     0.09897   0.76842   0.96635   0.00000  Uiso   1.00
C966   C     0.13184   0.78034   0.99249   0.00000  Uiso   1.00
C967   C     0.15553   0.83865   0.93604   0.00000  Uiso   1.00
C968   C     0.18454   0.83485   0.51240   0.00000  Uiso   1.00
C969   C     0.22048   0.86432   0.99057   0.00000  Uiso   1.00
C970   C     0.21994   0.88368   0.94483   0.00000  Uiso   1.00
C971   C     0.18554   0.87289   0.92027   0.00000  Uiso   1.00
C972   C     0.17514   0.82598   0.56566   0.00000  Uiso   1.00
C973   C     0.24783   0.86394   0.56750   0.00000  Uiso   1.00
Cu974  Cu    0.11978   0.83333   0.75000   0.00000  Uiso   1.00
Cu975  Cu    0.21355   0.83334   0.75000   0.00000  Uiso   1.00
F976   F     0.25073   0.70715   0.69637   0.00000  Uiso   1.00
F977   F     0.03001   0.88609   0.81375   0.00000  Uiso   1.00
F978   F     0.24996   0.91541   0.92598   0.00000  Uiso   1.00
F979   F     0.29143   0.90133   0.99430   0.00000  Uiso   1.00
F980   F     0.14189   0.75320   0.52565   0.00000  Uiso   1.00
F981   F     0.07323   0.73350   0.98001   0.00000  Uiso   1.00
H982   H     0.09193   0.70716   0.79592   0.00000  Uiso   1.00
H983   H     0.27811   0.97299   0.67940   0.00000  Uiso   1.00
H984   H     0.06091   0.78509   0.69417   0.00000  Uiso   1.00
H985   H     0.18339   0.89104   0.88783   0.00000  Uiso   1.00
H986   H     0.26022   0.89109   0.62626   0.00000  Uiso   1.00
H987   H     0.05573   0.97996   0.81949   0.00000  Uiso   1.00
H988   H     0.28281   0.90924   0.82666   0.00000  Uiso   1.00
H989   H     0.27610   0.78281   0.68282   0.00000  Uiso   1.00
H990   H     0.10529   0.81954   0.58122   0.00000  Uiso   1.00
H991   H     0.04596   0.80148   0.88968   0.00000  Uiso   1.00
N992   N     0.04931   0.83332   0.74998   0.00000  Uiso   1.00
N993   N     0.28402   0.83335   0.74999   0.00000  Uiso   1.00
O994   O     0.12708   0.89345   0.75000   0.00000  Uiso   1.00
O995   O     0.08222   0.95957   0.80335   0.00000  Uiso   1.00
O996   O     0.26571   0.88909   0.81065   0.00000  Uiso   1.00
O997   O     0.30885   0.77761   0.68521   0.00000  Uiso   1.00
O998   O     0.13202   0.80798   0.59331   0.00000  Uiso   1.00
O999   O     0.06106   0.77703   0.90041   0.00000  Uiso   1.00
O1000  O     0.25081   0.95455   0.69574   0.00000  Uiso   1.00
O1001  O     0.20627   0.89346   0.75000   0.00000  Uiso   1.00
O1002  O     0.10775   0.83332   0.82549   0.00000  Uiso   1.00
O1003  O     0.18694   0.83333   0.82549   0.00000  Uiso   1.00
O1004  O     0.12706   0.77321   0.74999   0.00000  Uiso   1.00
O1005  O     0.20625   0.77322   0.74999   0.00000  Uiso   1.00
O1006  O     0.14640   0.83334   0.67451   0.00000  Uiso   1.00
O1007  O     0.22559   0.83335   0.67451   0.00000  Uiso   1.00
O1008  O     0.27981   0.87951   0.59204   0.00000  Uiso   1.00
C1009  C     0.49982   0.91260   0.75002   0.00000  Uiso   1.00
C1010  C     0.45948   0.82363   0.90597   0.00000  Uiso   1.00
C1011  C     0.54311   0.97755   0.72273   0.00000  Uiso   1.00
C1012  C     0.47375   0.83226   0.84996   0.00000  Uiso   1.00
C1013  C     0.54319   0.68723   0.72310   0.00000  Uiso   1.00
C1014  C     0.50067   0.70959   0.74940   0.00000  Uiso   1.00
C1015  C     0.45785   0.68944   0.77532   0.00000  Uiso   1.00
C1016  C     0.45706   0.97990   0.77597   0.00000  Uiso   1.00
C1017  C     0.49985   0.95736   0.74946   0.00000  Uiso   1.00
C1018  C     0.63255   0.86087   0.78083   0.00000  Uiso   1.00
C1019  C     0.34899   0.86019   0.78136   0.00000  Uiso   1.00
C1020  C     0.48979   0.81814   0.98154   0.00000  Uiso   1.00
C1021  C     0.36785   0.80653   0.71904   0.00000  Uiso   1.00
C1022  C     0.65225   0.80619   0.71860   0.00000  Uiso   1.00
C1023  C     0.50032   0.75413   0.74961   0.00000  Uiso   1.00
C1024  C     0.52610   0.83447   0.64997   0.00000  Uiso   1.00
C1025  C     0.58737   0.87594   0.51668   0.00000  Uiso   1.00
C1026  C     0.54037   0.84003   0.59318   0.00000  Uiso   1.00
C1027  C     0.42714   0.79094   0.92495   0.00000  Uiso   1.00
C1028  C     0.43230   0.76842   0.96635   0.00000  Uiso   1.00
C1029  C     0.46517   0.78034   0.99249   0.00000  Uiso   1.00
C1030  C     0.48886   0.83865   0.93604   0.00000  Uiso   1.00
C1031  C     0.51787   0.83485   0.51240   0.00000  Uiso   1.00
C1032  C     0.55381   0.86432   0.99057   0.00000  Uiso   1.00
C1033  C     0.55328   0.88368   0.94483   0.00000  Uiso   1.00
C1034  C     0.51887   0.87289   0.92027   0.00000  Uiso   1.00
C1035  C     0.50847   0.82598   0.56566   0.00000  Uiso   1.00
C1036  C     0.58117   0.86394   0.56750   0.00000  Uiso   1.00
Cu1037 Cu    0.45311   0.83333   0.75000   0.00000  Uiso   1.00
Cu1038 Cu    0.54689   0.83334   0.75000   0.00000  Uiso   1.00
F1039  F     0.58406   0.70715   0.69637   0.00000  Uiso   1.00
F1040  F     0.36334   0.88609   0.81375   0.00000  Uiso   1.00
F1041  F     0.58330   0.91541   0.92598   0.00000  Uiso   1.00
F1042  F     0.62476   0.90133   0.99430   0.00000  Uiso   1.00
F1043  F     0.47523   0.75320   0.52565   0.00000  Uiso   1.00
F1044  F     0.40657   0.73350   0.98001   0.00000  Uiso   1.00
H1045  H     0.42526   0.70716   0.79592   0.00000  Uiso   1.00
H1046  H     0.61144   0.97299   0.67940   0.00000  Uiso   1.00
H1047  H     0.39424   0.78509   0.69417   0.00000  Uiso   1.00
H1048  H     0.51673   0.89104   0.88783   0.00000  Uiso   1.00
H1049  H     0.59355   0.89109   0.62626   0.00000  Uiso   1.00
H1050  H     0.38906   0.97996   0.81949   0.00000  Uiso   1.00
H1051  H     0.61614   0.90924   0.82666   0.00000  Uiso   1.00
H1052  H     0.60943   0.78281   0.68282   0.00000  Uiso   1.00
H1053  H     0.43862   0.81954   0.58122   0.00000  Uiso   1.00
H1054  H     0.37929   0.80148   0.88968   0.00000  Uiso   1.00
N1055  N     0.38265   0.83332   0.74998   0.00000  Uiso   1.00
N1056  N     0.61735   0.83335   0.74999   0.00000  Uiso   1.00
O1057  O     0.46042   0.89345   0.75000   0.00000  Uiso   1.00
O1058  O     0.41556   0.95957   0.80335   0.00000  Uiso   1.00
O1059  O     0.59904   0.88909   0.81065   0.00000  Uiso   1.00
O1060  O     0.64219   0.77761   0.68521   0.00000  Uiso   1.00
O1061  O     0.46535   0.80798   0.59331   0.00000  Uiso   1.00
O1062  O     0.39440   0.77703   0.90041   0.00000  Uiso   1.00
O1063  O     0.58415   0.95455   0.69574   0.00000  Uiso   1.00
O1064  O     0.53961   0.89346   0.75000   0.00000  Uiso   1.00
O1065  O     0.44108   0.83332   0.82549   0.00000  Uiso   1.00
O1066  O     0.52027   0.83333   0.82549   0.00000  Uiso   1.00
O1067  O     0.46039   0.77321   0.74999   0.00000  Uiso   1.00
O1068  O     0.53958   0.77322   0.74999   0.00000  Uiso   1.00
O1069  O     0.47973   0.83334   0.67451   0.00000  Uiso   1.00
O1070  O     0.55892   0.83335   0.67451   0.00000  Uiso   1.00
O1071  O     0.61315   0.87951   0.59204   0.00000  Uiso   1.00
C1072  C     0.83315   0.91260   0.75002   0.00000  Uiso   1.00
C1073  C     0.79281   0.82363   0.90597   0.00000  Uiso   1.00
C1074  C     0.87644   0.97755   0.72273   0.00000  Uiso   1.00
C1075  C     0.80708   0.83226   0.84996   0.00000  Uiso   1.00
C1076  C     0.87652   0.68723   0.72310   0.00000  Uiso   1.00
C1077  C     0.83400   0.70959   0.74940   0.00000  Uiso   1.00
C1078  C     0.79118   0.68944   0.77532   0.00000  Uiso   1.00
C1079  C     0.79040   0.97990   0.77597   0.00000  Uiso   1.00
C1080  C     0.83319   0.95736   0.74946   0.00000  Uiso   1.00
C1081  C     0.96588   0.86087   0.78083   0.00000  Uiso   1.00
C1082  C     0.68232   0.86019   0.78136   0.00000  Uiso   1.00
C1083  C     0.82313   0.81814   0.98154   0.00000  Uiso   1.00
C1084  C     0.70118   0.80653   0.71904   0.00000  Uiso   1.00
C1085  C     0.98558   0.80619   0.71860   0.00000  Uiso   1.00
C1086  C     0.83365   0.75413   0.74961   0.00000  Uiso   1.00
C1087  C     0.85943   0.83447   0.64997   0.00000  Uiso   1.00
C1088  C     0.92071   0.87594   0.51668   0.00000  Uiso   1.00
C1089  C     0.87370   0.84003   0.59318   0.00000  Uiso   1.00
C1090  C     0.76047   0.79094   0.92495   0.00000  Uiso   1.00
C1091  C     0.76564   0.76842   0.96635   0.00000  Uiso   1.00
C1092  C     0.79850   0.78034   0.99249   0.00000  Uiso   1.00
C1093  C     0.82219   0.83865   0.93604   0.00000  Uiso   1.00
C1094  C     0.85120   0.83485   0.51240   0.00000  Uiso   1.00
C1095  C     0.88714   0.86432   0.99057   0.00000  Uiso   1.00
C1096  C     0.88661   0.88368   0.94483   0.00000  Uiso   1.00
C1097  C     0.85221   0.87289   0.92027   0.00000  Uiso   1.00
C1098  C     0.84180   0.82598   0.56566   0.00000  Uiso   1.00
C1099  C     0.91450   0.86394   0.56750   0.00000  Uiso   1.00
Cu1100 Cu    0.78645   0.83333   0.75000   0.00000  Uiso   1.00
Cu1101 Cu    0.88022   0.83334   0.75000   0.00000  Uiso   1.00
F1102  F     0.91739   0.70715   0.69637   0.00000  Uiso   1.00
F1103  F     0.69668   0.88609   0.81375   0.00000  Uiso   1.00
F1104  F     0.91663   0.91541   0.92598   0.00000  Uiso   1.00
F1105  F     0.95809   0.90133   0.99430   0.00000  Uiso   1.00
F1106  F     0.80856   0.75320   0.52565   0.00000  Uiso   1.00
F1107  F     0.73990   0.73350   0.98001   0.00000  Uiso   1.00
H1108  H     0.75860   0.70716   0.79592   0.00000  Uiso   1.00
H1109  H     0.94477   0.97299   0.67940   0.00000  Uiso   1.00
H1110  H     0.72757   0.78509   0.69417   0.00000  Uiso   1.00
H1111  H     0.85006   0.89104   0.88783   0.00000  Uiso   1.00
H1112  H     0.92689   0.89109   0.62626   0.00000  Uiso   1.00
H1113  H     0.72240   0.97996   0.81949   0.00000  Uiso   1.00
H1114  H     0.94948   0.90924   0.82666   0.00000  Uiso   1.00
H1115  H     0.94276   0.78281   0.68282   0.00000  Uiso   1.00
H1116  H     0.77195   0.81954   0.58122   0.00000  Uiso   1.00
H1117  H     0.71262   0.80148   0.88968   0.00000  Uiso   1.00
N1118  N     0.71598   0.83332   0.74998   0.00000  Uiso   1.00
N1119  N     0.95069   0.83335   0.74999   0.00000  Uiso   1.00
O1120  O     0.79375   0.89345   0.75000   0.00000  Uiso   1.00
O1121  O     0.74889   0.95957   0.80335   0.00000  Uiso   1.00
O1122  O     0.93238   0.88909   0.81065   0.00000  Uiso   1.00
O1123  O     0.97552   0.77761   0.68521   0.00000  Uiso   1.00
O1124  O     0.79868   0.80798   0.59331   0.00000  Uiso   1.00
O1125  O     0.72773   0.77703   0.90041   0.00000  Uiso   1.00
O1126  O     0.91748   0.95455   0.69574   0.00000  Uiso   1.00
O1127  O     0.87294   0.89346   0.75000   0.00000  Uiso   1.00
O1128  O     0.77441   0.83332   0.82549   0.00000  Uiso   1.00
O1129  O     0.85360   0.83333   0.82549   0.00000  Uiso   1.00
O1130  O     0.79373   0.77321   0.74999   0.00000  Uiso   1.00
O1131  O     0.87292   0.77322   0.74999   0.00000  Uiso   1.00
O1132  O     0.81306   0.83334   0.67451   0.00000  Uiso   1.00
O1133  O     0.89225   0.83335   0.67451   0.00000  Uiso   1.00
O1134  O     0.94648   0.87951   0.59204   0.00000  Uiso   1.00
loop_
_geom_bond_atom_site_label_1
_geom_bond_atom_site_label_2
_geom_bond_distance
_geom_bond_site_symmetry_2
_ccdc_geom_bond_type
C1     C9      1.455   .     S
C1     O49     1.297   .     A
C1     O56     1.293   .     A
C2     C22     1.419   .     A
C2     C4      1.476   .     S
C2     C19     1.418   .     A
C3     O55     1.384   .     S
C3     C9      1.411   .     A
C3     C194    1.398   .     S
C4     O57     1.299   .     A
C4     O58     1.300   .     A
C5     C6      1.399   .     A
C5     F31     1.357   .     S
C5     C381    1.398   1_545 S
C6     C7      1.395   .     A
C6     C15     1.448   .     S
C7     H37     1.084   .     S
C7     C386    1.395   1_545 S
C8     O50     1.382   .     S
C8     C9      1.408   .     A
C8     C196    1.395   .     S
C10    O51     1.377   .     S
C10    N48     1.371   .     A
C10    C74     1.432   .     S
C11    N47     1.367   .     A
C11    F32     1.355   .     S
C11    C136    1.432   1_455 S
C12    C22     1.416   .     A
C12    C21     1.416   .     A
C12    C590    1.426   .     S
C13    H39     1.082   .     S
C13    N47     1.352   .     A
C13    C140    1.407   1_455 S
C14    N48     1.392   .     A
C14    O52     1.374   .     S
C14    C76     1.407   .     S
C15    O59     1.293   .     A
C15    O60     1.295   .     A
C16    O62     1.304   .     A
C16    O61     1.296   .     A
C16    C18     1.478   .     S
C17    C28     1.393   .     A
C17    C591    1.404   1_554 S
C17    F601    1.359   1_554 S
C18    C27     1.415   .     A
C18    C28     1.417   .     A
C19    C20     1.392   .     A
C19    O54     1.377   .     S
C20    F36     1.357   .     S
C20    C21     1.390   .     A
C21    F602    1.358   .     S
C22    C26     1.408   .     A
C23    C27     1.417   .     A
C23    C579    1.426   1_554 S
C23    C591    1.417   1_554 S
C24    C25     1.401   .     A
C24    C584    1.404   .     S
C24    C590    1.417   .     S
C25    F33     1.358   .     S
C25    C26     1.389   .     A
C26    H40     1.082   .     S
C27    O53     1.381   .     S
C28    O63     1.378   .     S
Cu29   O49     1.968   .     S
Cu29   Cu30    2.689   .     S
Cu29   N47     2.021   .     S
Cu29   O61     1.948   .     S
Cu29   O59     1.963   .     S
Cu29   O57     1.961   .     S
Cu30   O58     1.948   .     S
Cu30   N48     2.021   .     S
Cu30   O62     1.961   .     S
Cu30   O56     1.963   .     S
Cu30   O60     1.968   .     S
F34    C584    1.359   .     S
F35    C588    1.358   1_554 S
H38    O55     0.990   .     S
H41    O63     0.989   .     S
H42    O50     0.992   .     S
H43    O51     0.990   .     S
H44    O52     0.974   .     S
H45    O53     0.992   .     S
H46    O54     0.990   .     S
C64    C72     1.455   .     S
C64    O112    1.297   .     A
C64    O119    1.293   .     A
C65    C85     1.419   .     A
C65    C67     1.476   .     S
C65    C82     1.418   .     A
C66    O118    1.384   .     S
C66    C72     1.411   .     A
C66    C257    1.398   .     S
C67    O120    1.299   .     A
C67    O121    1.300   .     A
C68    C69     1.399   .     A
C68    F94     1.357   .     S
C68    C444    1.398   1_545 S
C69    C70     1.395   .     A
C69    C78     1.448   .     S
C70    H100    1.084   .     S
C70    C449    1.395   1_545 S
C71    O113    1.382   .     S
C71    C72     1.408   .     A
C71    C259    1.395   .     S
C73    O114    1.377   .     S
C73    N111    1.371   .     A
C73    C137    1.432   .     S
C74    N110    1.367   .     A
C74    F95     1.355   .     S
C75    C85     1.416   .     A
C75    C84     1.416   .     A
C75    C653    1.426   .     S
C76    H102    1.082   .     S
C76    N110    1.352   .     A
C77    N111    1.392   .     A
C77    O115    1.374   .     S
C77    C139    1.407   .     S
C78    O122    1.293   .     A
C78    O123    1.295   .     A
C79    O125    1.304   .     A
C79    O124    1.296   .     A
C79    C81     1.478   .     S
C80    C91     1.393   .     A
C80    C654    1.404   1_554 S
C80    F664    1.359   1_554 S
C81    C90     1.415   .     A
C81    C91     1.417   .     A
C82    C83     1.392   .     A
C82    O117    1.377   .     S
C83    F99     1.357   .     S
C83    C84     1.390   .     A
C84    F665    1.358   .     S
C85    C89     1.408   .     A
C86    C90     1.417   .     A
C86    C642    1.426   1_554 S
C86    C654    1.417   1_554 S
C87    C88     1.401   .     A
C87    C647    1.404   .     S
C87    C653    1.417   .     S
C88    F96     1.358   .     S
C88    C89     1.389   .     A
C89    H103    1.082   .     S
C90    O116    1.381   .     S
C91    O126    1.378   .     S
Cu92   O112    1.968   .     S
Cu92   Cu93    2.689   .     S
Cu92   N110    2.021   .     S
Cu92   O124    1.948   .     S
Cu92   O122    1.963   .     S
Cu92   O120    1.961   .     S
Cu93   O121    1.948   .     S
Cu93   N111    2.021   .     S
Cu93   O125    1.961   .     S
Cu93   O119    1.963   .     S
Cu93   O123    1.968   .     S
F97    C647    1.359   .     S
F98    C651    1.358   1_554 S
H101   O118    0.990   .     S
H104   O126    0.989   .     S
H105   O113    0.992   .     S
H106   O114    0.990   .     S
H107   O115    0.974   .     S
H108   O116    0.992   .     S
H109   O117    0.990   .     S
C127   C135    1.455   .     S
C127   O175    1.297   .     A
C127   O182    1.293   .     A
C128   C148    1.419   .     A
C128   C130    1.476   .     S
C128   C145    1.418   .     A
C129   O181    1.384   .     S
C129   C135    1.411   .     A
C129   C320    1.398   .     S
C130   O183    1.299   .     A
C130   O184    1.300   .     A
C131   C132    1.399   .     A
C131   F157    1.357   .     S
C131   C507    1.398   1_545 S
C132   C133    1.395   .     A
C132   C141    1.448   .     S
C133   H163    1.084   .     S
C133   C512    1.395   1_545 S
C134   O176    1.382   .     S
C134   C135    1.408   .     A
C134   C322    1.395   .     S
C136   O177    1.377   .     S
C136   N174    1.371   .     A
C136   C11     1.432   1_655 S
C137   N173    1.367   .     A
C137   F158    1.355   .     S
C138   C148    1.416   .     A
C138   C147    1.416   .     A
C138   C716    1.426   .     S
C139   H165    1.082   .     S
C139   N173    1.352   .     A
C140   N174    1.392   .     A
C140   O178    1.374   .     S
C140   C13     1.407   1_655 S
C141   O185    1.293   .     A
C141   O186    1.295   .     A
C142   O188    1.304   .     A
C142   O187    1.296   .     A
C142   C144    1.478   .     S
C143   C154    1.393   .     A
C143   C717    1.404   1_554 S
C143   F727    1.359   1_554 S
C144   C153    1.415   .     A
C144   C154    1.417   .     A
C145   C146    1.392   .     A
C145   O180    1.377   .     S
C146   F162    1.357   .     S
C146   C147    1.390   .     A
C147   F728    1.358   .     S
C148   C152    1.408   .     A
C149   C153    1.417   .     A
C149   C705    1.426   1_554 S
C149   C717    1.417   1_554 S
C150   C151    1.401   .     A
C150   C710    1.404   .     S
C150   C716    1.417   .     S
C151   F159    1.358   .     S
C151   C152    1.389   .     A
C152   H166    1.082   .     S
C153   O179    1.381   .     S
C154   O189    1.378   .     S
Cu155  O175    1.968   .     S
Cu155  Cu156   2.689   .     S
Cu155  N173    2.021   .     S
Cu155  O187    1.948   .     S
Cu155  O185    1.963   .     S
Cu155  O183    1.961   .     S
Cu156  O184    1.948   .     S
Cu156  N174    2.021   .     S
Cu156  O188    1.961   .     S
Cu156  O182    1.963   .     S
Cu156  O186    1.968   .     S
F160   C710    1.359   .     S
F161   C714    1.358   1_554 S
H164   O181    0.990   .     S
H167   O189    0.989   .     S
H168   O176    0.992   .     S
H169   O177    0.990   .     S
H170   O178    0.974   .     S
H171   O179    0.992   .     S
H172   O180    0.990   .     S
C190   C198    1.455   .     S
C190   O238    1.297   .     A
C190   O245    1.293   .     A
C191   C211    1.419   .     A
C191   C193    1.476   .     S
C191   C208    1.418   .     A
C192   O244    1.384   .     S
C192   C198    1.411   .     A
C192   C383    1.398   .     S
C193   O246    1.299   .     A
C193   O247    1.300   .     A
C194   C195    1.399   .     A
C194   F220    1.357   .     S
C195   C196    1.395   .     A
C195   C204    1.448   .     S
C196   H226    1.084   .     S
C197   O239    1.382   .     S
C197   C198    1.408   .     A
C197   C385    1.395   .     S
C199   O240    1.377   .     S
C199   N237    1.371   .     A
C199   C263    1.432   .     S
C200   N236    1.367   .     A
C200   F221    1.355   .     S
C200   C325    1.432   1_455 S
C201   C211    1.416   .     A
C201   C210    1.416   .     A
C201   C779    1.426   .     S
C202   H228    1.082   .     S
C202   N236    1.352   .     A
C202   C329    1.407   1_455 S
C203   N237    1.392   .     A
C203   O241    1.374   .     S
C203   C265    1.407   .     S
C204   O248    1.293   .     A
C204   O249    1.295   .     A
C205   O251    1.304   .     A
C205   O250    1.296   .     A
C205   C207    1.478   .     S
C206   C217    1.393   .     A
C206   C780    1.404   1_554 S
C206   F790    1.359   1_554 S
C207   C216    1.415   .     A
C207   C217    1.417   .     A
C208   C209    1.392   .     A
C208   O243    1.377   .     S
C209   F225    1.357   .     S
C209   C210    1.390   .     A
C210   F791    1.358   .     S
C211   C215    1.408   .     A
C212   C216    1.417   .     A
C212   C768    1.426   1_554 S
C212   C780    1.417   1_554 S
C213   C214    1.401   .     A
C213   C773    1.404   .     S
C213   C779    1.417   .     S
C214   F222    1.358   .     S
C214   C215    1.389   .     A
C215   H229    1.082   .     S
C216   O242    1.381   .     S
C217   O252    1.378   .     S
Cu218  O238    1.968   .     S
Cu218  Cu219   2.689   .     S
Cu218  N236    2.021   .     S
Cu218  O250    1.948   .     S
Cu218  O248    1.963   .     S
Cu218  O246    1.961   .     S
Cu219  O247    1.948   .     S
Cu219  N237    2.021   .     S
Cu219  O251    1.961   .     S
Cu219  O245    1.963   .     S
Cu219  O249    1.968   .     S
F223   C773    1.359   .     S
F224   C777    1.358   1_554 S
H227   O244    0.990   .     S
H230   O252    0.989   .     S
H231   O239    0.992   .     S
H232   O240    0.990   .     S
H233   O241    0.974   .     S
H234   O242    0.992   .     S
H235   O243    0.990   .     S
C253   C261    1.455   .     S
C253   O301    1.297   .     A
C253   O308    1.293   .     A
C254   C274    1.419   .     A
C254   C256    1.476   .     S
C254   C271    1.418   .     A
C255   O307    1.384   .     S
C255   C261    1.411   .     A
C255   C446    1.398   .     S
C256   O309    1.299   .     A
C256   O310    1.300   .     A
C257   C258    1.399   .     A
C257   F283    1.357   .     S
C258   C259    1.395   .     A
C258   C267    1.448   .     S
C259   H289    1.084   .     S
C260   O302    1.382   .     S
C260   C261    1.408   .     A
C260   C448    1.395   .     S
C262   O303    1.377   .     S
C262   N300    1.371   .     A
C262   C326    1.432   .     S
C263   N299    1.367   .     A
C263   F284    1.355   .     S
C264   C274    1.416   .     A
C264   C273    1.416   .     A
C264   C842    1.426   .     S
C265   H291    1.082   .     S
C265   N299    1.352   .     A
C266   N300    1.392   .     A
C266   O304    1.374   .     S
C266   C328    1.407   .     S
C267   O311    1.293   .     A
C267   O312    1.295   .     A
C268   O314    1.304   .     A
C268   O313    1.296   .     A
C268   C270    1.478   .     S
C269   C280    1.393   .     A
C269   C843    1.404   1_554 S
C269   F853    1.359   1_554 S
C270   C279    1.415   .     A
C270   C280    1.417   .     A
C271   C272    1.392   .     A
C271   O306    1.377   .     S
C272   F288    1.357   .     S
C272   C273    1.390   .     A
C273   F854    1.358   .     S
C274   C278    1.408   .     A
C275   C279    1.417   .     A
C275   C831    1.426   1_554 S
C275   C843    1.417   1_554 S
C276   C277    1.401   .     A
C276   C836    1.404   .     S
C276   C842    1.417   .     S
C277   F285    1.358   .     S
C277   C278    1.389   .     A
C278   H292    1.082   .     S
C279   O305    1.381   .     S
C280   O315    1.378   .     S
Cu281  O301    1.968   .     S
Cu281  Cu282   2.689   .     S
Cu281  N299    2.021   .     S
Cu281  O313    1.948   .     S
Cu281  O311    1.963   .     S
Cu281  O309    1.961   .     S
Cu282  O310    1.948   .     S
Cu282  N300    2.021   .     S
Cu282  O314    1.961   .     S
Cu282  O308    1.963   .     S
Cu282  O312    1.968   .     S
F286   C836    1.359   .     S
F287   C840    1.358   1_554 S
H290   O307    0.990   .     S
H293   O315    0.989   .     S
H294   O302    0.992   .     S
H295   O303    0.990   .     S
H296   O304    0.974   .     S
H297   O305    0.992   .     S
H298   O306    0.990   .     S
C316   C324    1.455   .     S
C316   O364    1.297   .     A
C316   O371    1.293   .     A
C317   C337    1.419   .     A
C317   C319    1.476   .     S
C317   C334    1.418   .     A
C318   O370    1.384   .     S
C318   C324    1.411   .     A
C318   C509    1.398   .     S
C319   O372    1.299   .     A
C319   O373    1.300   .     A
C320   C321    1.399   .     A
C320   F346    1.357   .     S
C321   C322    1.395   .     A
C321   C330    1.448   .     S
C322   H352    1.084   .     S
C323   O365    1.382   .     S
C323   C324    1.408   .     A
C323   C511    1.395   .     S
C325   O366    1.377   .     S
C325   N363    1.371   .     A
C325   C200    1.432   1_655 S
C326   N362    1.367   .     A
C326   F347    1.355   .     S
C327   C337    1.416   .     A
C327   C336    1.416   .     A
C327   C905    1.426   .     S
C328   H354    1.082   .     S
C328   N362    1.352   .     A
C329   N363    1.392   .     A
C329   O367    1.374   .     S
C329   C202    1.407   1_655 S
C330   O374    1.293   .     A
C330   O375    1.295   .     A
C331   O377    1.304   .     A
C331   O376    1.296   .     A
C331   C333    1.478   .     S
C332   C343    1.393   .     A
C332   C906    1.404   1_554 S
C332   F916    1.359   1_554 S
C333   C342    1.415   .     A
C333   C343    1.417   .     A
C334   C335    1.392   .     A
C334   O369    1.377   .     S
C335   F351    1.357   .     S
C335   C336    1.390   .     A
C336   F917    1.358   .     S
C337   C341    1.408   .     A
C338   C342    1.417   .     A
C338   C894    1.426   1_554 S
C338   C906    1.417   1_554 S
C339   C340    1.401   .     A
C339   C899    1.404   .     S
C339   C905    1.417   .     S
C340   F348    1.358   .     S
C340   C341    1.389   .     A
C341   H355    1.082   .     S
C342   O368    1.381   .     S
C343   O378    1.378   .     S
Cu344  O364    1.968   .     S
Cu344  Cu345   2.689   .     S
Cu344  N362    2.021   .     S
Cu344  O376    1.948   .     S
Cu344  O374    1.963   .     S
Cu344  O372    1.961   .     S
Cu345  O373    1.948   .     S
Cu345  N363    2.021   .     S
Cu345  O377    1.961   .     S
Cu345  O371    1.963   .     S
Cu345  O375    1.968   .     S
F349   C899    1.359   .     S
F350   C903    1.358   1_554 S
H353   O370    0.990   .     S
H356   O378    0.989   .     S
H357   O365    0.992   .     S
H358   O366    0.990   .     S
H359   O367    0.974   .     S
H360   O368    0.992   .     S
H361   O369    0.990   .     S
C379   C387    1.455   .     S
C379   O427    1.297   .     A
C379   O434    1.293   .     A
C380   C400    1.419   .     A
C380   C382    1.476   .     S
C380   C397    1.418   .     A
C381   O433    1.384   .     S
C381   C387    1.411   .     A
C381   C5      1.398   1_565 S
C382   O435    1.299   .     A
C382   O436    1.300   .     A
C383   C384    1.399   .     A
C383   F409    1.357   .     S
C384   C385    1.395   .     A
C384   C393    1.448   .     S
C385   H415    1.084   .     S
C386   O428    1.382   .     S
C386   C387    1.408   .     A
C386   C7      1.395   1_565 S
C388   O429    1.377   .     S
C388   N426    1.371   .     A
C388   C452    1.432   .     S
C389   N425    1.367   .     A
C389   F410    1.355   .     S
C389   C514    1.432   1_455 S
C390   C400    1.416   .     A
C390   C399    1.416   .     A
C390   C968    1.426   .     S
C391   H417    1.082   .     S
C391   N425    1.352   .     A
C391   C518    1.407   1_455 S
C392   N426    1.392   .     A
C392   O430    1.374   .     S
C392   C454    1.407   .     S
C393   O437    1.293   .     A
C393   O438    1.295   .     A
C394   O440    1.304   .     A
C394   O439    1.296   .     A
C394   C396    1.478   .     S
C395   C406    1.393   .     A
C395   C969    1.404   1_554 S
C395   F979    1.359   1_554 S
C396   C405    1.415   .     A
C396   C406    1.417   .     A
C397   C398    1.392   .     A
C397   O432    1.377   .     S
C398   F414    1.357   .     S
C398   C399    1.390   .     A
C399   F980    1.358   .     S
C400   C404    1.408   .     A
C401   C405    1.417   .     A
C401   C957    1.426   1_554 S
C401   C969    1.417   1_554 S
C402   C403    1.401   .     A
C402   C962    1.404   .     S
C402   C968    1.417   .     S
C403   F411    1.358   .     S
C403   C404    1.389   .     A
C404   H418    1.082   .     S
C405   O431    1.381   .     S
C406   O441    1.378   .     S
Cu407  O427    1.968   .     S
Cu407  Cu408   2.689   .     S
Cu407  N425    2.021   .     S
Cu407  O439    1.948   .     S
Cu407  O437    1.963   .     S
Cu407  O435    1.961   .     S
Cu408  O436    1.948   .     S
Cu408  N426    2.021   .     S
Cu408  O440    1.961   .     S
Cu408  O434    1.963   .     S
Cu408  O438    1.968   .     S
F412   C962    1.359   .     S
F413   C966    1.358   1_554 S
H416   O433    0.990   .     S
H419   O441    0.989   .     S
H420   O428    0.992   .     S
H421   O429    0.990   .     S
H422   O430    0.974   .     S
H423   O431    0.992   .     S
H424   O432    0.990   .     S
C442   C450    1.455   .     S
C442   O490    1.297   .     A
C442   O497    1.293   .     A
C443   C463    1.419   .     A
C443   C445    1.476   .     S
C443   C460    1.418   .     A
C444   O496    1.384   .     S
C444   C450    1.411   .     A
C444   C68     1.398   1_565 S
C445   O498    1.299   .     A
C445   O499    1.300   .     A
C446   C447    1.399   .     A
C446   F472    1.357   .     S
C447   C448    1.395   .     A
C447   C456    1.448   .     S
C448   H478    1.084   .     S
C449   O491    1.382   .     S
C449   C450    1.408   .     A
C449   C70     1.395   1_565 S
C451   O492    1.377   .     S
C451   N489    1.371   .     A
C451   C515    1.432   .     S
C452   N488    1.367   .     A
C452   F473    1.355   .     S
C453   C463    1.416   .     A
C453   C462    1.416   .     A
C453   C1031   1.426   .     S
C454   H480    1.082   .     S
C454   N488    1.352   .     A
C455   N489    1.392   .     A
C455   O493    1.374   .     S
C455   C517    1.407   .     S
C456   O500    1.293   .     A
C456   O501    1.295   .     A
C457   O503    1.304   .     A
C457   O502    1.296   .     A
C457   C459    1.478   .     S
C458   C469    1.393   .     A
C458   C1032   1.404   1_554 S
C458   F1042   1.359   1_554 S
C459   C468    1.415   .     A
C459   C469    1.417   .     A
C460   C461    1.392   .     A
C460   O495    1.377   .     S
C461   F477    1.357   .     S
C461   C462    1.390   .     A
C462   F1043   1.358   .     S
C463   C467    1.408   .     A
C464   C468    1.417   .     A
C464   C1020   1.426   1_554 S
C464   C1032   1.417   1_554 S
C465   C466    1.401   .     A
C465   C1025   1.404   .     S
C465   C1031   1.417   .     S
C466   F474    1.358   .     S
C466   C467    1.389   .     A
C467   H481    1.082   .     S
C468   O494    1.381   .     S
C469   O504    1.378   .     S
Cu470  O490    1.968   .     S
Cu470  Cu471   2.689   .     S
Cu470  N488    2.021   .     S
Cu470  O502    1.948   .     S
Cu470  O500    1.963   .     S
Cu470  O498    1.961   .     S
Cu471  O499    1.948   .     S
Cu471  N489    2.021   .     S
Cu471  O503    1.961   .     S
Cu471  O497    1.963   .     S
Cu471  O501    1.968   .     S
F475   C1025   1.359   .     S
F476   C1029   1.358   1_554 S
H479   O496    0.990   .     S
H482   O504    0.989   .     S
H483   O491    0.992   .     S
H484   O492    0.990   .     S
H485   O493    0.974   .     S
H486   O494    0.992   .     S
H487   O495    0.990   .     S
C505   C513    1.455   .     S
C505   O553    1.297   .     A
C505   O560    1.293   .     A
C506   C526    1.419   .     A
C506   C508    1.476   .     S
C506   C523    1.418   .     A
C507   O559    1.384   .     S
C507   C513    1.411   .     A
C507   C131    1.398   1_565 S
C508   O561    1.299   .     A
C508   O562    1.300   .     A
C509   C510    1.399   .     A
C509   F535    1.357   .     S
C510   C511    1.395   .     A
C510   C519    1.448   .     S
C511   H541    1.084   .     S
C512   O554    1.382   .     S
C512   C513    1.408   .     A
C512   C133    1.395   1_565 S
C514   O555    1.377   .     S
C514   N552    1.371   .     A
C514   C389    1.432   1_655 S
C515   N551    1.367   .     A
C515   F536    1.355   .     S
C516   C526    1.416   .     A
C516   C525    1.416   .     A
C516   C1094   1.426   .     S
C517   H543    1.082   .     S
C517   N551    1.352   .     A
C518   N552    1.392   .     A
C518   O556    1.374   .     S
C518   C391    1.407   1_655 S
C519   O563    1.293   .     A
C519   O564    1.295   .     A
C520   O566    1.304   .     A
C520   O565    1.296   .     A
C520   C522    1.478   .     S
C521   C532    1.393   .     A
C521   C1095   1.404   1_554 S
C521   F1105   1.359   1_554 S
C522   C531    1.415   .     A
C522   C532    1.417   .     A
C523   C524    1.392   .     A
C523   O558    1.377   .     S
C524   F540    1.357   .     S
C524   C525    1.390   .     A
C525   F1106   1.358   .     S
C526   C530    1.408   .     A
C527   C531    1.417   .     A
C527   C1083   1.426   1_554 S
C527   C1095   1.417   1_554 S
C528   C529    1.401   .     A
C528   C1088   1.404   .     S
C528   C1094   1.417   .     S
C529   F537    1.358   .     S
C529   C530    1.389   .     A
C530   H544    1.082   .     S
C531   O557    1.381   .     S
C532   O567    1.378   .     S
Cu533  O553    1.968   .     S
Cu533  Cu534   2.689   .     S
Cu533  N551    2.021   .     S
Cu533  O565    1.948   .     S
Cu533  O563    1.963   .     S
Cu533  O561    1.961   .     S
Cu534  O562    1.948   .     S
Cu534  N552    2.021   .     S
Cu534  O566    1.961   .     S
Cu534  O560    1.963   .     S
Cu534  O564    1.968   .     S
F538   C1088   1.359   .     S
F539   C1092   1.358   1_554 S
H542   O559    0.990   .     S
H545   O567    0.989   .     S
H546   O554    0.992   .     S
H547   O555    0.990   .     S
H548   O556    0.974   .     S
H549   O557    0.992   .     S
H550   O558    0.990   .     S
C568   C576    1.455   .     S
C568   O616    1.297   .     A
C568   O623    1.293   .     A
C569   C589    1.419   .     A
C569   C571    1.476   .     S
C569   C586    1.418   .     A
C570   O622    1.384   .     S
C570   C576    1.411   .     A
C570   C761    1.398   .     S
C571   O624    1.299   .     A
C571   O625    1.300   .     A
C572   C573    1.399   .     A
C572   F598    1.357   .     S
C572   C948    1.398   1_545 S
C573   C574    1.395   .     A
C573   C582    1.448   .     S
C574   H604    1.084   .     S
C574   C953    1.395   1_545 S
C575   O617    1.382   .     S
C575   C576    1.408   .     A
C575   C763    1.395   .     S
C577   O618    1.377   .     S
C577   N615    1.371   .     A
C577   C641    1.432   .     S
C578   N614    1.367   .     A
C578   F599    1.355   .     S
C578   C703    1.432   1_455 S
C579   C589    1.416   .     A
C579   C588    1.416   .     A
C579   C23     1.426   1_556 S
C580   H606    1.082   .     S
C580   N614    1.352   .     A
C580   C707    1.407   1_455 S
C581   N615    1.392   .     A
C581   O619    1.374   .     S
C581   C643    1.407   .     S
C582   O626    1.293   .     A
C582   O627    1.295   .     A
C583   O629    1.304   .     A
C583   O628    1.296   .     A
C583   C585    1.478   .     S
C584   C595    1.393   .     A
C585   C594    1.415   .     A
C585   C595    1.417   .     A
C586   C587    1.392   .     A
C586   O621    1.377   .     S
C587   F603    1.357   .     S
C587   C588    1.390   .     A
C588   F35     1.358   1_556 S
C589   C593    1.408   .     A
C590   C594    1.417   .     A
C591   C592    1.401   .     A
C591   C17     1.404   1_556 S
C591   C23     1.417   1_556 S
C592   F600    1.358   .     S
C592   C593    1.389   .     A
C593   H607    1.082   .     S
C594   O620    1.381   .     S
C595   O630    1.378   .     S
Cu596  O616    1.968   .     S
Cu596  Cu597   2.689   .     S
Cu596  N614    2.021   .     S
Cu596  O628    1.948   .     S
Cu596  O626    1.963   .     S
Cu596  O624    1.961   .     S
Cu597  O625    1.948   .     S
Cu597  N615    2.021   .     S
Cu597  O629    1.961   .     S
Cu597  O623    1.963   .     S
Cu597  O627    1.968   .     S
F601   C17     1.359   1_556 S
H605   O622    0.990   .     S
H608   O630    0.989   .     S
H609   O617    0.992   .     S
H610   O618    0.990   .     S
H611   O619    0.974   .     S
H612   O620    0.992   .     S
H613   O621    0.990   .     S
C631   C639    1.455   .     S
C631   O679    1.297   .     A
C631   O686    1.293   .     A
C632   C652    1.419   .     A
C632   C634    1.476   .     S
C632   C649    1.418   .     A
C633   O685    1.384   .     S
C633   C639    1.411   .     A
C633   C824    1.398   .     S
C634   O687    1.299   .     A
C634   O688    1.300   .     A
C635   C636    1.399   .     A
C635   F661    1.357   .     S
C635   C1011   1.398   1_545 S
C636   C637    1.395   .     A
C636   C645    1.448   .     S
C637   H667    1.084   .     S
C637   C1016   1.395   1_545 S
C638   O680    1.382   .     S
C638   C639    1.408   .     A
C638   C826    1.395   .     S
C640   O681    1.377   .     S
C640   N678    1.371   .     A
C640   C704    1.432   .     S
C641   N677    1.367   .     A
C641   F662    1.355   .     S
C642   C652    1.416   .     A
C642   C651    1.416   .     A
C642   C86     1.426   1_556 S
C643   H669    1.082   .     S
C643   N677    1.352   .     A
C644   N678    1.392   .     A
C644   O682    1.374   .     S
C644   C706    1.407   .     S
C645   O689    1.293   .     A
C645   O690    1.295   .     A
C646   O692    1.304   .     A
C646   O691    1.296   .     A
C646   C648    1.478   .     S
C647   C658    1.393   .     A
C648   C657    1.415   .     A
C648   C658    1.417   .     A
C649   C650    1.392   .     A
C649   O684    1.377   .     S
C650   F666    1.357   .     S
C650   C651    1.390   .     A
C651   F98     1.358   1_556 S
C652   C656    1.408   .     A
C653   C657    1.417   .     A
C654   C655    1.401   .     A
C654   C80     1.404   1_556 S
C654   C86     1.417   1_556 S
C655   F663    1.358   .     S
C655   C656    1.389   .     A
C656   H670    1.082   .     S
C657   O683    1.381   .     S
C658   O693    1.378   .     S
Cu659  O679    1.968   .     S
Cu659  Cu660   2.689   .     S
Cu659  N677    2.021   .     S
Cu659  O691    1.948   .     S
Cu659  O689    1.963   .     S
Cu659  O687    1.961   .     S
Cu660  O688    1.948   .     S
Cu660  N678    2.021   .     S
Cu660  O692    1.961   .     S
Cu660  O686    1.963   .     S
Cu660  O690    1.968   .     S
F664   C80     1.359   1_556 S
H668   O685    0.990   .     S
H671   O693    0.989   .     S
H672   O680    0.992   .     S
H673   O681    0.990   .     S
H674   O682    0.974   .     S
H675   O683    0.992   .     S
H676   O684    0.990   .     S
C694   C702    1.455   .     S
C694   O742    1.297   .     A
C694   O749    1.293   .     A
C695   C715    1.419   .     A
C695   C697    1.476   .     S
C695   C712    1.418   .     A
C696   O748    1.384   .     S
C696   C702    1.411   .     A
C696   C887    1.398   .     S
C697   O750    1.299   .     A
C697   O751    1.300   .     A
C698   C699    1.399   .     A
C698   F724    1.357   .     S
C698   C1074   1.398   1_545 S
C699   C700    1.395   .     A
C699   C708    1.448   .     S
C700   H730    1.084   .     S
C700   C1079   1.395   1_545 S
C701   O743    1.382   .     S
C701   C702    1.408   .     A
C701   C889    1.395   .     S
C703   O744    1.377   .     S
C703   N741    1.371   .     A
C703   C578    1.432   1_655 S
C704   N740    1.367   .     A
C704   F725    1.355   .     S
C705   C715    1.416   .     A
C705   C714    1.416   .     A
C705   C149    1.426   1_556 S
C706   H732    1.082   .     S
C706   N740    1.352   .     A
C707   N741    1.392   .     A
C707   O745    1.374   .     S
C707   C580    1.407   1_655 S
C708   O752    1.293   .     A
C708   O753    1.295   .     A
C709   O755    1.304   .     A
C709   O754    1.296   .     A
C709   C711    1.478   .     S
C710   C721    1.393   .     A
C711   C720    1.415   .     A
C711   C721    1.417   .     A
C712   C713    1.392   .     A
C712   O747    1.377   .     S
C713   F729    1.357   .     S
C713   C714    1.390   .     A
C714   F161    1.358   1_556 S
C715   C719    1.408   .     A
C716   C720    1.417   .     A
C717   C718    1.401   .     A
C717   C143    1.404   1_556 S
C717   C149    1.417   1_556 S
C718   F726    1.358   .     S
C718   C719    1.389   .     A
C719   H733    1.082   .     S
C720   O746    1.381   .     S
C721   O756    1.378   .     S
Cu722  O742    1.968   .     S
Cu722  Cu723   2.689   .     S
Cu722  N740    2.021   .     S
Cu722  O754    1.948   .     S
Cu722  O752    1.963   .     S
Cu722  O750    1.961   .     S
Cu723  O751    1.948   .     S
Cu723  N741    2.021   .     S
Cu723  O755    1.961   .     S
Cu723  O749    1.963   .     S
Cu723  O753    1.968   .     S
F727   C143    1.359   1_556 S
H731   O748    0.990   .     S
H734   O756    0.989   .     S
H735   O743    0.992   .     S
H736   O744    0.990   .     S
H737   O745    0.974   .     S
H738   O746    0.992   .     S
H739   O747    0.990   .     S
C757   C765    1.455   .     S
C757   O805    1.297   .     A
C757   O812    1.293   .     A
C758   C778    1.419   .     A
C758   C760    1.476   .     S
C758   C775    1.418   .     A
C759   O811    1.384   .     S
C759   C765    1.411   .     A
C759   C950    1.398   .     S
C760   O813    1.299   .     A
C760   O814    1.300   .     A
C761   C762    1.399   .     A
C761   F787    1.357   .     S
C762   C763    1.395   .     A
C762   C771    1.448   .     S
C763   H793    1.084   .     S
C764   O806    1.382   .     S
C764   C765    1.408   .     A
C764   C952    1.395   .     S
C766   O807    1.377   .     S
C766   N804    1.371   .     A
C766   C830    1.432   .     S
C767   N803    1.367   .     A
C767   F788    1.355   .     S
C767   C892    1.432   1_455 S
C768   C778    1.416   .     A
C768   C777    1.416   .     A
C768   C212    1.426   1_556 S
C769   H795    1.082   .     S
C769   N803    1.352   .     A
C769   C896    1.407   1_455 S
C770   N804    1.392   .     A
C770   O808    1.374   .     S
C770   C832    1.407   .     S
C771   O815    1.293   .     A
C771   O816    1.295   .     A
C772   O818    1.304   .     A
C772   O817    1.296   .     A
C772   C774    1.478   .     S
C773   C784    1.393   .     A
C774   C783    1.415   .     A
C774   C784    1.417   .     A
C775   C776    1.392   .     A
C775   O810    1.377   .     S
C776   F792    1.357   .     S
C776   C777    1.390   .     A
C777   F224    1.358   1_556 S
C778   C782    1.408   .     A
C779   C783    1.417   .     A
C780   C781    1.401   .     A
C780   C206    1.404   1_556 S
C780   C212    1.417   1_556 S
C781   F789    1.358   .     S
C781   C782    1.389   .     A
C782   H796    1.082   .     S
C783   O809    1.381   .     S
C784   O819    1.378   .     S
Cu785  O805    1.968   .     S
Cu785  Cu786   2.689   .     S
Cu785  N803    2.021   .     S
Cu785  O817    1.948   .     S
Cu785  O815    1.963   .     S
Cu785  O813    1.961   .     S
Cu786  O814    1.948   .     S
Cu786  N804    2.021   .     S
Cu786  O818    1.961   .     S
Cu786  O812    1.963   .     S
Cu786  O816    1.968   .     S
F790   C206    1.359   1_556 S
H794   O811    0.990   .     S
H797   O819    0.989   .     S
H798   O806    0.992   .     S
H799   O807    0.990   .     S
H800   O808    0.974   .     S
H801   O809    0.992   .     S
H802   O810    0.990   .     S
C820   C828    1.455   .     S
C820   O868    1.297   .     A
C820   O875    1.293   .     A
C821   C841    1.419   .     A
C821   C823    1.476   .     S
C821   C838    1.418   .     A
C822   O874    1.384   .     S
C822   C828    1.411   .     A
C822   C1013   1.398   .     S
C823   O876    1.299   .     A
C823   O877    1.300   .     A
C824   C825    1.399   .     A
C824   F850    1.357   .     S
C825   C826    1.395   .     A
C825   C834    1.448   .     S
C826   H856    1.084   .     S
C827   O869    1.382   .     S
C827   C828    1.408   .     A
C827   C1015   1.395   .     S
C829   O870    1.377   .     S
C829   N867    1.371   .     A
C829   C893    1.432   .     S
C830   N866    1.367   .     A
C830   F851    1.355   .     S
C831   C841    1.416   .     A
C831   C840    1.416   .     A
C831   C275    1.426   1_556 S
C832   H858    1.082   .     S
C832   N866    1.352   .     A
C833   N867    1.392   .     A
C833   O871    1.374   .     S
C833   C895    1.407   .     S
C834   O878    1.293   .     A
C834   O879    1.295   .     A
C835   O881    1.304   .     A
C835   O880    1.296   .     A
C835   C837    1.478   .     S
C836   C847    1.393   .     A
C837   C846    1.415   .     A
C837   C847    1.417   .     A
C838   C839    1.392   .     A
C838   O873    1.377   .     S
C839   F855    1.357   .     S
C839   C840    1.390   .     A
C840   F287    1.358   1_556 S
C841   C845    1.408   .     A
C842   C846    1.417   .     A
C843   C844    1.401   .     A
C843   C269    1.404   1_556 S
C843   C275    1.417   1_556 S
C844   F852    1.358   .     S
C844   C845    1.389   .     A
C845   H859    1.082   .     S
C846   O872    1.381   .     S
C847   O882    1.378   .     S
Cu848  O868    1.968   .     S
Cu848  Cu849   2.689   .     S
Cu848  N866    2.021   .     S
Cu848  O880    1.948   .     S
Cu848  O878    1.963   .     S
Cu848  O876    1.961   .     S
Cu849  O877    1.948   .     S
Cu849  N867    2.021   .     S
Cu849  O881    1.961   .     S
Cu849  O875    1.963   .     S
Cu849  O879    1.968   .     S
F853   C269    1.359   1_556 S
H857   O874    0.990   .     S
H860   O882    0.989   .     S
H861   O869    0.992   .     S
H862   O870    0.990   .     S
H863   O871    0.974   .     S
H864   O872    0.992   .     S
H865   O873    0.990   .     S
C883   C891    1.455   .     S
C883   O931    1.297   .     A
C883   O938    1.293   .     A
C884   C904    1.419   .     A
C884   C886    1.476   .     S
C884   C901    1.418   .     A
C885   O937    1.384   .     S
C885   C891    1.411   .     A
C885   C1076   1.398   .     S
C886   O939    1.299   .     A
C886   O940    1.300   .     A
C887   C888    1.399   .     A
C887   F913    1.357   .     S
C888   C889    1.395   .     A
C888   C897    1.448   .     S
C889   H919    1.084   .     S
C890   O932    1.382   .     S
C890   C891    1.408   .     A
C890   C1078   1.395   .     S
C892   O933    1.377   .     S
C892   N930    1.371   .     A
C892   C767    1.432   1_655 S
C893   N929    1.367   .     A
C893   F914    1.355   .     S
C894   C904    1.416   .     A
C894   C903    1.416   .     A
C894   C338    1.426   1_556 S
C895   H921    1.082   .     S
C895   N929    1.352   .     A
C896   N930    1.392   .     A
C896   O934    1.374   .     S
C896   C769    1.407   1_655 S
C897   O941    1.293   .     A
C897   O942    1.295   .     A
C898   O944    1.304   .     A
C898   O943    1.296   .     A
C898   C900    1.478   .     S
C899   C910    1.393   .     A
C900   C909    1.415   .     A
C900   C910    1.417   .     A
C901   C902    1.392   .     A
C901   O936    1.377   .     S
C902   F918    1.357   .     S
C902   C903    1.390   .     A
C903   F350    1.358   1_556 S
C904   C908    1.408   .     A
C905   C909    1.417   .     A
C906   C907    1.401   .     A
C906   C332    1.404   1_556 S
C906   C338    1.417   1_556 S
C907   F915    1.358   .     S
C907   C908    1.389   .     A
C908   H922    1.082   .     S
C909   O935    1.381   .     S
C910   O945    1.378   .     S
Cu911  O931    1.968   .     S
Cu911  Cu912   2.689   .     S
Cu911  N929    2.021   .     S
Cu911  O943    1.948   .     S
Cu911  O941    1.963   .     S
Cu911  O939    1.961   .     S
Cu912  O940    1.948   .     S
Cu912  N930    2.021   .     S
Cu912  O944    1.961   .     S
Cu912  O938    1.963   .     S
Cu912  O942    1.968   .     S
F916   C332    1.359   1_556 S
H920   O937    0.990   .     S
H923   O945    0.989   .     S
H924   O932    0.992   .     S
H925   O933    0.990   .     S
H926   O934    0.974   .     S
H927   O935    0.992   .     S
H928   O936    0.990   .     S
C946   C954    1.455   .     S
C946   O994    1.297   .     A
C946   O1001   1.293   .     A
C947   C967    1.419   .     A
C947   C949    1.476   .     S
C947   C964    1.418   .     A
C948   O1000   1.384   .     S
C948   C954    1.411   .     A
C948   C572    1.398   1_565 S
C949   O1002   1.299   .     A
C949   O1003   1.300   .     A
C950   C951    1.399   .     A
C950   F976    1.357   .     S
C951   C952    1.395   .     A
C951   C960    1.448   .     S
C952   H982    1.084   .     S
C953   O995    1.382   .     S
C953   C954    1.408   .     A
C953   C574    1.395   1_565 S
C955   O996    1.377   .     S
C955   N993    1.371   .     A
C955   C1019   1.432   .     S
C956   N992    1.367   .     A
C956   F977    1.355   .     S
C956   C1081   1.432   1_455 S
C957   C967    1.416   .     A
C957   C966    1.416   .     A
C957   C401    1.426   1_556 S
C958   H984    1.082   .     S
C958   N992    1.352   .     A
C958   C1085   1.407   1_455 S
C959   N993    1.392   .     A
C959   O997    1.374   .     S
C959   C1021   1.407   .     S
C960   O1004   1.293   .     A
C960   O1005   1.295   .     A
C961   O1007   1.304   .     A
C961   O1006   1.296   .     A
C961   C963    1.478   .     S
C962   C973    1.393   .     A
C963   C972    1.415   .     A
C963   C973    1.417   .     A
C964   C965    1.392   .     A
C964   O999    1.377   .     S
C965   F981    1.357   .     S
C965   C966    1.390   .     A
C966   F413    1.358   1_556 S
C967   C971    1.408   .     A
C968   C972    1.417   .     A
C969   C970    1.401   .     A
C969   C395    1.404   1_556 S
C969   C401    1.417   1_556 S
C970   F978    1.358   .     S
C970   C971    1.389   .     A
C971   H985    1.082   .     S
C972   O998    1.381   .     S
C973   O1008   1.378   .     S
Cu974  O994    1.968   .     S
Cu974  Cu975   2.689   .     S
Cu974  N992    2.021   .     S
Cu974  O1006   1.948   .     S
Cu974  O1004   1.963   .     S
Cu974  O1002   1.961   .     S
Cu975  O1003   1.948   .     S
Cu975  N993    2.021   .     S
Cu975  O1007   1.961   .     S
Cu975  O1001   1.963   .     S
Cu975  O1005   1.968   .     S
F979   C395    1.359   1_556 S
H983   O1000   0.990   .     S
H986   O1008   0.989   .     S
H987   O995    0.992   .     S
H988   O996    0.990   .     S
H989   O997    0.974   .     S
H990   O998    0.992   .     S
H991   O999    0.990   .     S
C1009  C1017   1.455   .     S
C1009  O1057   1.297   .     A
C1009  O1064   1.293   .     A
C1010  C1030   1.419   .     A
C1010  C1012   1.476   .     S
C1010  C1027   1.418   .     A
C1011  O1063   1.384   .     S
C1011  C1017   1.411   .     A
C1011  C635    1.398   1_565 S
C1012  O1065   1.299   .     A
C1012  O1066   1.300   .     A
C1013  C1014   1.399   .     A
C1013  F1039   1.357   .     S
C1014  C1015   1.395   .     A
C1014  C1023   1.448   .     S
C1015  H1045   1.084   .     S
C1016  O1058   1.382   .     S
C1016  C1017   1.408   .     A
C1016  C637    1.395   1_565 S
C1018  O1059   1.377   .     S
C1018  N1056   1.371   .     A
C1018  C1082   1.432   .     S
C1019  N1055   1.367   .     A
C1019  F1040   1.355   .     S
C1020  C1030   1.416   .     A
C1020  C1029   1.416   .     A
C1020  C464    1.426   1_556 S
C1021  H1047   1.082   .     S
C1021  N1055   1.352   .     A
C1022  N1056   1.392   .     A
C1022  O1060   1.374   .     S
C1022  C1084   1.407   .     S
C1023  O1067   1.293   .     A
C1023  O1068   1.295   .     A
C1024  O1070   1.304   .     A
C1024  O1069   1.296   .     A
C1024  C1026   1.478   .     S
C1025  C1036   1.393   .     A
C1026  C1035   1.415   .     A
C1026  C1036   1.417   .     A
C1027  C1028   1.392   .     A
C1027  O1062   1.377   .     S
C1028  F1044   1.357   .     S
C1028  C1029   1.390   .     A
C1029  F476    1.358   1_556 S
C1030  C1034   1.408   .     A
C1031  C1035   1.417   .     A
C1032  C1033   1.401   .     A
C1032  C458    1.404   1_556 S
C1032  C464    1.417   1_556 S
C1033  F1041   1.358   .     S
C1033  C1034   1.389   .     A
C1034  H1048   1.082   .     S
C1035  O1061   1.381   .     S
C1036  O1071   1.378   .     S
Cu1037 O1057   1.968   .     S
Cu1037 Cu1038  2.689   .     S
Cu1037 N1055   2.021   .     S
Cu1037 O1069   1.948   .     S
Cu1037 O1067   1.963   .     S
Cu1037 O1065   1.961   .     S
Cu1038 O1066   1.948   .     S
Cu1038 N1056   2.021   .     S
Cu1038 O1070   1.961   .     S
Cu1038 O1064   1.963   .     S
Cu1038 O1068   1.968   .     S
F1042  C458    1.359   1_556 S
H1046  O1063   0.990   .     S
H1049  O1071   0.989   .     S
H1050  O1058   0.992   .     S
H1051  O1059   0.990   .     S
H1052  O1060   0.974   .     S
H1053  O1061   0.992   .     S
H1054  O1062   0.990   .     S
C1072  C1080   1.455   .     S
C1072  O1120   1.297   .     A
C1072  O1127   1.293   .     A
C1073  C1093   1.419   .     A
C1073  C1075   1.476   .     S
C1073  C1090   1.418   .     A
C1074  O1126   1.384   .     S
C1074  C1080   1.411   .     A
C1074  C698    1.398   1_565 S
C1075  O1128   1.299   .     A
C1075  O1129   1.300   .     A
C1076  C1077   1.399   .     A
C1076  F1102   1.357   .     S
C1077  C1078   1.395   .     A
C1077  C1086   1.448   .     S
C1078  H1108   1.084   .     S
C1079  O1121   1.382   .     S
C1079  C1080   1.408   .     A
C1079  C700    1.395   1_565 S
C1081  O1122   1.377   .     S
C1081  N1119   1.371   .     A
C1081  C956    1.432   1_655 S
C1082  N1118   1.367   .     A
C1082  F1103   1.355   .     S
C1083  C1093   1.416   .     A
C1083  C1092   1.416   .     A
C1083  C527    1.426   1_556 S
C1084  H1110   1.082   .     S
C1084  N1118   1.352   .     A
C1085  N1119   1.392   .     A
C1085  O1123   1.374   .     S
C1085  C958    1.407   1_655 S
C1086  O1130   1.293   .     A
C1086  O1131   1.295   .     A
C1087  O1133   1.304   .     A
C1087  O1132   1.296   .     A
C1087  C1089   1.478   .     S
C1088  C1099   1.393   .     A
C1089  C1098   1.415   .     A
C1089  C1099   1.417   .     A
C1090  C1091   1.392   .     A
C1090  O1125   1.377   .     S
C1091  F1107   1.357   .     S
C1091  C1092   1.390   .     A
C1092  F539    1.358   1_556 S
C1093  C1097   1.408   .     A
C1094  C1098   1.417   .     A
C1095  C1096   1.401   .     A
C1095  C521    1.404   1_556 S
C1095  C527    1.417   1_556 S
C1096  F1104   1.358   .     S
C1096  C1097   1.389   .     A
C1097  H1111   1.082   .     S
C1098  O1124   1.381   .     S
C1099  O1134   1.378   .     S
Cu1100 O1120   1.968   .     S
Cu1100 Cu1101  2.689   .     S
Cu1100 N1118   2.021   .     S
Cu1100 O1132   1.948   .     S
Cu1100 O1130   1.963   .     S
Cu1100 O1128   1.961   .     S
Cu1101 O1129   1.948   .     S
Cu1101 N1119   2.021   .     S
Cu1101 O1133   1.961   .     S
Cu1101 O1127   1.963   .     S
Cu1101 O1131   1.968   .     S
F1105  C521    1.359   1_556 S
H1109  O1126   0.990   .     S
H1112  O1134   0.989   .     S
H1113  O1121   0.992   .     S
H1114  O1122   0.990   .     S
H1115  O1123   0.974   .     S
H1116  O1124   0.992   .     S
H1117  O1125   0.990   .     S
