data_str_m2_o2_o10_pcu_sym.77
_audit_creation_date              2020-01-03
_audit_creation_method            'Materials Studio'
_symmetry_space_group_name_H-M    'P1'
_symmetry_Int_Tables_number       1
_symmetry_cell_setting            triclinic
loop_
_symmetry_equiv_pos_as_xyz
  x,y,z
_cell_length_a                    26.1572
_cell_length_b                    30.2802
_cell_length_c                    27.6707
_cell_angle_alpha                 90.0426
_cell_angle_beta                  98.0725
_cell_angle_gamma                 90.0118
loop_
_atom_site_label
_atom_site_type_symbol
_atom_site_fract_x
_atom_site_fract_y
_atom_site_fract_z
_atom_site_U_iso_or_equiv
_atom_site_adp_type
_atom_site_occupancy
C1     C     0.16669   0.16492   0.24999   0.00000  Uiso   1.00
C2     C     0.14068   0.28434   0.44248   0.00000  Uiso   1.00
C3     C     0.16553   0.24984   0.02703   0.00000  Uiso   1.00
C4     C     0.16519   0.25038   0.47253   0.00000  Uiso   1.00
C5     C     0.06785   0.25003   0.23751   0.00000  Uiso   1.00
C6     C     0.26548   0.25005   0.26250   0.00000  Uiso   1.00
C7     C     0.01256   0.25005   0.23064   0.00000  Uiso   1.00
C8     C     0.32078   0.25015   0.26943   0.00000  Uiso   1.00
C9     C     0.18249   0.04766   0.29343   0.00000  Uiso   1.00
C10    C     0.18250   0.45238   0.21090   0.00000  Uiso   1.00
C11    C     0.18215   0.09356   0.29346   0.00000  Uiso   1.00
C12    C     0.16667   0.33508   0.25002   0.00000  Uiso   1.00
C13    C     0.18214   0.40648   0.21073   0.00000  Uiso   1.00
C14    C     0.16672   0.11670   0.25000   0.00000  Uiso   1.00
C15    C     0.16671   0.38330   0.25007   0.00000  Uiso   1.00
C16    C     0.15130   0.09345   0.20657   0.00000  Uiso   1.00
C17    C     0.15131   0.40651   0.28944   0.00000  Uiso   1.00
C18    C     0.15094   0.04755   0.20667   0.00000  Uiso   1.00
C19    C     0.15097   0.45242   0.28929   0.00000  Uiso   1.00
C20    C     0.16671   0.02428   0.25007   0.00000  Uiso   1.00
C21    C     0.16673   0.47572   0.25009   0.00000  Uiso   1.00
C22    C     0.07333   0.18551   0.00482   0.00000  Uiso   1.00
C23    C     0.18638   0.28542   0.05598   0.00000  Uiso   1.00
C24    C     0.04737   0.14211   0.48723   0.00000  Uiso   1.00
C25    C     0.32498   0.14972   0.46382   0.00000  Uiso   1.00
C26    C     0.06827   0.30845   0.47369   0.00000  Uiso   1.00
C27    C     0.02823   0.30019   0.42825   0.00000  Uiso   1.00
C28    C     0.30813   0.29114   0.44228   0.00000  Uiso   1.00
C29    C     0.18938   0.21627   0.44968   0.00000  Uiso   1.00
C30    C     0.18697   0.28473   0.10694   0.00000  Uiso   1.00
C31    C     0.18990   0.21675   0.39891   0.00000  Uiso   1.00
C32    C     0.14589   0.21511   0.10203   0.00000  Uiso   1.00
C33    C     0.14284   0.28351   0.39179   0.00000  Uiso   1.00
C34    C     0.14469   0.21410   0.05086   0.00000  Uiso   1.00
Cu35   Cu    0.16667   0.25000   0.29822   0.00000  Uiso   1.00
Cu36   Cu    0.16667   0.25001   0.20179   0.00000  Uiso   1.00
H37    H     0.19463   0.11092   0.32731   0.00000  Uiso   1.00
H38    H     0.13778   0.46965   0.31954   0.00000  Uiso   1.00
H39    H     0.20281   0.31342   0.03929   0.00000  Uiso   1.00
H40    H     0.20836   0.18956   0.47116   0.00000  Uiso   1.00
H41    H     0.20390   0.31220   0.12849   0.00000  Uiso   1.00
H42    H     0.20920   0.19043   0.38220   0.00000  Uiso   1.00
H43    H     0.12960   0.18772   0.11975   0.00000  Uiso   1.00
H44    H     0.12446   0.30972   0.36918   0.00000  Uiso   1.00
H45    H     0.07253   0.20762   0.47270   0.00000  Uiso   1.00
H46    H     0.05076   0.20070   0.03195   0.00000  Uiso   1.00
H47    H     0.06921   0.12652   0.46002   0.00000  Uiso   1.00
H48    H     0.19461   0.38916   0.18018   0.00000  Uiso   1.00
H49    H     0.04771   0.11924   0.01868   0.00000  Uiso   1.00
H50    H     0.30224   0.16458   0.49071   0.00000  Uiso   1.00
H51    H     0.30707   0.11770   0.45131   0.00000  Uiso   1.00
H52    H     0.32376   0.17206   0.43183   0.00000  Uiso   1.00
H53    H     0.05460   0.33661   0.49420   0.00000  Uiso   1.00
H54    H     0.07046   0.27989   0.49892   0.00000  Uiso   1.00
H55    H     0.02621   0.32955   0.40399   0.00000  Uiso   1.00
H56    H     0.03968   0.27116   0.40770   0.00000  Uiso   1.00
H57    H     0.30913   0.26128   0.46572   0.00000  Uiso   1.00
H58    H     0.28018   0.28538   0.40879   0.00000  Uiso   1.00
H59    H     0.32580   0.24996   0.19347   0.00000  Uiso   1.00
H60    H     0.29471   0.31982   0.46216   0.00000  Uiso   1.00
H61    H     0.00753   0.25027   0.30661   0.00000  Uiso   1.00
H62    H     0.19569   0.03049   0.32719   0.00000  Uiso   1.00
H63    H     0.19570   0.46958   0.18066   0.00000  Uiso   1.00
H64    H     0.13882   0.11072   0.17270   0.00000  Uiso   1.00
H65    H     0.13883   0.38921   0.31998   0.00000  Uiso   1.00
H66    H     0.13774   0.03029   0.17293   0.00000  Uiso   1.00
N67    N     0.16667   0.25001   0.12934   0.00000  Uiso   1.00
N68    N     0.16667   0.24999   0.37066   0.00000  Uiso   1.00
O69    O     0.16667   0.18573   0.29072   0.00000  Uiso   1.00
O70    O     0.11738   0.32022   0.46160   0.00000  Uiso   1.00
O71    O     0.16666   0.31428   0.20929   0.00000  Uiso   1.00
O72    O     0.16667   0.18573   0.20928   0.00000  Uiso   1.00
O73    O     0.16666   0.31427   0.29072   0.00000  Uiso   1.00
O74    O     0.09161   0.25000   0.28132   0.00000  Uiso   1.00
O75    O     0.24172   0.25001   0.21868   0.00000  Uiso   1.00
O76    O     0.09161   0.25000   0.19989   0.00000  Uiso   1.00
O77    O     0.24172   0.25000   0.30012   0.00000  Uiso   1.00
O78    O     0.12497   0.17714   0.02531   0.00000  Uiso   1.00
C79    C     0.50002   0.16492   0.24999   0.00000  Uiso   1.00
C80    C     0.47402   0.28434   0.44248   0.00000  Uiso   1.00
C81    C     0.49886   0.24984   0.02703   0.00000  Uiso   1.00
C82    C     0.49853   0.25038   0.47253   0.00000  Uiso   1.00
C83    C     0.40119   0.25003   0.23751   0.00000  Uiso   1.00
C84    C     0.59882   0.25005   0.26250   0.00000  Uiso   1.00
C85    C     0.34590   0.25005   0.23064   0.00000  Uiso   1.00
C86    C     0.65411   0.25015   0.26943   0.00000  Uiso   1.00
C87    C     0.51582   0.04766   0.29343   0.00000  Uiso   1.00
C88    C     0.51583   0.45238   0.21090   0.00000  Uiso   1.00
C89    C     0.51548   0.09356   0.29346   0.00000  Uiso   1.00
C90    C     0.50001   0.33508   0.25002   0.00000  Uiso   1.00
C91    C     0.51547   0.40648   0.21073   0.00000  Uiso   1.00
C92    C     0.50006   0.11670   0.25000   0.00000  Uiso   1.00
C93    C     0.50004   0.38330   0.25007   0.00000  Uiso   1.00
C94    C     0.48463   0.09345   0.20657   0.00000  Uiso   1.00
C95    C     0.48464   0.40651   0.28944   0.00000  Uiso   1.00
C96    C     0.48428   0.04755   0.20667   0.00000  Uiso   1.00
C97    C     0.48431   0.45242   0.28929   0.00000  Uiso   1.00
C98    C     0.50004   0.02428   0.25007   0.00000  Uiso   1.00
C99    C     0.50006   0.47572   0.25009   0.00000  Uiso   1.00
C100   C     0.40666   0.18551   0.00482   0.00000  Uiso   1.00
C101   C     0.51971   0.28542   0.05598   0.00000  Uiso   1.00
C102   C     0.38070   0.14211   0.48723   0.00000  Uiso   1.00
C103   C     0.65831   0.14972   0.46382   0.00000  Uiso   1.00
C104   C     0.40161   0.30845   0.47369   0.00000  Uiso   1.00
C105   C     0.36156   0.30019   0.42825   0.00000  Uiso   1.00
C106   C     0.64146   0.29114   0.44228   0.00000  Uiso   1.00
C107   C     0.52271   0.21627   0.44968   0.00000  Uiso   1.00
C108   C     0.52030   0.28473   0.10694   0.00000  Uiso   1.00
C109   C     0.52323   0.21675   0.39891   0.00000  Uiso   1.00
C110   C     0.47922   0.21511   0.10203   0.00000  Uiso   1.00
C111   C     0.47618   0.28351   0.39179   0.00000  Uiso   1.00
C112   C     0.47802   0.21410   0.05086   0.00000  Uiso   1.00
Cu113  Cu    0.50000   0.25000   0.29822   0.00000  Uiso   1.00
Cu114  Cu    0.50000   0.25001   0.20179   0.00000  Uiso   1.00
H115   H     0.52796   0.11092   0.32731   0.00000  Uiso   1.00
H116   H     0.47112   0.46965   0.31954   0.00000  Uiso   1.00
H117   H     0.53615   0.31342   0.03929   0.00000  Uiso   1.00
H118   H     0.54170   0.18956   0.47116   0.00000  Uiso   1.00
H119   H     0.53723   0.31220   0.12849   0.00000  Uiso   1.00
H120   H     0.54254   0.19043   0.38220   0.00000  Uiso   1.00
H121   H     0.46294   0.18772   0.11975   0.00000  Uiso   1.00
H122   H     0.45779   0.30972   0.36918   0.00000  Uiso   1.00
H123   H     0.40586   0.20762   0.47270   0.00000  Uiso   1.00
H124   H     0.38409   0.20070   0.03195   0.00000  Uiso   1.00
H125   H     0.40255   0.12652   0.46002   0.00000  Uiso   1.00
H126   H     0.52794   0.38916   0.18018   0.00000  Uiso   1.00
H127   H     0.38104   0.11924   0.01868   0.00000  Uiso   1.00
H128   H     0.63558   0.16458   0.49071   0.00000  Uiso   1.00
H129   H     0.64041   0.11770   0.45131   0.00000  Uiso   1.00
H130   H     0.65709   0.17206   0.43183   0.00000  Uiso   1.00
H131   H     0.38793   0.33661   0.49420   0.00000  Uiso   1.00
H132   H     0.40379   0.27989   0.49892   0.00000  Uiso   1.00
H133   H     0.35954   0.32955   0.40399   0.00000  Uiso   1.00
H134   H     0.37302   0.27116   0.40770   0.00000  Uiso   1.00
H135   H     0.64246   0.26128   0.46572   0.00000  Uiso   1.00
H136   H     0.61351   0.28538   0.40879   0.00000  Uiso   1.00
H137   H     0.65913   0.24996   0.19347   0.00000  Uiso   1.00
H138   H     0.62804   0.31982   0.46216   0.00000  Uiso   1.00
H139   H     0.34087   0.25027   0.30661   0.00000  Uiso   1.00
H140   H     0.52902   0.03049   0.32719   0.00000  Uiso   1.00
H141   H     0.52904   0.46958   0.18066   0.00000  Uiso   1.00
H142   H     0.47215   0.11072   0.17270   0.00000  Uiso   1.00
H143   H     0.47217   0.38921   0.31998   0.00000  Uiso   1.00
H144   H     0.47107   0.03029   0.17293   0.00000  Uiso   1.00
N145   N     0.50000   0.25001   0.12934   0.00000  Uiso   1.00
N146   N     0.50000   0.24999   0.37066   0.00000  Uiso   1.00
O147   O     0.50000   0.18573   0.29072   0.00000  Uiso   1.00
O148   O     0.45071   0.32022   0.46160   0.00000  Uiso   1.00
O149   O     0.50000   0.31428   0.20929   0.00000  Uiso   1.00
O150   O     0.50000   0.18573   0.20928   0.00000  Uiso   1.00
O151   O     0.50000   0.31427   0.29072   0.00000  Uiso   1.00
O152   O     0.42495   0.25000   0.28132   0.00000  Uiso   1.00
O153   O     0.57505   0.25001   0.21868   0.00000  Uiso   1.00
O154   O     0.42495   0.25000   0.19989   0.00000  Uiso   1.00
O155   O     0.57505   0.25000   0.30012   0.00000  Uiso   1.00
O156   O     0.45831   0.17714   0.02531   0.00000  Uiso   1.00
C157   C     0.83335   0.16492   0.24999   0.00000  Uiso   1.00
C158   C     0.80735   0.28434   0.44248   0.00000  Uiso   1.00
C159   C     0.83220   0.24984   0.02703   0.00000  Uiso   1.00
C160   C     0.83186   0.25038   0.47253   0.00000  Uiso   1.00
C161   C     0.73452   0.25003   0.23751   0.00000  Uiso   1.00
C162   C     0.93215   0.25005   0.26250   0.00000  Uiso   1.00
C163   C     0.67923   0.25005   0.23064   0.00000  Uiso   1.00
C164   C     0.98744   0.25015   0.26943   0.00000  Uiso   1.00
C165   C     0.84915   0.04766   0.29343   0.00000  Uiso   1.00
C166   C     0.84917   0.45238   0.21090   0.00000  Uiso   1.00
C167   C     0.84882   0.09356   0.29346   0.00000  Uiso   1.00
C168   C     0.83334   0.33508   0.25002   0.00000  Uiso   1.00
C169   C     0.84881   0.40648   0.21073   0.00000  Uiso   1.00
C170   C     0.83339   0.11670   0.25000   0.00000  Uiso   1.00
C171   C     0.83337   0.38330   0.25007   0.00000  Uiso   1.00
C172   C     0.81796   0.09345   0.20657   0.00000  Uiso   1.00
C173   C     0.81797   0.40651   0.28944   0.00000  Uiso   1.00
C174   C     0.81761   0.04755   0.20667   0.00000  Uiso   1.00
C175   C     0.81764   0.45242   0.28929   0.00000  Uiso   1.00
C176   C     0.83338   0.02428   0.25007   0.00000  Uiso   1.00
C177   C     0.83340   0.47572   0.25009   0.00000  Uiso   1.00
C178   C     0.74000   0.18551   0.00482   0.00000  Uiso   1.00
C179   C     0.85305   0.28542   0.05598   0.00000  Uiso   1.00
C180   C     0.71403   0.14211   0.48723   0.00000  Uiso   1.00
C181   C     0.99165   0.14972   0.46382   0.00000  Uiso   1.00
C182   C     0.73494   0.30845   0.47369   0.00000  Uiso   1.00
C183   C     0.69490   0.30019   0.42825   0.00000  Uiso   1.00
C184   C     0.97479   0.29114   0.44228   0.00000  Uiso   1.00
C185   C     0.85605   0.21627   0.44968   0.00000  Uiso   1.00
C186   C     0.85363   0.28473   0.10694   0.00000  Uiso   1.00
C187   C     0.85656   0.21675   0.39891   0.00000  Uiso   1.00
C188   C     0.81255   0.21511   0.10203   0.00000  Uiso   1.00
C189   C     0.80951   0.28351   0.39179   0.00000  Uiso   1.00
C190   C     0.81136   0.21410   0.05086   0.00000  Uiso   1.00
Cu191  Cu    0.83333   0.25000   0.29822   0.00000  Uiso   1.00
Cu192  Cu    0.83333   0.25001   0.20179   0.00000  Uiso   1.00
H193   H     0.86130   0.11092   0.32731   0.00000  Uiso   1.00
H194   H     0.80445   0.46965   0.31954   0.00000  Uiso   1.00
H195   H     0.86948   0.31342   0.03929   0.00000  Uiso   1.00
H196   H     0.87503   0.18956   0.47116   0.00000  Uiso   1.00
H197   H     0.87056   0.31220   0.12849   0.00000  Uiso   1.00
H198   H     0.87587   0.19043   0.38220   0.00000  Uiso   1.00
H199   H     0.79627   0.18772   0.11975   0.00000  Uiso   1.00
H200   H     0.79112   0.30972   0.36918   0.00000  Uiso   1.00
H201   H     0.73920   0.20762   0.47270   0.00000  Uiso   1.00
H202   H     0.71742   0.20070   0.03195   0.00000  Uiso   1.00
H203   H     0.73588   0.12652   0.46002   0.00000  Uiso   1.00
H204   H     0.86128   0.38916   0.18018   0.00000  Uiso   1.00
H205   H     0.71437   0.11924   0.01868   0.00000  Uiso   1.00
H206   H     0.96891   0.16458   0.49071   0.00000  Uiso   1.00
H207   H     0.97374   0.11770   0.45131   0.00000  Uiso   1.00
H208   H     0.99042   0.17206   0.43183   0.00000  Uiso   1.00
H209   H     0.72127   0.33661   0.49420   0.00000  Uiso   1.00
H210   H     0.73712   0.27989   0.49892   0.00000  Uiso   1.00
H211   H     0.69288   0.32955   0.40399   0.00000  Uiso   1.00
H212   H     0.70635   0.27116   0.40770   0.00000  Uiso   1.00
H213   H     0.97580   0.26128   0.46572   0.00000  Uiso   1.00
H214   H     0.94685   0.28538   0.40879   0.00000  Uiso   1.00
H215   H     0.99246   0.24996   0.19347   0.00000  Uiso   1.00
H216   H     0.96138   0.31982   0.46216   0.00000  Uiso   1.00
H217   H     0.67420   0.25027   0.30661   0.00000  Uiso   1.00
H218   H     0.86235   0.03049   0.32719   0.00000  Uiso   1.00
H219   H     0.86237   0.46958   0.18066   0.00000  Uiso   1.00
H220   H     0.80548   0.11072   0.17270   0.00000  Uiso   1.00
H221   H     0.80550   0.38921   0.31998   0.00000  Uiso   1.00
H222   H     0.80441   0.03029   0.17293   0.00000  Uiso   1.00
N223   N     0.83333   0.25001   0.12934   0.00000  Uiso   1.00
N224   N     0.83333   0.24999   0.37066   0.00000  Uiso   1.00
O225   O     0.83334   0.18573   0.29072   0.00000  Uiso   1.00
O226   O     0.78405   0.32022   0.46160   0.00000  Uiso   1.00
O227   O     0.83333   0.31428   0.20929   0.00000  Uiso   1.00
O228   O     0.83334   0.18573   0.20928   0.00000  Uiso   1.00
O229   O     0.83333   0.31427   0.29072   0.00000  Uiso   1.00
O230   O     0.75828   0.25000   0.28132   0.00000  Uiso   1.00
O231   O     0.90839   0.25001   0.21868   0.00000  Uiso   1.00
O232   O     0.75828   0.25000   0.19989   0.00000  Uiso   1.00
O233   O     0.90839   0.25000   0.30012   0.00000  Uiso   1.00
O234   O     0.79164   0.17714   0.02531   0.00000  Uiso   1.00
C235   C     0.16669   0.66492   0.24999   0.00000  Uiso   1.00
C236   C     0.14068   0.78434   0.44248   0.00000  Uiso   1.00
C237   C     0.16553   0.74984   0.02703   0.00000  Uiso   1.00
C238   C     0.16519   0.75038   0.47253   0.00000  Uiso   1.00
C239   C     0.06785   0.75003   0.23751   0.00000  Uiso   1.00
C240   C     0.26548   0.75005   0.26250   0.00000  Uiso   1.00
C241   C     0.01256   0.75005   0.23064   0.00000  Uiso   1.00
C242   C     0.32078   0.75015   0.26943   0.00000  Uiso   1.00
C243   C     0.18249   0.54766   0.29343   0.00000  Uiso   1.00
C244   C     0.18250   0.95238   0.21090   0.00000  Uiso   1.00
C245   C     0.18215   0.59356   0.29346   0.00000  Uiso   1.00
C246   C     0.16667   0.83508   0.25002   0.00000  Uiso   1.00
C247   C     0.18214   0.90648   0.21073   0.00000  Uiso   1.00
C248   C     0.16672   0.61670   0.25000   0.00000  Uiso   1.00
C249   C     0.16671   0.88330   0.25007   0.00000  Uiso   1.00
C250   C     0.15130   0.59345   0.20657   0.00000  Uiso   1.00
C251   C     0.15131   0.90651   0.28944   0.00000  Uiso   1.00
C252   C     0.15094   0.54755   0.20667   0.00000  Uiso   1.00
C253   C     0.15097   0.95242   0.28929   0.00000  Uiso   1.00
C254   C     0.16671   0.52428   0.25007   0.00000  Uiso   1.00
C255   C     0.16673   0.97572   0.25009   0.00000  Uiso   1.00
C256   C     0.07333   0.68551   0.00482   0.00000  Uiso   1.00
C257   C     0.18638   0.78542   0.05598   0.00000  Uiso   1.00
C258   C     0.04737   0.64211   0.48723   0.00000  Uiso   1.00
C259   C     0.32498   0.64972   0.46382   0.00000  Uiso   1.00
C260   C     0.06827   0.80845   0.47369   0.00000  Uiso   1.00
C261   C     0.02823   0.80019   0.42825   0.00000  Uiso   1.00
C262   C     0.30813   0.79114   0.44228   0.00000  Uiso   1.00
C263   C     0.18938   0.71627   0.44968   0.00000  Uiso   1.00
C264   C     0.18697   0.78473   0.10694   0.00000  Uiso   1.00
C265   C     0.18990   0.71675   0.39891   0.00000  Uiso   1.00
C266   C     0.14589   0.71511   0.10203   0.00000  Uiso   1.00
C267   C     0.14284   0.78351   0.39179   0.00000  Uiso   1.00
C268   C     0.14469   0.71410   0.05086   0.00000  Uiso   1.00
Cu269  Cu    0.16667   0.75000   0.29822   0.00000  Uiso   1.00
Cu270  Cu    0.16667   0.75001   0.20179   0.00000  Uiso   1.00
H271   H     0.19463   0.61092   0.32731   0.00000  Uiso   1.00
H272   H     0.13778   0.96965   0.31954   0.00000  Uiso   1.00
H273   H     0.20281   0.81342   0.03929   0.00000  Uiso   1.00
H274   H     0.20836   0.68956   0.47116   0.00000  Uiso   1.00
H275   H     0.20390   0.81220   0.12849   0.00000  Uiso   1.00
H276   H     0.20920   0.69043   0.38220   0.00000  Uiso   1.00
H277   H     0.12960   0.68772   0.11975   0.00000  Uiso   1.00
H278   H     0.12446   0.80972   0.36918   0.00000  Uiso   1.00
H279   H     0.07253   0.70762   0.47270   0.00000  Uiso   1.00
H280   H     0.05076   0.70070   0.03195   0.00000  Uiso   1.00
H281   H     0.06921   0.62652   0.46002   0.00000  Uiso   1.00
H282   H     0.19461   0.88916   0.18018   0.00000  Uiso   1.00
H283   H     0.04771   0.61924   0.01868   0.00000  Uiso   1.00
H284   H     0.30224   0.66458   0.49071   0.00000  Uiso   1.00
H285   H     0.30707   0.61770   0.45131   0.00000  Uiso   1.00
H286   H     0.32376   0.67206   0.43183   0.00000  Uiso   1.00
H287   H     0.05460   0.83661   0.49420   0.00000  Uiso   1.00
H288   H     0.07046   0.77989   0.49892   0.00000  Uiso   1.00
H289   H     0.02621   0.82955   0.40399   0.00000  Uiso   1.00
H290   H     0.03968   0.77116   0.40770   0.00000  Uiso   1.00
H291   H     0.30913   0.76128   0.46572   0.00000  Uiso   1.00
H292   H     0.28018   0.78538   0.40879   0.00000  Uiso   1.00
H293   H     0.32580   0.74996   0.19347   0.00000  Uiso   1.00
H294   H     0.29471   0.81982   0.46216   0.00000  Uiso   1.00
H295   H     0.00753   0.75027   0.30661   0.00000  Uiso   1.00
H296   H     0.19569   0.53049   0.32719   0.00000  Uiso   1.00
H297   H     0.19570   0.96958   0.18066   0.00000  Uiso   1.00
H298   H     0.13882   0.61072   0.17270   0.00000  Uiso   1.00
H299   H     0.13883   0.88921   0.31998   0.00000  Uiso   1.00
H300   H     0.13774   0.53029   0.17293   0.00000  Uiso   1.00
N301   N     0.16667   0.75001   0.12934   0.00000  Uiso   1.00
N302   N     0.16667   0.74999   0.37066   0.00000  Uiso   1.00
O303   O     0.16667   0.68573   0.29072   0.00000  Uiso   1.00
O304   O     0.11738   0.82022   0.46160   0.00000  Uiso   1.00
O305   O     0.16666   0.81428   0.20929   0.00000  Uiso   1.00
O306   O     0.16667   0.68573   0.20928   0.00000  Uiso   1.00
O307   O     0.16666   0.81427   0.29072   0.00000  Uiso   1.00
O308   O     0.09161   0.75000   0.28132   0.00000  Uiso   1.00
O309   O     0.24172   0.75001   0.21868   0.00000  Uiso   1.00
O310   O     0.09161   0.75000   0.19989   0.00000  Uiso   1.00
O311   O     0.24172   0.75000   0.30012   0.00000  Uiso   1.00
O312   O     0.12497   0.67714   0.02531   0.00000  Uiso   1.00
C313   C     0.50002   0.66492   0.24999   0.00000  Uiso   1.00
C314   C     0.47402   0.78434   0.44248   0.00000  Uiso   1.00
C315   C     0.49886   0.74984   0.02703   0.00000  Uiso   1.00
C316   C     0.49853   0.75038   0.47253   0.00000  Uiso   1.00
C317   C     0.40119   0.75003   0.23751   0.00000  Uiso   1.00
C318   C     0.59882   0.75005   0.26250   0.00000  Uiso   1.00
C319   C     0.34590   0.75005   0.23064   0.00000  Uiso   1.00
C320   C     0.65411   0.75015   0.26943   0.00000  Uiso   1.00
C321   C     0.51582   0.54766   0.29343   0.00000  Uiso   1.00
C322   C     0.51583   0.95238   0.21090   0.00000  Uiso   1.00
C323   C     0.51548   0.59356   0.29346   0.00000  Uiso   1.00
C324   C     0.50001   0.83508   0.25002   0.00000  Uiso   1.00
C325   C     0.51547   0.90648   0.21073   0.00000  Uiso   1.00
C326   C     0.50006   0.61670   0.25000   0.00000  Uiso   1.00
C327   C     0.50004   0.88330   0.25007   0.00000  Uiso   1.00
C328   C     0.48463   0.59345   0.20657   0.00000  Uiso   1.00
C329   C     0.48464   0.90651   0.28944   0.00000  Uiso   1.00
C330   C     0.48428   0.54755   0.20667   0.00000  Uiso   1.00
C331   C     0.48431   0.95242   0.28929   0.00000  Uiso   1.00
C332   C     0.50004   0.52428   0.25007   0.00000  Uiso   1.00
C333   C     0.50006   0.97572   0.25009   0.00000  Uiso   1.00
C334   C     0.40666   0.68551   0.00482   0.00000  Uiso   1.00
C335   C     0.51971   0.78542   0.05598   0.00000  Uiso   1.00
C336   C     0.38070   0.64211   0.48723   0.00000  Uiso   1.00
C337   C     0.65831   0.64972   0.46382   0.00000  Uiso   1.00
C338   C     0.40161   0.80845   0.47369   0.00000  Uiso   1.00
C339   C     0.36156   0.80019   0.42825   0.00000  Uiso   1.00
C340   C     0.64146   0.79114   0.44228   0.00000  Uiso   1.00
C341   C     0.52271   0.71627   0.44968   0.00000  Uiso   1.00
C342   C     0.52030   0.78473   0.10694   0.00000  Uiso   1.00
C343   C     0.52323   0.71675   0.39891   0.00000  Uiso   1.00
C344   C     0.47922   0.71511   0.10203   0.00000  Uiso   1.00
C345   C     0.47618   0.78351   0.39179   0.00000  Uiso   1.00
C346   C     0.47802   0.71410   0.05086   0.00000  Uiso   1.00
Cu347  Cu    0.50000   0.75000   0.29822   0.00000  Uiso   1.00
Cu348  Cu    0.50000   0.75001   0.20179   0.00000  Uiso   1.00
H349   H     0.52796   0.61092   0.32731   0.00000  Uiso   1.00
H350   H     0.47112   0.96965   0.31954   0.00000  Uiso   1.00
H351   H     0.53615   0.81342   0.03929   0.00000  Uiso   1.00
H352   H     0.54170   0.68956   0.47116   0.00000  Uiso   1.00
H353   H     0.53723   0.81220   0.12849   0.00000  Uiso   1.00
H354   H     0.54254   0.69043   0.38220   0.00000  Uiso   1.00
H355   H     0.46294   0.68772   0.11975   0.00000  Uiso   1.00
H356   H     0.45779   0.80972   0.36918   0.00000  Uiso   1.00
H357   H     0.40586   0.70762   0.47270   0.00000  Uiso   1.00
H358   H     0.38409   0.70070   0.03195   0.00000  Uiso   1.00
H359   H     0.40255   0.62652   0.46002   0.00000  Uiso   1.00
H360   H     0.52794   0.88916   0.18018   0.00000  Uiso   1.00
H361   H     0.38104   0.61924   0.01868   0.00000  Uiso   1.00
H362   H     0.63558   0.66458   0.49071   0.00000  Uiso   1.00
H363   H     0.64041   0.61770   0.45131   0.00000  Uiso   1.00
H364   H     0.65709   0.67206   0.43183   0.00000  Uiso   1.00
H365   H     0.38793   0.83661   0.49420   0.00000  Uiso   1.00
H366   H     0.40379   0.77989   0.49892   0.00000  Uiso   1.00
H367   H     0.35954   0.82955   0.40399   0.00000  Uiso   1.00
H368   H     0.37302   0.77116   0.40770   0.00000  Uiso   1.00
H369   H     0.64246   0.76128   0.46572   0.00000  Uiso   1.00
H370   H     0.61351   0.78538   0.40879   0.00000  Uiso   1.00
H371   H     0.65913   0.74996   0.19347   0.00000  Uiso   1.00
H372   H     0.62804   0.81982   0.46216   0.00000  Uiso   1.00
H373   H     0.34087   0.75027   0.30661   0.00000  Uiso   1.00
H374   H     0.52902   0.53049   0.32719   0.00000  Uiso   1.00
H375   H     0.52904   0.96958   0.18066   0.00000  Uiso   1.00
H376   H     0.47215   0.61072   0.17270   0.00000  Uiso   1.00
H377   H     0.47217   0.88921   0.31998   0.00000  Uiso   1.00
H378   H     0.47107   0.53029   0.17293   0.00000  Uiso   1.00
N379   N     0.50000   0.75001   0.12934   0.00000  Uiso   1.00
N380   N     0.50000   0.74999   0.37066   0.00000  Uiso   1.00
O381   O     0.50000   0.68573   0.29072   0.00000  Uiso   1.00
O382   O     0.45071   0.82022   0.46160   0.00000  Uiso   1.00
O383   O     0.50000   0.81428   0.20929   0.00000  Uiso   1.00
O384   O     0.50000   0.68573   0.20928   0.00000  Uiso   1.00
O385   O     0.50000   0.81427   0.29072   0.00000  Uiso   1.00
O386   O     0.42495   0.75000   0.28132   0.00000  Uiso   1.00
O387   O     0.57505   0.75001   0.21868   0.00000  Uiso   1.00
O388   O     0.42495   0.75000   0.19989   0.00000  Uiso   1.00
O389   O     0.57505   0.75000   0.30012   0.00000  Uiso   1.00
O390   O     0.45831   0.67714   0.02531   0.00000  Uiso   1.00
C391   C     0.83335   0.66492   0.24999   0.00000  Uiso   1.00
C392   C     0.80735   0.78434   0.44248   0.00000  Uiso   1.00
C393   C     0.83220   0.74984   0.02703   0.00000  Uiso   1.00
C394   C     0.83186   0.75038   0.47253   0.00000  Uiso   1.00
C395   C     0.73452   0.75003   0.23751   0.00000  Uiso   1.00
C396   C     0.93215   0.75005   0.26250   0.00000  Uiso   1.00
C397   C     0.67923   0.75005   0.23064   0.00000  Uiso   1.00
C398   C     0.98744   0.75015   0.26943   0.00000  Uiso   1.00
C399   C     0.84915   0.54766   0.29343   0.00000  Uiso   1.00
C400   C     0.84917   0.95238   0.21090   0.00000  Uiso   1.00
C401   C     0.84882   0.59356   0.29346   0.00000  Uiso   1.00
C402   C     0.83334   0.83508   0.25002   0.00000  Uiso   1.00
C403   C     0.84881   0.90648   0.21073   0.00000  Uiso   1.00
C404   C     0.83339   0.61670   0.25000   0.00000  Uiso   1.00
C405   C     0.83337   0.88330   0.25007   0.00000  Uiso   1.00
C406   C     0.81796   0.59345   0.20657   0.00000  Uiso   1.00
C407   C     0.81797   0.90651   0.28944   0.00000  Uiso   1.00
C408   C     0.81761   0.54755   0.20667   0.00000  Uiso   1.00
C409   C     0.81764   0.95242   0.28929   0.00000  Uiso   1.00
C410   C     0.83338   0.52428   0.25007   0.00000  Uiso   1.00
C411   C     0.83340   0.97572   0.25009   0.00000  Uiso   1.00
C412   C     0.74000   0.68551   0.00482   0.00000  Uiso   1.00
C413   C     0.85305   0.78542   0.05598   0.00000  Uiso   1.00
C414   C     0.71403   0.64211   0.48723   0.00000  Uiso   1.00
C415   C     0.99165   0.64972   0.46382   0.00000  Uiso   1.00
C416   C     0.73494   0.80845   0.47369   0.00000  Uiso   1.00
C417   C     0.69490   0.80019   0.42825   0.00000  Uiso   1.00
C418   C     0.97479   0.79114   0.44228   0.00000  Uiso   1.00
C419   C     0.85605   0.71627   0.44968   0.00000  Uiso   1.00
C420   C     0.85363   0.78473   0.10694   0.00000  Uiso   1.00
C421   C     0.85656   0.71675   0.39891   0.00000  Uiso   1.00
C422   C     0.81255   0.71511   0.10203   0.00000  Uiso   1.00
C423   C     0.80951   0.78351   0.39179   0.00000  Uiso   1.00
C424   C     0.81136   0.71410   0.05086   0.00000  Uiso   1.00
Cu425  Cu    0.83333   0.75000   0.29822   0.00000  Uiso   1.00
Cu426  Cu    0.83333   0.75001   0.20179   0.00000  Uiso   1.00
H427   H     0.86130   0.61092   0.32731   0.00000  Uiso   1.00
H428   H     0.80445   0.96965   0.31954   0.00000  Uiso   1.00
H429   H     0.86948   0.81342   0.03929   0.00000  Uiso   1.00
H430   H     0.87503   0.68956   0.47116   0.00000  Uiso   1.00
H431   H     0.87056   0.81220   0.12849   0.00000  Uiso   1.00
H432   H     0.87587   0.69043   0.38220   0.00000  Uiso   1.00
H433   H     0.79627   0.68772   0.11975   0.00000  Uiso   1.00
H434   H     0.79112   0.80972   0.36918   0.00000  Uiso   1.00
H435   H     0.73920   0.70762   0.47270   0.00000  Uiso   1.00
H436   H     0.71742   0.70070   0.03195   0.00000  Uiso   1.00
H437   H     0.73588   0.62652   0.46002   0.00000  Uiso   1.00
H438   H     0.86128   0.88916   0.18018   0.00000  Uiso   1.00
H439   H     0.71437   0.61924   0.01868   0.00000  Uiso   1.00
H440   H     0.96891   0.66458   0.49071   0.00000  Uiso   1.00
H441   H     0.97374   0.61770   0.45131   0.00000  Uiso   1.00
H442   H     0.99042   0.67206   0.43183   0.00000  Uiso   1.00
H443   H     0.72127   0.83661   0.49420   0.00000  Uiso   1.00
H444   H     0.73712   0.77989   0.49892   0.00000  Uiso   1.00
H445   H     0.69288   0.82955   0.40399   0.00000  Uiso   1.00
H446   H     0.70635   0.77116   0.40770   0.00000  Uiso   1.00
H447   H     0.97580   0.76128   0.46572   0.00000  Uiso   1.00
H448   H     0.94685   0.78538   0.40879   0.00000  Uiso   1.00
H449   H     0.99246   0.74996   0.19347   0.00000  Uiso   1.00
H450   H     0.96138   0.81982   0.46216   0.00000  Uiso   1.00
H451   H     0.67420   0.75027   0.30661   0.00000  Uiso   1.00
H452   H     0.86235   0.53049   0.32719   0.00000  Uiso   1.00
H453   H     0.86237   0.96958   0.18066   0.00000  Uiso   1.00
H454   H     0.80548   0.61072   0.17270   0.00000  Uiso   1.00
H455   H     0.80550   0.88921   0.31998   0.00000  Uiso   1.00
H456   H     0.80441   0.53029   0.17293   0.00000  Uiso   1.00
N457   N     0.83333   0.75001   0.12934   0.00000  Uiso   1.00
N458   N     0.83333   0.74999   0.37066   0.00000  Uiso   1.00
O459   O     0.83334   0.68573   0.29072   0.00000  Uiso   1.00
O460   O     0.78405   0.82022   0.46160   0.00000  Uiso   1.00
O461   O     0.83333   0.81428   0.20929   0.00000  Uiso   1.00
O462   O     0.83334   0.68573   0.20928   0.00000  Uiso   1.00
O463   O     0.83333   0.81427   0.29072   0.00000  Uiso   1.00
O464   O     0.75828   0.75000   0.28132   0.00000  Uiso   1.00
O465   O     0.90839   0.75001   0.21868   0.00000  Uiso   1.00
O466   O     0.75828   0.75000   0.19989   0.00000  Uiso   1.00
O467   O     0.90839   0.75000   0.30012   0.00000  Uiso   1.00
O468   O     0.79164   0.67714   0.02531   0.00000  Uiso   1.00
C469   C     0.16669   0.16492   0.74999   0.00000  Uiso   1.00
C470   C     0.14068   0.28434   0.94248   0.00000  Uiso   1.00
C471   C     0.16553   0.24984   0.52703   0.00000  Uiso   1.00
C472   C     0.16519   0.25038   0.97253   0.00000  Uiso   1.00
C473   C     0.06785   0.25003   0.73751   0.00000  Uiso   1.00
C474   C     0.26548   0.25005   0.76250   0.00000  Uiso   1.00
C475   C     0.01256   0.25005   0.73064   0.00000  Uiso   1.00
C476   C     0.32078   0.25015   0.76943   0.00000  Uiso   1.00
C477   C     0.18249   0.04766   0.79343   0.00000  Uiso   1.00
C478   C     0.18250   0.45238   0.71090   0.00000  Uiso   1.00
C479   C     0.18215   0.09356   0.79346   0.00000  Uiso   1.00
C480   C     0.16667   0.33508   0.75002   0.00000  Uiso   1.00
C481   C     0.18214   0.40648   0.71073   0.00000  Uiso   1.00
C482   C     0.16672   0.11670   0.75000   0.00000  Uiso   1.00
C483   C     0.16671   0.38330   0.75007   0.00000  Uiso   1.00
C484   C     0.15130   0.09345   0.70657   0.00000  Uiso   1.00
C485   C     0.15131   0.40651   0.78944   0.00000  Uiso   1.00
C486   C     0.15094   0.04755   0.70667   0.00000  Uiso   1.00
C487   C     0.15097   0.45242   0.78929   0.00000  Uiso   1.00
C488   C     0.16671   0.02428   0.75007   0.00000  Uiso   1.00
C489   C     0.16673   0.47572   0.75009   0.00000  Uiso   1.00
C490   C     0.07333   0.18551   0.50482   0.00000  Uiso   1.00
C491   C     0.18638   0.28542   0.55598   0.00000  Uiso   1.00
C492   C     0.04737   0.14211   0.98723   0.00000  Uiso   1.00
C493   C     0.32498   0.14972   0.96382   0.00000  Uiso   1.00
C494   C     0.06827   0.30845   0.97369   0.00000  Uiso   1.00
C495   C     0.02823   0.30019   0.92825   0.00000  Uiso   1.00
C496   C     0.30813   0.29114   0.94228   0.00000  Uiso   1.00
C497   C     0.18938   0.21627   0.94968   0.00000  Uiso   1.00
C498   C     0.18697   0.28473   0.60694   0.00000  Uiso   1.00
C499   C     0.18990   0.21675   0.89891   0.00000  Uiso   1.00
C500   C     0.14589   0.21511   0.60203   0.00000  Uiso   1.00
C501   C     0.14284   0.28351   0.89179   0.00000  Uiso   1.00
C502   C     0.14469   0.21410   0.55086   0.00000  Uiso   1.00
Cu503  Cu    0.16667   0.25000   0.79822   0.00000  Uiso   1.00
Cu504  Cu    0.16667   0.25001   0.70179   0.00000  Uiso   1.00
H505   H     0.19463   0.11092   0.82731   0.00000  Uiso   1.00
H506   H     0.13778   0.46965   0.81954   0.00000  Uiso   1.00
H507   H     0.20281   0.31342   0.53929   0.00000  Uiso   1.00
H508   H     0.20836   0.18956   0.97116   0.00000  Uiso   1.00
H509   H     0.20390   0.31220   0.62849   0.00000  Uiso   1.00
H510   H     0.20920   0.19043   0.88220   0.00000  Uiso   1.00
H511   H     0.12960   0.18772   0.61975   0.00000  Uiso   1.00
H512   H     0.12446   0.30972   0.86918   0.00000  Uiso   1.00
H513   H     0.07253   0.20762   0.97270   0.00000  Uiso   1.00
H514   H     0.05076   0.20070   0.53195   0.00000  Uiso   1.00
H515   H     0.06921   0.12652   0.96002   0.00000  Uiso   1.00
H516   H     0.19461   0.38916   0.68018   0.00000  Uiso   1.00
H517   H     0.04771   0.11924   0.51868   0.00000  Uiso   1.00
H518   H     0.30224   0.16458   0.99071   0.00000  Uiso   1.00
H519   H     0.30707   0.11770   0.95131   0.00000  Uiso   1.00
H520   H     0.32376   0.17206   0.93183   0.00000  Uiso   1.00
H521   H     0.05460   0.33661   0.99420   0.00000  Uiso   1.00
H522   H     0.07046   0.27989   0.99892   0.00000  Uiso   1.00
H523   H     0.02621   0.32955   0.90399   0.00000  Uiso   1.00
H524   H     0.03968   0.27116   0.90770   0.00000  Uiso   1.00
H525   H     0.30913   0.26128   0.96572   0.00000  Uiso   1.00
H526   H     0.28018   0.28538   0.90879   0.00000  Uiso   1.00
H527   H     0.32580   0.24996   0.69347   0.00000  Uiso   1.00
H528   H     0.29471   0.31982   0.96216   0.00000  Uiso   1.00
H529   H     0.00753   0.25027   0.80661   0.00000  Uiso   1.00
H530   H     0.19569   0.03049   0.82719   0.00000  Uiso   1.00
H531   H     0.19570   0.46958   0.68066   0.00000  Uiso   1.00
H532   H     0.13882   0.11072   0.67270   0.00000  Uiso   1.00
H533   H     0.13883   0.38921   0.81998   0.00000  Uiso   1.00
H534   H     0.13774   0.03029   0.67293   0.00000  Uiso   1.00
N535   N     0.16667   0.25001   0.62934   0.00000  Uiso   1.00
N536   N     0.16667   0.24999   0.87066   0.00000  Uiso   1.00
O537   O     0.16667   0.18573   0.79072   0.00000  Uiso   1.00
O538   O     0.11738   0.32022   0.96160   0.00000  Uiso   1.00
O539   O     0.16666   0.31428   0.70929   0.00000  Uiso   1.00
O540   O     0.16667   0.18573   0.70928   0.00000  Uiso   1.00
O541   O     0.16666   0.31427   0.79072   0.00000  Uiso   1.00
O542   O     0.09161   0.25000   0.78132   0.00000  Uiso   1.00
O543   O     0.24172   0.25001   0.71868   0.00000  Uiso   1.00
O544   O     0.09161   0.25000   0.69989   0.00000  Uiso   1.00
O545   O     0.24172   0.25000   0.80012   0.00000  Uiso   1.00
O546   O     0.12497   0.17714   0.52531   0.00000  Uiso   1.00
C547   C     0.50002   0.16492   0.74999   0.00000  Uiso   1.00
C548   C     0.47402   0.28434   0.94248   0.00000  Uiso   1.00
C549   C     0.49886   0.24984   0.52703   0.00000  Uiso   1.00
C550   C     0.49853   0.25038   0.97253   0.00000  Uiso   1.00
C551   C     0.40119   0.25003   0.73751   0.00000  Uiso   1.00
C552   C     0.59882   0.25005   0.76250   0.00000  Uiso   1.00
C553   C     0.34590   0.25005   0.73064   0.00000  Uiso   1.00
C554   C     0.65411   0.25015   0.76943   0.00000  Uiso   1.00
C555   C     0.51582   0.04766   0.79343   0.00000  Uiso   1.00
C556   C     0.51583   0.45238   0.71090   0.00000  Uiso   1.00
C557   C     0.51548   0.09356   0.79346   0.00000  Uiso   1.00
C558   C     0.50001   0.33508   0.75002   0.00000  Uiso   1.00
C559   C     0.51547   0.40648   0.71073   0.00000  Uiso   1.00
C560   C     0.50006   0.11670   0.75000   0.00000  Uiso   1.00
C561   C     0.50004   0.38330   0.75007   0.00000  Uiso   1.00
C562   C     0.48463   0.09345   0.70657   0.00000  Uiso   1.00
C563   C     0.48464   0.40651   0.78944   0.00000  Uiso   1.00
C564   C     0.48428   0.04755   0.70667   0.00000  Uiso   1.00
C565   C     0.48431   0.45242   0.78929   0.00000  Uiso   1.00
C566   C     0.50004   0.02428   0.75007   0.00000  Uiso   1.00
C567   C     0.50006   0.47572   0.75009   0.00000  Uiso   1.00
C568   C     0.40666   0.18551   0.50482   0.00000  Uiso   1.00
C569   C     0.51971   0.28542   0.55598   0.00000  Uiso   1.00
C570   C     0.38070   0.14211   0.98723   0.00000  Uiso   1.00
C571   C     0.65831   0.14972   0.96382   0.00000  Uiso   1.00
C572   C     0.40161   0.30845   0.97369   0.00000  Uiso   1.00
C573   C     0.36156   0.30019   0.92825   0.00000  Uiso   1.00
C574   C     0.64146   0.29114   0.94228   0.00000  Uiso   1.00
C575   C     0.52271   0.21627   0.94968   0.00000  Uiso   1.00
C576   C     0.52030   0.28473   0.60694   0.00000  Uiso   1.00
C577   C     0.52323   0.21675   0.89891   0.00000  Uiso   1.00
C578   C     0.47922   0.21511   0.60203   0.00000  Uiso   1.00
C579   C     0.47618   0.28351   0.89179   0.00000  Uiso   1.00
C580   C     0.47802   0.21410   0.55086   0.00000  Uiso   1.00
Cu581  Cu    0.50000   0.25000   0.79822   0.00000  Uiso   1.00
Cu582  Cu    0.50000   0.25001   0.70179   0.00000  Uiso   1.00
H583   H     0.52796   0.11092   0.82731   0.00000  Uiso   1.00
H584   H     0.47112   0.46965   0.81954   0.00000  Uiso   1.00
H585   H     0.53615   0.31342   0.53929   0.00000  Uiso   1.00
H586   H     0.54170   0.18956   0.97116   0.00000  Uiso   1.00
H587   H     0.53723   0.31220   0.62849   0.00000  Uiso   1.00
H588   H     0.54254   0.19043   0.88220   0.00000  Uiso   1.00
H589   H     0.46294   0.18772   0.61975   0.00000  Uiso   1.00
H590   H     0.45779   0.30972   0.86918   0.00000  Uiso   1.00
H591   H     0.40586   0.20762   0.97270   0.00000  Uiso   1.00
H592   H     0.38409   0.20070   0.53195   0.00000  Uiso   1.00
H593   H     0.40255   0.12652   0.96002   0.00000  Uiso   1.00
H594   H     0.52794   0.38916   0.68018   0.00000  Uiso   1.00
H595   H     0.38104   0.11924   0.51868   0.00000  Uiso   1.00
H596   H     0.63558   0.16458   0.99071   0.00000  Uiso   1.00
H597   H     0.64041   0.11770   0.95131   0.00000  Uiso   1.00
H598   H     0.65709   0.17206   0.93183   0.00000  Uiso   1.00
H599   H     0.38793   0.33661   0.99420   0.00000  Uiso   1.00
H600   H     0.40379   0.27989   0.99892   0.00000  Uiso   1.00
H601   H     0.35954   0.32955   0.90399   0.00000  Uiso   1.00
H602   H     0.37302   0.27116   0.90770   0.00000  Uiso   1.00
H603   H     0.64246   0.26128   0.96572   0.00000  Uiso   1.00
H604   H     0.61351   0.28538   0.90879   0.00000  Uiso   1.00
H605   H     0.65913   0.24996   0.69347   0.00000  Uiso   1.00
H606   H     0.62804   0.31982   0.96216   0.00000  Uiso   1.00
H607   H     0.34087   0.25027   0.80661   0.00000  Uiso   1.00
H608   H     0.52902   0.03049   0.82719   0.00000  Uiso   1.00
H609   H     0.52904   0.46958   0.68066   0.00000  Uiso   1.00
H610   H     0.47215   0.11072   0.67270   0.00000  Uiso   1.00
H611   H     0.47217   0.38921   0.81998   0.00000  Uiso   1.00
H612   H     0.47107   0.03029   0.67293   0.00000  Uiso   1.00
N613   N     0.50000   0.25001   0.62934   0.00000  Uiso   1.00
N614   N     0.50000   0.24999   0.87066   0.00000  Uiso   1.00
O615   O     0.50000   0.18573   0.79072   0.00000  Uiso   1.00
O616   O     0.45071   0.32022   0.96160   0.00000  Uiso   1.00
O617   O     0.50000   0.31428   0.70929   0.00000  Uiso   1.00
O618   O     0.50000   0.18573   0.70928   0.00000  Uiso   1.00
O619   O     0.50000   0.31427   0.79072   0.00000  Uiso   1.00
O620   O     0.42495   0.25000   0.78132   0.00000  Uiso   1.00
O621   O     0.57505   0.25001   0.71868   0.00000  Uiso   1.00
O622   O     0.42495   0.25000   0.69989   0.00000  Uiso   1.00
O623   O     0.57505   0.25000   0.80012   0.00000  Uiso   1.00
O624   O     0.45831   0.17714   0.52531   0.00000  Uiso   1.00
C625   C     0.83335   0.16492   0.74999   0.00000  Uiso   1.00
C626   C     0.80735   0.28434   0.94248   0.00000  Uiso   1.00
C627   C     0.83220   0.24984   0.52703   0.00000  Uiso   1.00
C628   C     0.83186   0.25038   0.97253   0.00000  Uiso   1.00
C629   C     0.73452   0.25003   0.73751   0.00000  Uiso   1.00
C630   C     0.93215   0.25005   0.76250   0.00000  Uiso   1.00
C631   C     0.67923   0.25005   0.73064   0.00000  Uiso   1.00
C632   C     0.98744   0.25015   0.76943   0.00000  Uiso   1.00
C633   C     0.84915   0.04766   0.79343   0.00000  Uiso   1.00
C634   C     0.84917   0.45238   0.71090   0.00000  Uiso   1.00
C635   C     0.84882   0.09356   0.79346   0.00000  Uiso   1.00
C636   C     0.83334   0.33508   0.75002   0.00000  Uiso   1.00
C637   C     0.84881   0.40648   0.71073   0.00000  Uiso   1.00
C638   C     0.83339   0.11670   0.75000   0.00000  Uiso   1.00
C639   C     0.83337   0.38330   0.75007   0.00000  Uiso   1.00
C640   C     0.81796   0.09345   0.70657   0.00000  Uiso   1.00
C641   C     0.81797   0.40651   0.78944   0.00000  Uiso   1.00
C642   C     0.81761   0.04755   0.70667   0.00000  Uiso   1.00
C643   C     0.81764   0.45242   0.78929   0.00000  Uiso   1.00
C644   C     0.83338   0.02428   0.75007   0.00000  Uiso   1.00
C645   C     0.83340   0.47572   0.75009   0.00000  Uiso   1.00
C646   C     0.74000   0.18551   0.50482   0.00000  Uiso   1.00
C647   C     0.85305   0.28542   0.55598   0.00000  Uiso   1.00
C648   C     0.71403   0.14211   0.98723   0.00000  Uiso   1.00
C649   C     0.99165   0.14972   0.96382   0.00000  Uiso   1.00
C650   C     0.73494   0.30845   0.97369   0.00000  Uiso   1.00
C651   C     0.69490   0.30019   0.92825   0.00000  Uiso   1.00
C652   C     0.97479   0.29114   0.94228   0.00000  Uiso   1.00
C653   C     0.85605   0.21627   0.94968   0.00000  Uiso   1.00
C654   C     0.85363   0.28473   0.60694   0.00000  Uiso   1.00
C655   C     0.85656   0.21675   0.89891   0.00000  Uiso   1.00
C656   C     0.81255   0.21511   0.60203   0.00000  Uiso   1.00
C657   C     0.80951   0.28351   0.89179   0.00000  Uiso   1.00
C658   C     0.81136   0.21410   0.55086   0.00000  Uiso   1.00
Cu659  Cu    0.83333   0.25000   0.79822   0.00000  Uiso   1.00
Cu660  Cu    0.83333   0.25001   0.70179   0.00000  Uiso   1.00
H661   H     0.86130   0.11092   0.82731   0.00000  Uiso   1.00
H662   H     0.80445   0.46965   0.81954   0.00000  Uiso   1.00
H663   H     0.86948   0.31342   0.53929   0.00000  Uiso   1.00
H664   H     0.87503   0.18956   0.97116   0.00000  Uiso   1.00
H665   H     0.87056   0.31220   0.62849   0.00000  Uiso   1.00
H666   H     0.87587   0.19043   0.88220   0.00000  Uiso   1.00
H667   H     0.79627   0.18772   0.61975   0.00000  Uiso   1.00
H668   H     0.79112   0.30972   0.86918   0.00000  Uiso   1.00
H669   H     0.73920   0.20762   0.97270   0.00000  Uiso   1.00
H670   H     0.71742   0.20070   0.53195   0.00000  Uiso   1.00
H671   H     0.73588   0.12652   0.96002   0.00000  Uiso   1.00
H672   H     0.86128   0.38916   0.68018   0.00000  Uiso   1.00
H673   H     0.71437   0.11924   0.51868   0.00000  Uiso   1.00
H674   H     0.96891   0.16458   0.99071   0.00000  Uiso   1.00
H675   H     0.97374   0.11770   0.95131   0.00000  Uiso   1.00
H676   H     0.99042   0.17206   0.93183   0.00000  Uiso   1.00
H677   H     0.72127   0.33661   0.99420   0.00000  Uiso   1.00
H678   H     0.73712   0.27989   0.99892   0.00000  Uiso   1.00
H679   H     0.69288   0.32955   0.90399   0.00000  Uiso   1.00
H680   H     0.70635   0.27116   0.90770   0.00000  Uiso   1.00
H681   H     0.97580   0.26128   0.96572   0.00000  Uiso   1.00
H682   H     0.94685   0.28538   0.90879   0.00000  Uiso   1.00
H683   H     0.99246   0.24996   0.69347   0.00000  Uiso   1.00
H684   H     0.96138   0.31982   0.96216   0.00000  Uiso   1.00
H685   H     0.67420   0.25027   0.80661   0.00000  Uiso   1.00
H686   H     0.86235   0.03049   0.82719   0.00000  Uiso   1.00
H687   H     0.86237   0.46958   0.68066   0.00000  Uiso   1.00
H688   H     0.80548   0.11072   0.67270   0.00000  Uiso   1.00
H689   H     0.80550   0.38921   0.81998   0.00000  Uiso   1.00
H690   H     0.80441   0.03029   0.67293   0.00000  Uiso   1.00
N691   N     0.83333   0.25001   0.62934   0.00000  Uiso   1.00
N692   N     0.83333   0.24999   0.87066   0.00000  Uiso   1.00
O693   O     0.83334   0.18573   0.79072   0.00000  Uiso   1.00
O694   O     0.78405   0.32022   0.96160   0.00000  Uiso   1.00
O695   O     0.83333   0.31428   0.70929   0.00000  Uiso   1.00
O696   O     0.83334   0.18573   0.70928   0.00000  Uiso   1.00
O697   O     0.83333   0.31427   0.79072   0.00000  Uiso   1.00
O698   O     0.75828   0.25000   0.78132   0.00000  Uiso   1.00
O699   O     0.90839   0.25001   0.71868   0.00000  Uiso   1.00
O700   O     0.75828   0.25000   0.69989   0.00000  Uiso   1.00
O701   O     0.90839   0.25000   0.80012   0.00000  Uiso   1.00
O702   O     0.79164   0.17714   0.52531   0.00000  Uiso   1.00
C703   C     0.16669   0.66492   0.74999   0.00000  Uiso   1.00
C704   C     0.14068   0.78434   0.94248   0.00000  Uiso   1.00
C705   C     0.16553   0.74984   0.52703   0.00000  Uiso   1.00
C706   C     0.16519   0.75038   0.97253   0.00000  Uiso   1.00
C707   C     0.06785   0.75003   0.73751   0.00000  Uiso   1.00
C708   C     0.26548   0.75005   0.76250   0.00000  Uiso   1.00
C709   C     0.01256   0.75005   0.73064   0.00000  Uiso   1.00
C710   C     0.32078   0.75015   0.76943   0.00000  Uiso   1.00
C711   C     0.18249   0.54766   0.79343   0.00000  Uiso   1.00
C712   C     0.18250   0.95238   0.71090   0.00000  Uiso   1.00
C713   C     0.18215   0.59356   0.79346   0.00000  Uiso   1.00
C714   C     0.16667   0.83508   0.75002   0.00000  Uiso   1.00
C715   C     0.18214   0.90648   0.71073   0.00000  Uiso   1.00
C716   C     0.16672   0.61670   0.75000   0.00000  Uiso   1.00
C717   C     0.16671   0.88330   0.75007   0.00000  Uiso   1.00
C718   C     0.15130   0.59345   0.70657   0.00000  Uiso   1.00
C719   C     0.15131   0.90651   0.78944   0.00000  Uiso   1.00
C720   C     0.15094   0.54755   0.70667   0.00000  Uiso   1.00
C721   C     0.15097   0.95242   0.78929   0.00000  Uiso   1.00
C722   C     0.16671   0.52428   0.75007   0.00000  Uiso   1.00
C723   C     0.16673   0.97572   0.75009   0.00000  Uiso   1.00
C724   C     0.07333   0.68551   0.50482   0.00000  Uiso   1.00
C725   C     0.18638   0.78542   0.55598   0.00000  Uiso   1.00
C726   C     0.04737   0.64211   0.98723   0.00000  Uiso   1.00
C727   C     0.32498   0.64972   0.96382   0.00000  Uiso   1.00
C728   C     0.06827   0.80845   0.97369   0.00000  Uiso   1.00
C729   C     0.02823   0.80019   0.92825   0.00000  Uiso   1.00
C730   C     0.30813   0.79114   0.94228   0.00000  Uiso   1.00
C731   C     0.18938   0.71627   0.94968   0.00000  Uiso   1.00
C732   C     0.18697   0.78473   0.60694   0.00000  Uiso   1.00
C733   C     0.18990   0.71675   0.89891   0.00000  Uiso   1.00
C734   C     0.14589   0.71511   0.60203   0.00000  Uiso   1.00
C735   C     0.14284   0.78351   0.89179   0.00000  Uiso   1.00
C736   C     0.14469   0.71410   0.55086   0.00000  Uiso   1.00
Cu737  Cu    0.16667   0.75000   0.79822   0.00000  Uiso   1.00
Cu738  Cu    0.16667   0.75001   0.70179   0.00000  Uiso   1.00
H739   H     0.19463   0.61092   0.82731   0.00000  Uiso   1.00
H740   H     0.13778   0.96965   0.81954   0.00000  Uiso   1.00
H741   H     0.20281   0.81342   0.53929   0.00000  Uiso   1.00
H742   H     0.20836   0.68956   0.97116   0.00000  Uiso   1.00
H743   H     0.20390   0.81220   0.62849   0.00000  Uiso   1.00
H744   H     0.20920   0.69043   0.88220   0.00000  Uiso   1.00
H745   H     0.12960   0.68772   0.61975   0.00000  Uiso   1.00
H746   H     0.12446   0.80972   0.86918   0.00000  Uiso   1.00
H747   H     0.07253   0.70762   0.97270   0.00000  Uiso   1.00
H748   H     0.05076   0.70070   0.53195   0.00000  Uiso   1.00
H749   H     0.06921   0.62652   0.96002   0.00000  Uiso   1.00
H750   H     0.19461   0.88916   0.68018   0.00000  Uiso   1.00
H751   H     0.04771   0.61924   0.51868   0.00000  Uiso   1.00
H752   H     0.30224   0.66458   0.99071   0.00000  Uiso   1.00
H753   H     0.30707   0.61770   0.95131   0.00000  Uiso   1.00
H754   H     0.32376   0.67206   0.93183   0.00000  Uiso   1.00
H755   H     0.05460   0.83661   0.99420   0.00000  Uiso   1.00
H756   H     0.07046   0.77989   0.99892   0.00000  Uiso   1.00
H757   H     0.02621   0.82955   0.90399   0.00000  Uiso   1.00
H758   H     0.03968   0.77116   0.90770   0.00000  Uiso   1.00
H759   H     0.30913   0.76128   0.96572   0.00000  Uiso   1.00
H760   H     0.28018   0.78538   0.90879   0.00000  Uiso   1.00
H761   H     0.32580   0.74996   0.69347   0.00000  Uiso   1.00
H762   H     0.29471   0.81982   0.96216   0.00000  Uiso   1.00
H763   H     0.00753   0.75027   0.80661   0.00000  Uiso   1.00
H764   H     0.19569   0.53049   0.82719   0.00000  Uiso   1.00
H765   H     0.19570   0.96958   0.68066   0.00000  Uiso   1.00
H766   H     0.13882   0.61072   0.67270   0.00000  Uiso   1.00
H767   H     0.13883   0.88921   0.81998   0.00000  Uiso   1.00
H768   H     0.13774   0.53029   0.67293   0.00000  Uiso   1.00
N769   N     0.16667   0.75001   0.62934   0.00000  Uiso   1.00
N770   N     0.16667   0.74999   0.87066   0.00000  Uiso   1.00
O771   O     0.16667   0.68573   0.79072   0.00000  Uiso   1.00
O772   O     0.11738   0.82022   0.96160   0.00000  Uiso   1.00
O773   O     0.16666   0.81428   0.70929   0.00000  Uiso   1.00
O774   O     0.16667   0.68573   0.70928   0.00000  Uiso   1.00
O775   O     0.16666   0.81427   0.79072   0.00000  Uiso   1.00
O776   O     0.09161   0.75000   0.78132   0.00000  Uiso   1.00
O777   O     0.24172   0.75001   0.71868   0.00000  Uiso   1.00
O778   O     0.09161   0.75000   0.69989   0.00000  Uiso   1.00
O779   O     0.24172   0.75000   0.80012   0.00000  Uiso   1.00
O780   O     0.12497   0.67714   0.52531   0.00000  Uiso   1.00
C781   C     0.50002   0.66492   0.74999   0.00000  Uiso   1.00
C782   C     0.47402   0.78434   0.94248   0.00000  Uiso   1.00
C783   C     0.49886   0.74984   0.52703   0.00000  Uiso   1.00
C784   C     0.49853   0.75038   0.97253   0.00000  Uiso   1.00
C785   C     0.40119   0.75003   0.73751   0.00000  Uiso   1.00
C786   C     0.59882   0.75005   0.76250   0.00000  Uiso   1.00
C787   C     0.34590   0.75005   0.73064   0.00000  Uiso   1.00
C788   C     0.65411   0.75015   0.76943   0.00000  Uiso   1.00
C789   C     0.51582   0.54766   0.79343   0.00000  Uiso   1.00
C790   C     0.51583   0.95238   0.71090   0.00000  Uiso   1.00
C791   C     0.51548   0.59356   0.79346   0.00000  Uiso   1.00
C792   C     0.50001   0.83508   0.75002   0.00000  Uiso   1.00
C793   C     0.51547   0.90648   0.71073   0.00000  Uiso   1.00
C794   C     0.50006   0.61670   0.75000   0.00000  Uiso   1.00
C795   C     0.50004   0.88330   0.75007   0.00000  Uiso   1.00
C796   C     0.48463   0.59345   0.70657   0.00000  Uiso   1.00
C797   C     0.48464   0.90651   0.78944   0.00000  Uiso   1.00
C798   C     0.48428   0.54755   0.70667   0.00000  Uiso   1.00
C799   C     0.48431   0.95242   0.78929   0.00000  Uiso   1.00
C800   C     0.50004   0.52428   0.75007   0.00000  Uiso   1.00
C801   C     0.50006   0.97572   0.75009   0.00000  Uiso   1.00
C802   C     0.40666   0.68551   0.50482   0.00000  Uiso   1.00
C803   C     0.51971   0.78542   0.55598   0.00000  Uiso   1.00
C804   C     0.38070   0.64211   0.98723   0.00000  Uiso   1.00
C805   C     0.65831   0.64972   0.96382   0.00000  Uiso   1.00
C806   C     0.40161   0.80845   0.97369   0.00000  Uiso   1.00
C807   C     0.36156   0.80019   0.92825   0.00000  Uiso   1.00
C808   C     0.64146   0.79114   0.94228   0.00000  Uiso   1.00
C809   C     0.52271   0.71627   0.94968   0.00000  Uiso   1.00
C810   C     0.52030   0.78473   0.60694   0.00000  Uiso   1.00
C811   C     0.52323   0.71675   0.89891   0.00000  Uiso   1.00
C812   C     0.47922   0.71511   0.60203   0.00000  Uiso   1.00
C813   C     0.47618   0.78351   0.89179   0.00000  Uiso   1.00
C814   C     0.47802   0.71410   0.55086   0.00000  Uiso   1.00
Cu815  Cu    0.50000   0.75000   0.79822   0.00000  Uiso   1.00
Cu816  Cu    0.50000   0.75001   0.70179   0.00000  Uiso   1.00
H817   H     0.52796   0.61092   0.82731   0.00000  Uiso   1.00
H818   H     0.47112   0.96965   0.81954   0.00000  Uiso   1.00
H819   H     0.53615   0.81342   0.53929   0.00000  Uiso   1.00
H820   H     0.54170   0.68956   0.97116   0.00000  Uiso   1.00
H821   H     0.53723   0.81220   0.62849   0.00000  Uiso   1.00
H822   H     0.54254   0.69043   0.88220   0.00000  Uiso   1.00
H823   H     0.46294   0.68772   0.61975   0.00000  Uiso   1.00
H824   H     0.45779   0.80972   0.86918   0.00000  Uiso   1.00
H825   H     0.40586   0.70762   0.97270   0.00000  Uiso   1.00
H826   H     0.38409   0.70070   0.53195   0.00000  Uiso   1.00
H827   H     0.40255   0.62652   0.96002   0.00000  Uiso   1.00
H828   H     0.52794   0.88916   0.68018   0.00000  Uiso   1.00
H829   H     0.38104   0.61924   0.51868   0.00000  Uiso   1.00
H830   H     0.63558   0.66458   0.99071   0.00000  Uiso   1.00
H831   H     0.64041   0.61770   0.95131   0.00000  Uiso   1.00
H832   H     0.65709   0.67206   0.93183   0.00000  Uiso   1.00
H833   H     0.38793   0.83661   0.99420   0.00000  Uiso   1.00
H834   H     0.40379   0.77989   0.99892   0.00000  Uiso   1.00
H835   H     0.35954   0.82955   0.90399   0.00000  Uiso   1.00
H836   H     0.37302   0.77116   0.90770   0.00000  Uiso   1.00
H837   H     0.64246   0.76128   0.96572   0.00000  Uiso   1.00
H838   H     0.61351   0.78538   0.90879   0.00000  Uiso   1.00
H839   H     0.65913   0.74996   0.69347   0.00000  Uiso   1.00
H840   H     0.62804   0.81982   0.96216   0.00000  Uiso   1.00
H841   H     0.34087   0.75027   0.80661   0.00000  Uiso   1.00
H842   H     0.52902   0.53049   0.82719   0.00000  Uiso   1.00
H843   H     0.52904   0.96958   0.68066   0.00000  Uiso   1.00
H844   H     0.47215   0.61072   0.67270   0.00000  Uiso   1.00
H845   H     0.47217   0.88921   0.81998   0.00000  Uiso   1.00
H846   H     0.47107   0.53029   0.67293   0.00000  Uiso   1.00
N847   N     0.50000   0.75001   0.62934   0.00000  Uiso   1.00
N848   N     0.50000   0.74999   0.87066   0.00000  Uiso   1.00
O849   O     0.50000   0.68573   0.79072   0.00000  Uiso   1.00
O850   O     0.45071   0.82022   0.96160   0.00000  Uiso   1.00
O851   O     0.50000   0.81428   0.70929   0.00000  Uiso   1.00
O852   O     0.50000   0.68573   0.70928   0.00000  Uiso   1.00
O853   O     0.50000   0.81427   0.79072   0.00000  Uiso   1.00
O854   O     0.42495   0.75000   0.78132   0.00000  Uiso   1.00
O855   O     0.57505   0.75001   0.71868   0.00000  Uiso   1.00
O856   O     0.42495   0.75000   0.69989   0.00000  Uiso   1.00
O857   O     0.57505   0.75000   0.80012   0.00000  Uiso   1.00
O858   O     0.45831   0.67714   0.52531   0.00000  Uiso   1.00
C859   C     0.83335   0.66492   0.74999   0.00000  Uiso   1.00
C860   C     0.80735   0.78434   0.94248   0.00000  Uiso   1.00
C861   C     0.83220   0.74984   0.52703   0.00000  Uiso   1.00
C862   C     0.83186   0.75038   0.97253   0.00000  Uiso   1.00
C863   C     0.73452   0.75003   0.73751   0.00000  Uiso   1.00
C864   C     0.93215   0.75005   0.76250   0.00000  Uiso   1.00
C865   C     0.67923   0.75005   0.73064   0.00000  Uiso   1.00
C866   C     0.98744   0.75015   0.76943   0.00000  Uiso   1.00
C867   C     0.84915   0.54766   0.79343   0.00000  Uiso   1.00
C868   C     0.84917   0.95238   0.71090   0.00000  Uiso   1.00
C869   C     0.84882   0.59356   0.79346   0.00000  Uiso   1.00
C870   C     0.83334   0.83508   0.75002   0.00000  Uiso   1.00
C871   C     0.84881   0.90648   0.71073   0.00000  Uiso   1.00
C872   C     0.83339   0.61670   0.75000   0.00000  Uiso   1.00
C873   C     0.83337   0.88330   0.75007   0.00000  Uiso   1.00
C874   C     0.81796   0.59345   0.70657   0.00000  Uiso   1.00
C875   C     0.81797   0.90651   0.78944   0.00000  Uiso   1.00
C876   C     0.81761   0.54755   0.70667   0.00000  Uiso   1.00
C877   C     0.81764   0.95242   0.78929   0.00000  Uiso   1.00
C878   C     0.83338   0.52428   0.75007   0.00000  Uiso   1.00
C879   C     0.83340   0.97572   0.75009   0.00000  Uiso   1.00
C880   C     0.74000   0.68551   0.50482   0.00000  Uiso   1.00
C881   C     0.85305   0.78542   0.55598   0.00000  Uiso   1.00
C882   C     0.71403   0.64211   0.98723   0.00000  Uiso   1.00
C883   C     0.99165   0.64972   0.96382   0.00000  Uiso   1.00
C884   C     0.73494   0.80845   0.97369   0.00000  Uiso   1.00
C885   C     0.69490   0.80019   0.92825   0.00000  Uiso   1.00
C886   C     0.97479   0.79114   0.94228   0.00000  Uiso   1.00
C887   C     0.85605   0.71627   0.94968   0.00000  Uiso   1.00
C888   C     0.85363   0.78473   0.60694   0.00000  Uiso   1.00
C889   C     0.85656   0.71675   0.89891   0.00000  Uiso   1.00
C890   C     0.81255   0.71511   0.60203   0.00000  Uiso   1.00
C891   C     0.80951   0.78351   0.89179   0.00000  Uiso   1.00
C892   C     0.81136   0.71410   0.55086   0.00000  Uiso   1.00
Cu893  Cu    0.83333   0.75000   0.79822   0.00000  Uiso   1.00
Cu894  Cu    0.83333   0.75001   0.70179   0.00000  Uiso   1.00
H895   H     0.86130   0.61092   0.82731   0.00000  Uiso   1.00
H896   H     0.80445   0.96965   0.81954   0.00000  Uiso   1.00
H897   H     0.86948   0.81342   0.53929   0.00000  Uiso   1.00
H898   H     0.87503   0.68956   0.97116   0.00000  Uiso   1.00
H899   H     0.87056   0.81220   0.62849   0.00000  Uiso   1.00
H900   H     0.87587   0.69043   0.88220   0.00000  Uiso   1.00
H901   H     0.79627   0.68772   0.61975   0.00000  Uiso   1.00
H902   H     0.79112   0.80972   0.86918   0.00000  Uiso   1.00
H903   H     0.73920   0.70762   0.97270   0.00000  Uiso   1.00
H904   H     0.71742   0.70070   0.53195   0.00000  Uiso   1.00
H905   H     0.73588   0.62652   0.96002   0.00000  Uiso   1.00
H906   H     0.86128   0.88916   0.68018   0.00000  Uiso   1.00
H907   H     0.71437   0.61924   0.51868   0.00000  Uiso   1.00
H908   H     0.96891   0.66458   0.99071   0.00000  Uiso   1.00
H909   H     0.97374   0.61770   0.95131   0.00000  Uiso   1.00
H910   H     0.99042   0.67206   0.93183   0.00000  Uiso   1.00
H911   H     0.72127   0.83661   0.99420   0.00000  Uiso   1.00
H912   H     0.73712   0.77989   0.99892   0.00000  Uiso   1.00
H913   H     0.69288   0.82955   0.90399   0.00000  Uiso   1.00
H914   H     0.70635   0.77116   0.90770   0.00000  Uiso   1.00
H915   H     0.97580   0.76128   0.96572   0.00000  Uiso   1.00
H916   H     0.94685   0.78538   0.90879   0.00000  Uiso   1.00
H917   H     0.99246   0.74996   0.69347   0.00000  Uiso   1.00
H918   H     0.96138   0.81982   0.96216   0.00000  Uiso   1.00
H919   H     0.67420   0.75027   0.80661   0.00000  Uiso   1.00
H920   H     0.86235   0.53049   0.82719   0.00000  Uiso   1.00
H921   H     0.86237   0.96958   0.68066   0.00000  Uiso   1.00
H922   H     0.80548   0.61072   0.67270   0.00000  Uiso   1.00
H923   H     0.80550   0.88921   0.81998   0.00000  Uiso   1.00
H924   H     0.80441   0.53029   0.67293   0.00000  Uiso   1.00
N925   N     0.83333   0.75001   0.62934   0.00000  Uiso   1.00
N926   N     0.83333   0.74999   0.87066   0.00000  Uiso   1.00
O927   O     0.83334   0.68573   0.79072   0.00000  Uiso   1.00
O928   O     0.78405   0.82022   0.96160   0.00000  Uiso   1.00
O929   O     0.83333   0.81428   0.70929   0.00000  Uiso   1.00
O930   O     0.83334   0.68573   0.70928   0.00000  Uiso   1.00
O931   O     0.83333   0.81427   0.79072   0.00000  Uiso   1.00
O932   O     0.75828   0.75000   0.78132   0.00000  Uiso   1.00
O933   O     0.90839   0.75001   0.71868   0.00000  Uiso   1.00
O934   O     0.75828   0.75000   0.69989   0.00000  Uiso   1.00
O935   O     0.90839   0.75000   0.80012   0.00000  Uiso   1.00
O936   O     0.79164   0.67714   0.52531   0.00000  Uiso   1.00
loop_
_geom_bond_atom_site_label_1
_geom_bond_atom_site_label_2
_geom_bond_distance
_geom_bond_site_symmetry_2
_ccdc_geom_bond_type
C1     O72     1.291   .     A
C1     O69     1.291   .     A
C1     C14     1.460   .     S
C2     C4      1.419   .     A
C2     C33     1.412   .     A
C2     O70     1.386   .     S
C3     C23     1.406   .     A
C3     C34     1.416   .     A
C3     C472    1.507   1_554 S
C4     C29     1.407   .     A
C4     C471    1.507   .     S
C5     O74     1.282   .     A
C5     C7      1.432   .     S
C5     O76     1.285   .     A
C6     O75     1.283   .     A
C6     O77     1.285   .     A
C6     C8      1.432   .     S
C7     C164    1.335   1_455 S
C7     H215    1.087   1_455 S
C8     C85     1.335   .     S
C8     H139    1.088   .     S
C9     H62     1.083   .     S
C9     C20     1.404   .     A
C9     C11     1.390   .     A
C10    H63     1.083   .     S
C10    C21     1.404   .     A
C10    C13     1.390   .     A
C11    C14     1.402   .     A
C11    H37     1.083   .     S
C12    O73     1.291   .     A
C12    C15     1.460   .     S
C12    O71     1.291   .     A
C13    C15     1.402   .     A
C13    H48     1.083   .     S
C14    C16     1.402   .     A
C15    C17     1.402   .     A
C16    C18     1.390   .     A
C16    H64     1.083   .     S
C17    H65     1.083   .     S
C17    C19     1.390   .     A
C18    H66     1.083   .     S
C18    C20     1.404   .     A
C19    H38     1.083   .     S
C19    C21     1.404   .     A
C20    C255    1.470   1_545 S
C21    C254    1.470   .     S
C22    O78     1.413   .     S
C22    H46     1.117   .     S
C22    C492    1.527   1_554 S
C22    H513    1.111   1_554 S
C23    C30     1.408   .     A
C23    H39     1.083   .     S
C24    H47     1.112   .     S
C24    C490    1.527   .     S
C24    C181    1.527   1_455 S
C24    H517    1.112   .     S
C25    H50     1.111   .     S
C25    H51     1.110   .     S
C25    H52     1.111   .     S
C25    C102    1.527   .     S
C26    C27     1.539   .     S
C26    H54     1.108   .     S
C26    O70     1.418   .     S
C26    H53     1.111   .     S
C27    H55     1.111   .     S
C27    H56     1.111   .     S
C27    C184    1.527   1_455 S
C28    H57     1.111   .     S
C28    H60     1.111   .     S
C28    H58     1.111   .     S
C28    C105    1.527   .     S
C29    C31     1.407   .     A
C29    H40     1.082   .     S
C30    H41     1.081   .     S
C30    N67     1.366   .     A
C31    H42     1.081   .     S
C31    N68     1.364   .     A
C32    C34     1.412   .     A
C32    N67     1.366   .     A
C32    H43     1.081   .     S
C33    H44     1.081   .     S
C33    N68     1.365   .     A
C34    O78     1.384   .     S
Cu35   O74     1.953   .     S
Cu35   Cu36    2.668   .     S
Cu35   O77     1.956   .     S
Cu35   O73     1.957   .     S
Cu35   N68     2.004   .     S
Cu35   O69     1.957   .     S
Cu36   N67     2.004   .     S
Cu36   O76     1.956   .     S
Cu36   O71     1.957   .     S
Cu36   O75     1.953   .     S
Cu36   O72     1.957   .     S
H45    C490    1.111   .     S
H49    C492    1.112   1_554 S
H59    C85     1.087   .     S
H61    C164    1.088   1_455 S
C79    O150    1.291   .     A
C79    O147    1.291   .     A
C79    C92     1.460   .     S
C80    C82     1.419   .     A
C80    C111    1.412   .     A
C80    O148    1.386   .     S
C81    C101    1.406   .     A
C81    C112    1.416   .     A
C81    C550    1.507   1_554 S
C82    C107    1.407   .     A
C82    C549    1.507   .     S
C83    O152    1.282   .     A
C83    C85     1.432   .     S
C83    O154    1.285   .     A
C84    O153    1.283   .     A
C84    O155    1.285   .     A
C84    C86     1.432   .     S
C86    C163    1.335   .     S
C86    H217    1.088   .     S
C87    H140    1.083   .     S
C87    C98     1.404   .     A
C87    C89     1.390   .     A
C88    H141    1.083   .     S
C88    C99     1.404   .     A
C88    C91     1.390   .     A
C89    C92     1.402   .     A
C89    H115    1.083   .     S
C90    O151    1.291   .     A
C90    C93     1.460   .     S
C90    O149    1.291   .     A
C91    C93     1.402   .     A
C91    H126    1.083   .     S
C92    C94     1.402   .     A
C93    C95     1.402   .     A
C94    C96     1.390   .     A
C94    H142    1.083   .     S
C95    H143    1.083   .     S
C95    C97     1.390   .     A
C96    H144    1.083   .     S
C96    C98     1.404   .     A
C97    H116    1.083   .     S
C97    C99     1.404   .     A
C98    C333    1.470   1_545 S
C99    C332    1.470   .     S
C100   O156    1.413   .     S
C100   H124    1.117   .     S
C100   C570    1.527   1_554 S
C100   H591    1.111   1_554 S
C101   C108    1.408   .     A
C101   H117    1.083   .     S
C102   H125    1.112   .     S
C102   C568    1.527   .     S
C102   H595    1.112   .     S
C103   H128    1.111   .     S
C103   H129    1.110   .     S
C103   H130    1.111   .     S
C103   C180    1.527   .     S
C104   C105    1.539   .     S
C104   H132    1.108   .     S
C104   O148    1.418   .     S
C104   H131    1.111   .     S
C105   H133    1.111   .     S
C105   H134    1.111   .     S
C106   H135    1.111   .     S
C106   H138    1.111   .     S
C106   H136    1.111   .     S
C106   C183    1.527   .     S
C107   C109    1.407   .     A
C107   H118    1.082   .     S
C108   H119    1.081   .     S
C108   N145    1.366   .     A
C109   H120    1.081   .     S
C109   N146    1.364   .     A
C110   C112    1.412   .     A
C110   N145    1.366   .     A
C110   H121    1.081   .     S
C111   H122    1.081   .     S
C111   N146    1.365   .     A
C112   O156    1.384   .     S
Cu113  O152    1.953   .     S
Cu113  Cu114   2.668   .     S
Cu113  O155    1.956   .     S
Cu113  O151    1.957   .     S
Cu113  N146    2.004   .     S
Cu113  O147    1.957   .     S
Cu114  N145    2.004   .     S
Cu114  O154    1.956   .     S
Cu114  O149    1.957   .     S
Cu114  O153    1.953   .     S
Cu114  O150    1.957   .     S
H123   C568    1.111   .     S
H127   C570    1.112   1_554 S
H137   C163    1.087   .     S
C157   O228    1.291   .     A
C157   O225    1.291   .     A
C157   C170    1.460   .     S
C158   C160    1.419   .     A
C158   C189    1.412   .     A
C158   O226    1.386   .     S
C159   C179    1.406   .     A
C159   C190    1.416   .     A
C159   C628    1.507   1_554 S
C160   C185    1.407   .     A
C160   C627    1.507   .     S
C161   O230    1.282   .     A
C161   C163    1.432   .     S
C161   O232    1.285   .     A
C162   O231    1.283   .     A
C162   O233    1.285   .     A
C162   C164    1.432   .     S
C164   C7      1.335   1_655 S
C164   H61     1.088   1_655 S
C165   H218    1.083   .     S
C165   C176    1.404   .     A
C165   C167    1.390   .     A
C166   H219    1.083   .     S
C166   C177    1.404   .     A
C166   C169    1.390   .     A
C167   C170    1.402   .     A
C167   H193    1.083   .     S
C168   O229    1.291   .     A
C168   C171    1.460   .     S
C168   O227    1.291   .     A
C169   C171    1.402   .     A
C169   H204    1.083   .     S
C170   C172    1.402   .     A
C171   C173    1.402   .     A
C172   C174    1.390   .     A
C172   H220    1.083   .     S
C173   H221    1.083   .     S
C173   C175    1.390   .     A
C174   H222    1.083   .     S
C174   C176    1.404   .     A
C175   H194    1.083   .     S
C175   C177    1.404   .     A
C176   C411    1.470   1_545 S
C177   C410    1.470   .     S
C178   O234    1.413   .     S
C178   H202    1.117   .     S
C178   C648    1.527   1_554 S
C178   H669    1.111   1_554 S
C179   C186    1.408   .     A
C179   H195    1.083   .     S
C180   H203    1.112   .     S
C180   C646    1.527   .     S
C180   H673    1.112   .     S
C181   H206    1.111   .     S
C181   H207    1.110   .     S
C181   H208    1.111   .     S
C181   C24     1.527   1_655 S
C182   C183    1.539   .     S
C182   H210    1.108   .     S
C182   O226    1.418   .     S
C182   H209    1.111   .     S
C183   H211    1.111   .     S
C183   H212    1.111   .     S
C184   H213    1.111   .     S
C184   H216    1.111   .     S
C184   H214    1.111   .     S
C184   C27     1.527   1_655 S
C185   C187    1.407   .     A
C185   H196    1.082   .     S
C186   H197    1.081   .     S
C186   N223    1.366   .     A
C187   H198    1.081   .     S
C187   N224    1.364   .     A
C188   C190    1.412   .     A
C188   N223    1.366   .     A
C188   H199    1.081   .     S
C189   H200    1.081   .     S
C189   N224    1.365   .     A
C190   O234    1.384   .     S
Cu191  O230    1.953   .     S
Cu191  Cu192   2.668   .     S
Cu191  O233    1.956   .     S
Cu191  O229    1.957   .     S
Cu191  N224    2.004   .     S
Cu191  O225    1.957   .     S
Cu192  N223    2.004   .     S
Cu192  O232    1.956   .     S
Cu192  O227    1.957   .     S
Cu192  O231    1.953   .     S
Cu192  O228    1.957   .     S
H201   C646    1.111   .     S
H205   C648    1.112   1_554 S
H215   C7      1.087   1_655 S
C235   O306    1.291   .     A
C235   O303    1.291   .     A
C235   C248    1.460   .     S
C236   C238    1.419   .     A
C236   C267    1.412   .     A
C236   O304    1.386   .     S
C237   C257    1.406   .     A
C237   C268    1.416   .     A
C237   C706    1.507   1_554 S
C238   C263    1.407   .     A
C238   C705    1.507   .     S
C239   O308    1.282   .     A
C239   C241    1.432   .     S
C239   O310    1.285   .     A
C240   O309    1.283   .     A
C240   O311    1.285   .     A
C240   C242    1.432   .     S
C241   C398    1.335   1_455 S
C241   H449    1.087   1_455 S
C242   C319    1.335   .     S
C242   H373    1.088   .     S
C243   H296    1.083   .     S
C243   C254    1.404   .     A
C243   C245    1.390   .     A
C244   H297    1.083   .     S
C244   C255    1.404   .     A
C244   C247    1.390   .     A
C245   C248    1.402   .     A
C245   H271    1.083   .     S
C246   O307    1.291   .     A
C246   C249    1.460   .     S
C246   O305    1.291   .     A
C247   C249    1.402   .     A
C247   H282    1.083   .     S
C248   C250    1.402   .     A
C249   C251    1.402   .     A
C250   C252    1.390   .     A
C250   H298    1.083   .     S
C251   H299    1.083   .     S
C251   C253    1.390   .     A
C252   H300    1.083   .     S
C252   C254    1.404   .     A
C253   H272    1.083   .     S
C253   C255    1.404   .     A
C255   C20     1.470   1_565 S
C256   O312    1.413   .     S
C256   H280    1.117   .     S
C256   C726    1.527   1_554 S
C256   H747    1.111   1_554 S
C257   C264    1.408   .     A
C257   H273    1.083   .     S
C258   H281    1.112   .     S
C258   C724    1.527   .     S
C258   C415    1.527   1_455 S
C258   H751    1.112   .     S
C259   H284    1.111   .     S
C259   H285    1.110   .     S
C259   H286    1.111   .     S
C259   C336    1.527   .     S
C260   C261    1.539   .     S
C260   H288    1.108   .     S
C260   O304    1.418   .     S
C260   H287    1.111   .     S
C261   H289    1.111   .     S
C261   H290    1.111   .     S
C261   C418    1.527   1_455 S
C262   H291    1.111   .     S
C262   H294    1.111   .     S
C262   H292    1.111   .     S
C262   C339    1.527   .     S
C263   C265    1.407   .     A
C263   H274    1.082   .     S
C264   H275    1.081   .     S
C264   N301    1.366   .     A
C265   H276    1.081   .     S
C265   N302    1.364   .     A
C266   C268    1.412   .     A
C266   N301    1.366   .     A
C266   H277    1.081   .     S
C267   H278    1.081   .     S
C267   N302    1.365   .     A
C268   O312    1.384   .     S
Cu269  O308    1.953   .     S
Cu269  Cu270   2.668   .     S
Cu269  O311    1.956   .     S
Cu269  O307    1.957   .     S
Cu269  N302    2.004   .     S
Cu269  O303    1.957   .     S
Cu270  N301    2.004   .     S
Cu270  O310    1.956   .     S
Cu270  O305    1.957   .     S
Cu270  O309    1.953   .     S
Cu270  O306    1.957   .     S
H279   C724    1.111   .     S
H283   C726    1.112   1_554 S
H293   C319    1.087   .     S
H295   C398    1.088   1_455 S
C313   O384    1.291   .     A
C313   O381    1.291   .     A
C313   C326    1.460   .     S
C314   C316    1.419   .     A
C314   C345    1.412   .     A
C314   O382    1.386   .     S
C315   C335    1.406   .     A
C315   C346    1.416   .     A
C315   C784    1.507   1_554 S
C316   C341    1.407   .     A
C316   C783    1.507   .     S
C317   O386    1.282   .     A
C317   C319    1.432   .     S
C317   O388    1.285   .     A
C318   O387    1.283   .     A
C318   O389    1.285   .     A
C318   C320    1.432   .     S
C320   C397    1.335   .     S
C320   H451    1.088   .     S
C321   H374    1.083   .     S
C321   C332    1.404   .     A
C321   C323    1.390   .     A
C322   H375    1.083   .     S
C322   C333    1.404   .     A
C322   C325    1.390   .     A
C323   C326    1.402   .     A
C323   H349    1.083   .     S
C324   O385    1.291   .     A
C324   C327    1.460   .     S
C324   O383    1.291   .     A
C325   C327    1.402   .     A
C325   H360    1.083   .     S
C326   C328    1.402   .     A
C327   C329    1.402   .     A
C328   C330    1.390   .     A
C328   H376    1.083   .     S
C329   H377    1.083   .     S
C329   C331    1.390   .     A
C330   H378    1.083   .     S
C330   C332    1.404   .     A
C331   H350    1.083   .     S
C331   C333    1.404   .     A
C333   C98     1.470   1_565 S
C334   O390    1.413   .     S
C334   H358    1.117   .     S
C334   C804    1.527   1_554 S
C334   H825    1.111   1_554 S
C335   C342    1.408   .     A
C335   H351    1.083   .     S
C336   H359    1.112   .     S
C336   C802    1.527   .     S
C336   H829    1.112   .     S
C337   H362    1.111   .     S
C337   H363    1.110   .     S
C337   H364    1.111   .     S
C337   C414    1.527   .     S
C338   C339    1.539   .     S
C338   H366    1.108   .     S
C338   O382    1.418   .     S
C338   H365    1.111   .     S
C339   H367    1.111   .     S
C339   H368    1.111   .     S
C340   H369    1.111   .     S
C340   H372    1.111   .     S
C340   H370    1.111   .     S
C340   C417    1.527   .     S
C341   C343    1.407   .     A
C341   H352    1.082   .     S
C342   H353    1.081   .     S
C342   N379    1.366   .     A
C343   H354    1.081   .     S
C343   N380    1.364   .     A
C344   C346    1.412   .     A
C344   N379    1.366   .     A
C344   H355    1.081   .     S
C345   H356    1.081   .     S
C345   N380    1.365   .     A
C346   O390    1.384   .     S
Cu347  O386    1.953   .     S
Cu347  Cu348   2.668   .     S
Cu347  O389    1.956   .     S
Cu347  O385    1.957   .     S
Cu347  N380    2.004   .     S
Cu347  O381    1.957   .     S
Cu348  N379    2.004   .     S
Cu348  O388    1.956   .     S
Cu348  O383    1.957   .     S
Cu348  O387    1.953   .     S
Cu348  O384    1.957   .     S
H357   C802    1.111   .     S
H361   C804    1.112   1_554 S
H371   C397    1.087   .     S
C391   O462    1.291   .     A
C391   O459    1.291   .     A
C391   C404    1.460   .     S
C392   C394    1.419   .     A
C392   C423    1.412   .     A
C392   O460    1.386   .     S
C393   C413    1.406   .     A
C393   C424    1.416   .     A
C393   C862    1.507   1_554 S
C394   C419    1.407   .     A
C394   C861    1.507   .     S
C395   O464    1.282   .     A
C395   C397    1.432   .     S
C395   O466    1.285   .     A
C396   O465    1.283   .     A
C396   O467    1.285   .     A
C396   C398    1.432   .     S
C398   C241    1.335   1_655 S
C398   H295    1.088   1_655 S
C399   H452    1.083   .     S
C399   C410    1.404   .     A
C399   C401    1.390   .     A
C400   H453    1.083   .     S
C400   C411    1.404   .     A
C400   C403    1.390   .     A
C401   C404    1.402   .     A
C401   H427    1.083   .     S
C402   O463    1.291   .     A
C402   C405    1.460   .     S
C402   O461    1.291   .     A
C403   C405    1.402   .     A
C403   H438    1.083   .     S
C404   C406    1.402   .     A
C405   C407    1.402   .     A
C406   C408    1.390   .     A
C406   H454    1.083   .     S
C407   H455    1.083   .     S
C407   C409    1.390   .     A
C408   H456    1.083   .     S
C408   C410    1.404   .     A
C409   H428    1.083   .     S
C409   C411    1.404   .     A
C411   C176    1.470   1_565 S
C412   O468    1.413   .     S
C412   H436    1.117   .     S
C412   C882    1.527   1_554 S
C412   H903    1.111   1_554 S
C413   C420    1.408   .     A
C413   H429    1.083   .     S
C414   H437    1.112   .     S
C414   C880    1.527   .     S
C414   H907    1.112   .     S
C415   H440    1.111   .     S
C415   H441    1.110   .     S
C415   H442    1.111   .     S
C415   C258    1.527   1_655 S
C416   C417    1.539   .     S
C416   H444    1.108   .     S
C416   O460    1.418   .     S
C416   H443    1.111   .     S
C417   H445    1.111   .     S
C417   H446    1.111   .     S
C418   H447    1.111   .     S
C418   H450    1.111   .     S
C418   H448    1.111   .     S
C418   C261    1.527   1_655 S
C419   C421    1.407   .     A
C419   H430    1.082   .     S
C420   H431    1.081   .     S
C420   N457    1.366   .     A
C421   H432    1.081   .     S
C421   N458    1.364   .     A
C422   C424    1.412   .     A
C422   N457    1.366   .     A
C422   H433    1.081   .     S
C423   H434    1.081   .     S
C423   N458    1.365   .     A
C424   O468    1.384   .     S
Cu425  O464    1.953   .     S
Cu425  Cu426   2.668   .     S
Cu425  O467    1.956   .     S
Cu425  O463    1.957   .     S
Cu425  N458    2.004   .     S
Cu425  O459    1.957   .     S
Cu426  N457    2.004   .     S
Cu426  O466    1.956   .     S
Cu426  O461    1.957   .     S
Cu426  O465    1.953   .     S
Cu426  O462    1.957   .     S
H435   C880    1.111   .     S
H439   C882    1.112   1_554 S
H449   C241    1.087   1_655 S
C469   O540    1.291   .     A
C469   O537    1.291   .     A
C469   C482    1.460   .     S
C470   C472    1.419   .     A
C470   C501    1.412   .     A
C470   O538    1.386   .     S
C471   C491    1.406   .     A
C471   C502    1.416   .     A
C472   C497    1.407   .     A
C472   C3      1.507   1_556 S
C473   O542    1.282   .     A
C473   C475    1.432   .     S
C473   O544    1.285   .     A
C474   O543    1.283   .     A
C474   O545    1.285   .     A
C474   C476    1.432   .     S
C475   C632    1.335   1_455 S
C475   H683    1.087   1_455 S
C476   C553    1.335   .     S
C476   H607    1.088   .     S
C477   H530    1.083   .     S
C477   C488    1.404   .     A
C477   C479    1.390   .     A
C478   H531    1.083   .     S
C478   C489    1.404   .     A
C478   C481    1.390   .     A
C479   C482    1.402   .     A
C479   H505    1.083   .     S
C480   O541    1.291   .     A
C480   C483    1.460   .     S
C480   O539    1.291   .     A
C481   C483    1.402   .     A
C481   H516    1.083   .     S
C482   C484    1.402   .     A
C483   C485    1.402   .     A
C484   C486    1.390   .     A
C484   H532    1.083   .     S
C485   H533    1.083   .     S
C485   C487    1.390   .     A
C486   H534    1.083   .     S
C486   C488    1.404   .     A
C487   H506    1.083   .     S
C487   C489    1.404   .     A
C488   C723    1.470   1_545 S
C489   C722    1.470   .     S
C490   O546    1.413   .     S
C490   H514    1.117   .     S
C491   C498    1.408   .     A
C491   H507    1.083   .     S
C492   H515    1.112   .     S
C492   C22     1.527   1_556 S
C492   C649    1.527   1_455 S
C492   H49     1.112   1_556 S
C493   H518    1.111   .     S
C493   H519    1.110   .     S
C493   H520    1.111   .     S
C493   C570    1.527   .     S
C494   C495    1.539   .     S
C494   H522    1.108   .     S
C494   O538    1.418   .     S
C494   H521    1.111   .     S
C495   H523    1.111   .     S
C495   H524    1.111   .     S
C495   C652    1.527   1_455 S
C496   H525    1.111   .     S
C496   H528    1.111   .     S
C496   H526    1.111   .     S
C496   C573    1.527   .     S
C497   C499    1.407   .     A
C497   H508    1.082   .     S
C498   H509    1.081   .     S
C498   N535    1.366   .     A
C499   H510    1.081   .     S
C499   N536    1.364   .     A
C500   C502    1.412   .     A
C500   N535    1.366   .     A
C500   H511    1.081   .     S
C501   H512    1.081   .     S
C501   N536    1.365   .     A
C502   O546    1.384   .     S
Cu503  O542    1.953   .     S
Cu503  Cu504   2.668   .     S
Cu503  O545    1.956   .     S
Cu503  O541    1.957   .     S
Cu503  N536    2.004   .     S
Cu503  O537    1.957   .     S
Cu504  N535    2.004   .     S
Cu504  O544    1.956   .     S
Cu504  O539    1.957   .     S
Cu504  O543    1.953   .     S
Cu504  O540    1.957   .     S
H513   C22     1.111   1_556 S
H527   C553    1.087   .     S
H529   C632    1.088   1_455 S
C547   O618    1.291   .     A
C547   O615    1.291   .     A
C547   C560    1.460   .     S
C548   C550    1.419   .     A
C548   C579    1.412   .     A
C548   O616    1.386   .     S
C549   C569    1.406   .     A
C549   C580    1.416   .     A
C550   C575    1.407   .     A
C550   C81     1.507   1_556 S
C551   O620    1.282   .     A
C551   C553    1.432   .     S
C551   O622    1.285   .     A
C552   O621    1.283   .     A
C552   O623    1.285   .     A
C552   C554    1.432   .     S
C554   C631    1.335   .     S
C554   H685    1.088   .     S
C555   H608    1.083   .     S
C555   C566    1.404   .     A
C555   C557    1.390   .     A
C556   H609    1.083   .     S
C556   C567    1.404   .     A
C556   C559    1.390   .     A
C557   C560    1.402   .     A
C557   H583    1.083   .     S
C558   O619    1.291   .     A
C558   C561    1.460   .     S
C558   O617    1.291   .     A
C559   C561    1.402   .     A
C559   H594    1.083   .     S
C560   C562    1.402   .     A
C561   C563    1.402   .     A
C562   C564    1.390   .     A
C562   H610    1.083   .     S
C563   H611    1.083   .     S
C563   C565    1.390   .     A
C564   H612    1.083   .     S
C564   C566    1.404   .     A
C565   H584    1.083   .     S
C565   C567    1.404   .     A
C566   C801    1.470   1_545 S
C567   C800    1.470   .     S
C568   O624    1.413   .     S
C568   H592    1.117   .     S
C569   C576    1.408   .     A
C569   H585    1.083   .     S
C570   H593    1.112   .     S
C570   C100    1.527   1_556 S
C570   H127    1.112   1_556 S
C571   H596    1.111   .     S
C571   H597    1.110   .     S
C571   H598    1.111   .     S
C571   C648    1.527   .     S
C572   C573    1.539   .     S
C572   H600    1.108   .     S
C572   O616    1.418   .     S
C572   H599    1.111   .     S
C573   H601    1.111   .     S
C573   H602    1.111   .     S
C574   H603    1.111   .     S
C574   H606    1.111   .     S
C574   H604    1.111   .     S
C574   C651    1.527   .     S
C575   C577    1.407   .     A
C575   H586    1.082   .     S
C576   H587    1.081   .     S
C576   N613    1.366   .     A
C577   H588    1.081   .     S
C577   N614    1.364   .     A
C578   C580    1.412   .     A
C578   N613    1.366   .     A
C578   H589    1.081   .     S
C579   H590    1.081   .     S
C579   N614    1.365   .     A
C580   O624    1.384   .     S
Cu581  O620    1.953   .     S
Cu581  Cu582   2.668   .     S
Cu581  O623    1.956   .     S
Cu581  O619    1.957   .     S
Cu581  N614    2.004   .     S
Cu581  O615    1.957   .     S
Cu582  N613    2.004   .     S
Cu582  O622    1.956   .     S
Cu582  O617    1.957   .     S
Cu582  O621    1.953   .     S
Cu582  O618    1.957   .     S
H591   C100    1.111   1_556 S
H605   C631    1.087   .     S
C625   O696    1.291   .     A
C625   O693    1.291   .     A
C625   C638    1.460   .     S
C626   C628    1.419   .     A
C626   C657    1.412   .     A
C626   O694    1.386   .     S
C627   C647    1.406   .     A
C627   C658    1.416   .     A
C628   C653    1.407   .     A
C628   C159    1.507   1_556 S
C629   O698    1.282   .     A
C629   C631    1.432   .     S
C629   O700    1.285   .     A
C630   O699    1.283   .     A
C630   O701    1.285   .     A
C630   C632    1.432   .     S
C632   C475    1.335   1_655 S
C632   H529    1.088   1_655 S
C633   H686    1.083   .     S
C633   C644    1.404   .     A
C633   C635    1.390   .     A
C634   H687    1.083   .     S
C634   C645    1.404   .     A
C634   C637    1.390   .     A
C635   C638    1.402   .     A
C635   H661    1.083   .     S
C636   O697    1.291   .     A
C636   C639    1.460   .     S
C636   O695    1.291   .     A
C637   C639    1.402   .     A
C637   H672    1.083   .     S
C638   C640    1.402   .     A
C639   C641    1.402   .     A
C640   C642    1.390   .     A
C640   H688    1.083   .     S
C641   H689    1.083   .     S
C641   C643    1.390   .     A
C642   H690    1.083   .     S
C642   C644    1.404   .     A
C643   H662    1.083   .     S
C643   C645    1.404   .     A
C644   C879    1.470   1_545 S
C645   C878    1.470   .     S
C646   O702    1.413   .     S
C646   H670    1.117   .     S
C647   C654    1.408   .     A
C647   H663    1.083   .     S
C648   H671    1.112   .     S
C648   C178    1.527   1_556 S
C648   H205    1.112   1_556 S
C649   H674    1.111   .     S
C649   H675    1.110   .     S
C649   H676    1.111   .     S
C649   C492    1.527   1_655 S
C650   C651    1.539   .     S
C650   H678    1.108   .     S
C650   O694    1.418   .     S
C650   H677    1.111   .     S
C651   H679    1.111   .     S
C651   H680    1.111   .     S
C652   H681    1.111   .     S
C652   H684    1.111   .     S
C652   H682    1.111   .     S
C652   C495    1.527   1_655 S
C653   C655    1.407   .     A
C653   H664    1.082   .     S
C654   H665    1.081   .     S
C654   N691    1.366   .     A
C655   H666    1.081   .     S
C655   N692    1.364   .     A
C656   C658    1.412   .     A
C656   N691    1.366   .     A
C656   H667    1.081   .     S
C657   H668    1.081   .     S
C657   N692    1.365   .     A
C658   O702    1.384   .     S
Cu659  O698    1.953   .     S
Cu659  Cu660   2.668   .     S
Cu659  O701    1.956   .     S
Cu659  O697    1.957   .     S
Cu659  N692    2.004   .     S
Cu659  O693    1.957   .     S
Cu660  N691    2.004   .     S
Cu660  O700    1.956   .     S
Cu660  O695    1.957   .     S
Cu660  O699    1.953   .     S
Cu660  O696    1.957   .     S
H669   C178    1.111   1_556 S
H683   C475    1.087   1_655 S
C703   O774    1.291   .     A
C703   O771    1.291   .     A
C703   C716    1.460   .     S
C704   C706    1.419   .     A
C704   C735    1.412   .     A
C704   O772    1.386   .     S
C705   C725    1.406   .     A
C705   C736    1.416   .     A
C706   C731    1.407   .     A
C706   C237    1.507   1_556 S
C707   O776    1.282   .     A
C707   C709    1.432   .     S
C707   O778    1.285   .     A
C708   O777    1.283   .     A
C708   O779    1.285   .     A
C708   C710    1.432   .     S
C709   C866    1.335   1_455 S
C709   H917    1.087   1_455 S
C710   C787    1.335   .     S
C710   H841    1.088   .     S
C711   H764    1.083   .     S
C711   C722    1.404   .     A
C711   C713    1.390   .     A
C712   H765    1.083   .     S
C712   C723    1.404   .     A
C712   C715    1.390   .     A
C713   C716    1.402   .     A
C713   H739    1.083   .     S
C714   O775    1.291   .     A
C714   C717    1.460   .     S
C714   O773    1.291   .     A
C715   C717    1.402   .     A
C715   H750    1.083   .     S
C716   C718    1.402   .     A
C717   C719    1.402   .     A
C718   C720    1.390   .     A
C718   H766    1.083   .     S
C719   H767    1.083   .     S
C719   C721    1.390   .     A
C720   H768    1.083   .     S
C720   C722    1.404   .     A
C721   H740    1.083   .     S
C721   C723    1.404   .     A
C723   C488    1.470   1_565 S
C724   O780    1.413   .     S
C724   H748    1.117   .     S
C725   C732    1.408   .     A
C725   H741    1.083   .     S
C726   H749    1.112   .     S
C726   C256    1.527   1_556 S
C726   C883    1.527   1_455 S
C726   H283    1.112   1_556 S
C727   H752    1.111   .     S
C727   H753    1.110   .     S
C727   H754    1.111   .     S
C727   C804    1.527   .     S
C728   C729    1.539   .     S
C728   H756    1.108   .     S
C728   O772    1.418   .     S
C728   H755    1.111   .     S
C729   H757    1.111   .     S
C729   H758    1.111   .     S
C729   C886    1.527   1_455 S
C730   H759    1.111   .     S
C730   H762    1.111   .     S
C730   H760    1.111   .     S
C730   C807    1.527   .     S
C731   C733    1.407   .     A
C731   H742    1.082   .     S
C732   H743    1.081   .     S
C732   N769    1.366   .     A
C733   H744    1.081   .     S
C733   N770    1.364   .     A
C734   C736    1.412   .     A
C734   N769    1.366   .     A
C734   H745    1.081   .     S
C735   H746    1.081   .     S
C735   N770    1.365   .     A
C736   O780    1.384   .     S
Cu737  O776    1.953   .     S
Cu737  Cu738   2.668   .     S
Cu737  O779    1.956   .     S
Cu737  O775    1.957   .     S
Cu737  N770    2.004   .     S
Cu737  O771    1.957   .     S
Cu738  N769    2.004   .     S
Cu738  O778    1.956   .     S
Cu738  O773    1.957   .     S
Cu738  O777    1.953   .     S
Cu738  O774    1.957   .     S
H747   C256    1.111   1_556 S
H761   C787    1.087   .     S
H763   C866    1.088   1_455 S
C781   O852    1.291   .     A
C781   O849    1.291   .     A
C781   C794    1.460   .     S
C782   C784    1.419   .     A
C782   C813    1.412   .     A
C782   O850    1.386   .     S
C783   C803    1.406   .     A
C783   C814    1.416   .     A
C784   C809    1.407   .     A
C784   C315    1.507   1_556 S
C785   O854    1.282   .     A
C785   C787    1.432   .     S
C785   O856    1.285   .     A
C786   O855    1.283   .     A
C786   O857    1.285   .     A
C786   C788    1.432   .     S
C788   C865    1.335   .     S
C788   H919    1.088   .     S
C789   H842    1.083   .     S
C789   C800    1.404   .     A
C789   C791    1.390   .     A
C790   H843    1.083   .     S
C790   C801    1.404   .     A
C790   C793    1.390   .     A
C791   C794    1.402   .     A
C791   H817    1.083   .     S
C792   O853    1.291   .     A
C792   C795    1.460   .     S
C792   O851    1.291   .     A
C793   C795    1.402   .     A
C793   H828    1.083   .     S
C794   C796    1.402   .     A
C795   C797    1.402   .     A
C796   C798    1.390   .     A
C796   H844    1.083   .     S
C797   H845    1.083   .     S
C797   C799    1.390   .     A
C798   H846    1.083   .     S
C798   C800    1.404   .     A
C799   H818    1.083   .     S
C799   C801    1.404   .     A
C801   C566    1.470   1_565 S
C802   O858    1.413   .     S
C802   H826    1.117   .     S
C803   C810    1.408   .     A
C803   H819    1.083   .     S
C804   H827    1.112   .     S
C804   C334    1.527   1_556 S
C804   H361    1.112   1_556 S
C805   H830    1.111   .     S
C805   H831    1.110   .     S
C805   H832    1.111   .     S
C805   C882    1.527   .     S
C806   C807    1.539   .     S
C806   H834    1.108   .     S
C806   O850    1.418   .     S
C806   H833    1.111   .     S
C807   H835    1.111   .     S
C807   H836    1.111   .     S
C808   H837    1.111   .     S
C808   H840    1.111   .     S
C808   H838    1.111   .     S
C808   C885    1.527   .     S
C809   C811    1.407   .     A
C809   H820    1.082   .     S
C810   H821    1.081   .     S
C810   N847    1.366   .     A
C811   H822    1.081   .     S
C811   N848    1.364   .     A
C812   C814    1.412   .     A
C812   N847    1.366   .     A
C812   H823    1.081   .     S
C813   H824    1.081   .     S
C813   N848    1.365   .     A
C814   O858    1.384   .     S
Cu815  O854    1.953   .     S
Cu815  Cu816   2.668   .     S
Cu815  O857    1.956   .     S
Cu815  O853    1.957   .     S
Cu815  N848    2.004   .     S
Cu815  O849    1.957   .     S
Cu816  N847    2.004   .     S
Cu816  O856    1.956   .     S
Cu816  O851    1.957   .     S
Cu816  O855    1.953   .     S
Cu816  O852    1.957   .     S
H825   C334    1.111   1_556 S
H839   C865    1.087   .     S
C859   O930    1.291   .     A
C859   O927    1.291   .     A
C859   C872    1.460   .     S
C860   C862    1.419   .     A
C860   C891    1.412   .     A
C860   O928    1.386   .     S
C861   C881    1.406   .     A
C861   C892    1.416   .     A
C862   C887    1.407   .     A
C862   C393    1.507   1_556 S
C863   O932    1.282   .     A
C863   C865    1.432   .     S
C863   O934    1.285   .     A
C864   O933    1.283   .     A
C864   O935    1.285   .     A
C864   C866    1.432   .     S
C866   C709    1.335   1_655 S
C866   H763    1.088   1_655 S
C867   H920    1.083   .     S
C867   C878    1.404   .     A
C867   C869    1.390   .     A
C868   H921    1.083   .     S
C868   C879    1.404   .     A
C868   C871    1.390   .     A
C869   C872    1.402   .     A
C869   H895    1.083   .     S
C870   O931    1.291   .     A
C870   C873    1.460   .     S
C870   O929    1.291   .     A
C871   C873    1.402   .     A
C871   H906    1.083   .     S
C872   C874    1.402   .     A
C873   C875    1.402   .     A
C874   C876    1.390   .     A
C874   H922    1.083   .     S
C875   H923    1.083   .     S
C875   C877    1.390   .     A
C876   H924    1.083   .     S
C876   C878    1.404   .     A
C877   H896    1.083   .     S
C877   C879    1.404   .     A
C879   C644    1.470   1_565 S
C880   O936    1.413   .     S
C880   H904    1.117   .     S
C881   C888    1.408   .     A
C881   H897    1.083   .     S
C882   H905    1.112   .     S
C882   C412    1.527   1_556 S
C882   H439    1.112   1_556 S
C883   H908    1.111   .     S
C883   H909    1.110   .     S
C883   H910    1.111   .     S
C883   C726    1.527   1_655 S
C884   C885    1.539   .     S
C884   H912    1.108   .     S
C884   O928    1.418   .     S
C884   H911    1.111   .     S
C885   H913    1.111   .     S
C885   H914    1.111   .     S
C886   H915    1.111   .     S
C886   H918    1.111   .     S
C886   H916    1.111   .     S
C886   C729    1.527   1_655 S
C887   C889    1.407   .     A
C887   H898    1.082   .     S
C888   H899    1.081   .     S
C888   N925    1.366   .     A
C889   H900    1.081   .     S
C889   N926    1.364   .     A
C890   C892    1.412   .     A
C890   N925    1.366   .     A
C890   H901    1.081   .     S
C891   H902    1.081   .     S
C891   N926    1.365   .     A
C892   O936    1.384   .     S
Cu893  O932    1.953   .     S
Cu893  Cu894   2.668   .     S
Cu893  O935    1.956   .     S
Cu893  O931    1.957   .     S
Cu893  N926    2.004   .     S
Cu893  O927    1.957   .     S
Cu894  N925    2.004   .     S
Cu894  O934    1.956   .     S
Cu894  O929    1.957   .     S
Cu894  O933    1.953   .     S
Cu894  O930    1.957   .     S
H903   C412    1.111   1_556 S
H917   C709    1.087   1_655 S
