data_str_m2_o2_o5_pcu_sym.104
_audit_creation_date              2020-01-03
_audit_creation_method            'Materials Studio'
_symmetry_space_group_name_H-M    'P1'
_symmetry_Int_Tables_number       1
_symmetry_cell_setting            triclinic
loop_
_symmetry_equiv_pos_as_xyz
  x,y,z
_cell_length_a                    30.2793
_cell_length_b                    27.7287
_cell_length_c                    27.2500
_cell_angle_alpha                 89.9995
_cell_angle_beta                  90.1943
_cell_angle_gamma                 89.9996
loop_
_atom_site_label
_atom_site_type_symbol
_atom_site_fract_x
_atom_site_fract_y
_atom_site_fract_z
_atom_site_U_iso_or_equiv
_atom_site_adp_type
_atom_site_occupancy
C1     C     0.16491   0.25002   0.16661   0.00000  Uiso   1.00
C2     C     0.28295   0.44605   0.19144   0.00000  Uiso   1.00
C3     C     0.24998   0.25000   0.07351   0.00000  Uiso   1.00
C4     C     0.25002   0.25000   0.25983   0.00000  Uiso   1.00
C5     C     0.25000   0.02726   0.16667   0.00000  Uiso   1.00
C6     C     0.25000   0.47262   0.16667   0.00000  Uiso   1.00
C7     C     0.24999   0.24999   0.02183   0.00000  Uiso   1.00
C8     C     0.25001   0.24999   0.31150   0.00000  Uiso   1.00
C9     C     0.04696   0.28529   0.19354   0.00000  Uiso   1.00
C10    C     0.45345   0.21582   0.19375   0.00000  Uiso   1.00
C11    C     0.45304   0.28528   0.13979   0.00000  Uiso   1.00
C12    C     0.33509   0.25002   0.16673   0.00000  Uiso   1.00
C13    C     0.04655   0.21581   0.13961   0.00000  Uiso   1.00
C14    C     0.09296   0.28517   0.19416   0.00000  Uiso   1.00
C15    C     0.40746   0.21553   0.19440   0.00000  Uiso   1.00
C16    C     0.40704   0.28516   0.13917   0.00000  Uiso   1.00
C17    C     0.09253   0.21553   0.13895   0.00000  Uiso   1.00
C18    C     0.11635   0.25018   0.16662   0.00000  Uiso   1.00
C19    C     0.38365   0.25018   0.16672   0.00000  Uiso   1.00
C20    C     0.02399   0.25062   0.16660   0.00000  Uiso   1.00
C21    C     0.47601   0.25062   0.16675   0.00000  Uiso   1.00
C22    C     0.11511   0.32034   0.22470   0.00000  Uiso   1.00
C23    C     0.26719   0.10458   0.20557   0.00000  Uiso   1.00
C24    C     0.38587   0.18051   0.22542   0.00000  Uiso   1.00
C25    C     0.38489   0.32033   0.10861   0.00000  Uiso   1.00
C26    C     0.11412   0.18050   0.10794   0.00000  Uiso   1.00
C27    C     0.21777   0.39530   0.14217   0.00000  Uiso   1.00
C28    C     0.23280   0.10459   0.12776   0.00000  Uiso   1.00
C29    C     0.28223   0.39530   0.19116   0.00000  Uiso   1.00
C30    C     0.26737   0.05384   0.20639   0.00000  Uiso   1.00
C31    C     0.21705   0.44605   0.14189   0.00000  Uiso   1.00
C32    C     0.23263   0.05384   0.12694   0.00000  Uiso   1.00
Cu33   Cu    0.25000   0.29822   0.16667   0.00000  Uiso   1.00
Cu34   Cu    0.25000   0.20179   0.16667   0.00000  Uiso   1.00
H35    H     0.28078   0.12404   0.23646   0.00000  Uiso   1.00
H36    H     0.19036   0.46414   0.12287   0.00000  Uiso   1.00
H37    H     0.21950   0.03575   0.09489   0.00000  Uiso   1.00
H38    H     0.30964   0.46414   0.21046   0.00000  Uiso   1.00
H39    H     0.19228   0.37564   0.12277   0.00000  Uiso   1.00
H40    H     0.21922   0.12405   0.09687   0.00000  Uiso   1.00
H41    H     0.30772   0.37564   0.21056   0.00000  Uiso   1.00
H42    H     0.02887   0.31191   0.21463   0.00000  Uiso   1.00
H43    H     0.47186   0.18938   0.21489   0.00000  Uiso   1.00
H44    H     0.47113   0.31190   0.11869   0.00000  Uiso   1.00
H45    H     0.02813   0.18937   0.11849   0.00000  Uiso   1.00
H46    H     0.28050   0.03575   0.23844   0.00000  Uiso   1.00
N47    N     0.25000   0.12935   0.16667   0.00000  Uiso   1.00
N48    N     0.25000   0.37066   0.16667   0.00000  Uiso   1.00
N49    N     0.13284   0.34849   0.24916   0.00000  Uiso   1.00
N50    N     0.36875   0.15247   0.25040   0.00000  Uiso   1.00
N51    N     0.36716   0.34847   0.08414   0.00000  Uiso   1.00
N52    N     0.13124   0.15246   0.08298   0.00000  Uiso   1.00
O53    O     0.18573   0.29072   0.16667   0.00000  Uiso   1.00
O54    O     0.31427   0.20929   0.16666   0.00000  Uiso   1.00
O55    O     0.31427   0.29072   0.16666   0.00000  Uiso   1.00
O56    O     0.18573   0.20929   0.16667   0.00000  Uiso   1.00
O57    O     0.25000   0.29071   0.09613   0.00000  Uiso   1.00
O58    O     0.25000   0.20929   0.23720   0.00000  Uiso   1.00
O59    O     0.25000   0.29071   0.23720   0.00000  Uiso   1.00
O60    O     0.25000   0.20929   0.09613   0.00000  Uiso   1.00
C61    C     0.66491   0.25002   0.16661   0.00000  Uiso   1.00
C62    C     0.78295   0.44605   0.19144   0.00000  Uiso   1.00
C63    C     0.74998   0.25000   0.07351   0.00000  Uiso   1.00
C64    C     0.75002   0.25000   0.25983   0.00000  Uiso   1.00
C65    C     0.75000   0.02726   0.16667   0.00000  Uiso   1.00
C66    C     0.75000   0.47262   0.16667   0.00000  Uiso   1.00
C67    C     0.74999   0.24999   0.02183   0.00000  Uiso   1.00
C68    C     0.75001   0.24999   0.31150   0.00000  Uiso   1.00
C69    C     0.54696   0.28529   0.19354   0.00000  Uiso   1.00
C70    C     0.95345   0.21582   0.19375   0.00000  Uiso   1.00
C71    C     0.95304   0.28528   0.13979   0.00000  Uiso   1.00
C72    C     0.83509   0.25002   0.16673   0.00000  Uiso   1.00
C73    C     0.54655   0.21581   0.13961   0.00000  Uiso   1.00
C74    C     0.59296   0.28517   0.19416   0.00000  Uiso   1.00
C75    C     0.90746   0.21553   0.19440   0.00000  Uiso   1.00
C76    C     0.90704   0.28516   0.13917   0.00000  Uiso   1.00
C77    C     0.59253   0.21553   0.13895   0.00000  Uiso   1.00
C78    C     0.61635   0.25018   0.16662   0.00000  Uiso   1.00
C79    C     0.88365   0.25018   0.16672   0.00000  Uiso   1.00
C80    C     0.52399   0.25062   0.16660   0.00000  Uiso   1.00
C81    C     0.97601   0.25062   0.16675   0.00000  Uiso   1.00
C82    C     0.61511   0.32034   0.22470   0.00000  Uiso   1.00
C83    C     0.76719   0.10458   0.20557   0.00000  Uiso   1.00
C84    C     0.88587   0.18051   0.22542   0.00000  Uiso   1.00
C85    C     0.88489   0.32033   0.10861   0.00000  Uiso   1.00
C86    C     0.61412   0.18050   0.10794   0.00000  Uiso   1.00
C87    C     0.71777   0.39530   0.14217   0.00000  Uiso   1.00
C88    C     0.73280   0.10459   0.12776   0.00000  Uiso   1.00
C89    C     0.78223   0.39530   0.19116   0.00000  Uiso   1.00
C90    C     0.76737   0.05384   0.20639   0.00000  Uiso   1.00
C91    C     0.71705   0.44605   0.14189   0.00000  Uiso   1.00
C92    C     0.73263   0.05384   0.12694   0.00000  Uiso   1.00
Cu93   Cu    0.75000   0.29822   0.16667   0.00000  Uiso   1.00
Cu94   Cu    0.75000   0.20179   0.16667   0.00000  Uiso   1.00
H95    H     0.78078   0.12404   0.23646   0.00000  Uiso   1.00
H96    H     0.69036   0.46414   0.12287   0.00000  Uiso   1.00
H97    H     0.71950   0.03575   0.09489   0.00000  Uiso   1.00
H98    H     0.80964   0.46414   0.21046   0.00000  Uiso   1.00
H99    H     0.69228   0.37564   0.12277   0.00000  Uiso   1.00
H100   H     0.71922   0.12405   0.09687   0.00000  Uiso   1.00
H101   H     0.80772   0.37564   0.21056   0.00000  Uiso   1.00
H102   H     0.52887   0.31191   0.21463   0.00000  Uiso   1.00
H103   H     0.97186   0.18938   0.21489   0.00000  Uiso   1.00
H104   H     0.97113   0.31190   0.11869   0.00000  Uiso   1.00
H105   H     0.52813   0.18937   0.11849   0.00000  Uiso   1.00
H106   H     0.78050   0.03575   0.23844   0.00000  Uiso   1.00
N107   N     0.75000   0.12935   0.16667   0.00000  Uiso   1.00
N108   N     0.75000   0.37066   0.16667   0.00000  Uiso   1.00
N109   N     0.63284   0.34849   0.24916   0.00000  Uiso   1.00
N110   N     0.86875   0.15247   0.25040   0.00000  Uiso   1.00
N111   N     0.86716   0.34847   0.08414   0.00000  Uiso   1.00
N112   N     0.63124   0.15246   0.08298   0.00000  Uiso   1.00
O113   O     0.68573   0.29072   0.16667   0.00000  Uiso   1.00
O114   O     0.81427   0.20929   0.16666   0.00000  Uiso   1.00
O115   O     0.81427   0.29072   0.16666   0.00000  Uiso   1.00
O116   O     0.68573   0.20929   0.16667   0.00000  Uiso   1.00
O117   O     0.75000   0.29071   0.09613   0.00000  Uiso   1.00
O118   O     0.75000   0.20929   0.23720   0.00000  Uiso   1.00
O119   O     0.75000   0.29071   0.23720   0.00000  Uiso   1.00
O120   O     0.75000   0.20929   0.09613   0.00000  Uiso   1.00
C121   C     0.16491   0.75002   0.16661   0.00000  Uiso   1.00
C122   C     0.28295   0.94605   0.19144   0.00000  Uiso   1.00
C123   C     0.24998   0.75000   0.07351   0.00000  Uiso   1.00
C124   C     0.25002   0.75000   0.25983   0.00000  Uiso   1.00
C125   C     0.25000   0.52726   0.16667   0.00000  Uiso   1.00
C126   C     0.25000   0.97262   0.16667   0.00000  Uiso   1.00
C127   C     0.24999   0.74999   0.02183   0.00000  Uiso   1.00
C128   C     0.25001   0.74999   0.31150   0.00000  Uiso   1.00
C129   C     0.04696   0.78529   0.19354   0.00000  Uiso   1.00
C130   C     0.45345   0.71582   0.19375   0.00000  Uiso   1.00
C131   C     0.45304   0.78528   0.13979   0.00000  Uiso   1.00
C132   C     0.33509   0.75002   0.16673   0.00000  Uiso   1.00
C133   C     0.04655   0.71581   0.13961   0.00000  Uiso   1.00
C134   C     0.09296   0.78517   0.19416   0.00000  Uiso   1.00
C135   C     0.40746   0.71553   0.19440   0.00000  Uiso   1.00
C136   C     0.40704   0.78516   0.13917   0.00000  Uiso   1.00
C137   C     0.09253   0.71553   0.13895   0.00000  Uiso   1.00
C138   C     0.11635   0.75018   0.16662   0.00000  Uiso   1.00
C139   C     0.38365   0.75018   0.16672   0.00000  Uiso   1.00
C140   C     0.02399   0.75062   0.16660   0.00000  Uiso   1.00
C141   C     0.47601   0.75062   0.16675   0.00000  Uiso   1.00
C142   C     0.11511   0.82034   0.22470   0.00000  Uiso   1.00
C143   C     0.26719   0.60458   0.20557   0.00000  Uiso   1.00
C144   C     0.38587   0.68051   0.22542   0.00000  Uiso   1.00
C145   C     0.38489   0.82033   0.10861   0.00000  Uiso   1.00
C146   C     0.11412   0.68050   0.10794   0.00000  Uiso   1.00
C147   C     0.21777   0.89530   0.14217   0.00000  Uiso   1.00
C148   C     0.23280   0.60459   0.12776   0.00000  Uiso   1.00
C149   C     0.28223   0.89530   0.19116   0.00000  Uiso   1.00
C150   C     0.26737   0.55384   0.20639   0.00000  Uiso   1.00
C151   C     0.21705   0.94605   0.14189   0.00000  Uiso   1.00
C152   C     0.23263   0.55384   0.12694   0.00000  Uiso   1.00
Cu153  Cu    0.25000   0.79822   0.16667   0.00000  Uiso   1.00
Cu154  Cu    0.25000   0.70179   0.16667   0.00000  Uiso   1.00
H155   H     0.28078   0.62404   0.23646   0.00000  Uiso   1.00
H156   H     0.19036   0.96414   0.12287   0.00000  Uiso   1.00
H157   H     0.21950   0.53575   0.09489   0.00000  Uiso   1.00
H158   H     0.30964   0.96414   0.21046   0.00000  Uiso   1.00
H159   H     0.19228   0.87564   0.12277   0.00000  Uiso   1.00
H160   H     0.21922   0.62405   0.09687   0.00000  Uiso   1.00
H161   H     0.30772   0.87564   0.21056   0.00000  Uiso   1.00
H162   H     0.02887   0.81191   0.21463   0.00000  Uiso   1.00
H163   H     0.47186   0.68938   0.21489   0.00000  Uiso   1.00
H164   H     0.47113   0.81190   0.11869   0.00000  Uiso   1.00
H165   H     0.02813   0.68937   0.11849   0.00000  Uiso   1.00
H166   H     0.28050   0.53575   0.23844   0.00000  Uiso   1.00
N167   N     0.25000   0.62935   0.16667   0.00000  Uiso   1.00
N168   N     0.25000   0.87066   0.16667   0.00000  Uiso   1.00
N169   N     0.13284   0.84849   0.24916   0.00000  Uiso   1.00
N170   N     0.36875   0.65247   0.25040   0.00000  Uiso   1.00
N171   N     0.36716   0.84847   0.08414   0.00000  Uiso   1.00
N172   N     0.13124   0.65246   0.08298   0.00000  Uiso   1.00
O173   O     0.18573   0.79072   0.16667   0.00000  Uiso   1.00
O174   O     0.31427   0.70929   0.16666   0.00000  Uiso   1.00
O175   O     0.31427   0.79072   0.16666   0.00000  Uiso   1.00
O176   O     0.18573   0.70929   0.16667   0.00000  Uiso   1.00
O177   O     0.25000   0.79071   0.09613   0.00000  Uiso   1.00
O178   O     0.25000   0.70929   0.23720   0.00000  Uiso   1.00
O179   O     0.25000   0.79071   0.23720   0.00000  Uiso   1.00
O180   O     0.25000   0.70929   0.09613   0.00000  Uiso   1.00
C181   C     0.66491   0.75002   0.16661   0.00000  Uiso   1.00
C182   C     0.78295   0.94605   0.19144   0.00000  Uiso   1.00
C183   C     0.74998   0.75000   0.07351   0.00000  Uiso   1.00
C184   C     0.75002   0.75000   0.25983   0.00000  Uiso   1.00
C185   C     0.75000   0.52726   0.16667   0.00000  Uiso   1.00
C186   C     0.75000   0.97262   0.16667   0.00000  Uiso   1.00
C187   C     0.74999   0.74999   0.02183   0.00000  Uiso   1.00
C188   C     0.75001   0.74999   0.31150   0.00000  Uiso   1.00
C189   C     0.54696   0.78529   0.19354   0.00000  Uiso   1.00
C190   C     0.95345   0.71582   0.19375   0.00000  Uiso   1.00
C191   C     0.95304   0.78528   0.13979   0.00000  Uiso   1.00
C192   C     0.83509   0.75002   0.16673   0.00000  Uiso   1.00
C193   C     0.54655   0.71581   0.13961   0.00000  Uiso   1.00
C194   C     0.59296   0.78517   0.19416   0.00000  Uiso   1.00
C195   C     0.90746   0.71553   0.19440   0.00000  Uiso   1.00
C196   C     0.90704   0.78516   0.13917   0.00000  Uiso   1.00
C197   C     0.59253   0.71553   0.13895   0.00000  Uiso   1.00
C198   C     0.61635   0.75018   0.16662   0.00000  Uiso   1.00
C199   C     0.88365   0.75018   0.16672   0.00000  Uiso   1.00
C200   C     0.52399   0.75062   0.16660   0.00000  Uiso   1.00
C201   C     0.97601   0.75062   0.16675   0.00000  Uiso   1.00
C202   C     0.61511   0.82034   0.22470   0.00000  Uiso   1.00
C203   C     0.76719   0.60458   0.20557   0.00000  Uiso   1.00
C204   C     0.88587   0.68051   0.22542   0.00000  Uiso   1.00
C205   C     0.88489   0.82033   0.10861   0.00000  Uiso   1.00
C206   C     0.61412   0.68050   0.10794   0.00000  Uiso   1.00
C207   C     0.71777   0.89530   0.14217   0.00000  Uiso   1.00
C208   C     0.73280   0.60459   0.12776   0.00000  Uiso   1.00
C209   C     0.78223   0.89530   0.19116   0.00000  Uiso   1.00
C210   C     0.76737   0.55384   0.20639   0.00000  Uiso   1.00
C211   C     0.71705   0.94605   0.14189   0.00000  Uiso   1.00
C212   C     0.73263   0.55384   0.12694   0.00000  Uiso   1.00
Cu213  Cu    0.75000   0.79822   0.16667   0.00000  Uiso   1.00
Cu214  Cu    0.75000   0.70179   0.16667   0.00000  Uiso   1.00
H215   H     0.78078   0.62404   0.23646   0.00000  Uiso   1.00
H216   H     0.69036   0.96414   0.12287   0.00000  Uiso   1.00
H217   H     0.71950   0.53575   0.09489   0.00000  Uiso   1.00
H218   H     0.80964   0.96414   0.21046   0.00000  Uiso   1.00
H219   H     0.69228   0.87564   0.12277   0.00000  Uiso   1.00
H220   H     0.71922   0.62405   0.09687   0.00000  Uiso   1.00
H221   H     0.80772   0.87564   0.21056   0.00000  Uiso   1.00
H222   H     0.52887   0.81191   0.21463   0.00000  Uiso   1.00
H223   H     0.97186   0.68938   0.21489   0.00000  Uiso   1.00
H224   H     0.97113   0.81190   0.11869   0.00000  Uiso   1.00
H225   H     0.52813   0.68937   0.11849   0.00000  Uiso   1.00
H226   H     0.78050   0.53575   0.23844   0.00000  Uiso   1.00
N227   N     0.75000   0.62935   0.16667   0.00000  Uiso   1.00
N228   N     0.75000   0.87066   0.16667   0.00000  Uiso   1.00
N229   N     0.63284   0.84849   0.24916   0.00000  Uiso   1.00
N230   N     0.86875   0.65247   0.25040   0.00000  Uiso   1.00
N231   N     0.86716   0.84847   0.08414   0.00000  Uiso   1.00
N232   N     0.63124   0.65246   0.08298   0.00000  Uiso   1.00
O233   O     0.68573   0.79072   0.16667   0.00000  Uiso   1.00
O234   O     0.81427   0.70929   0.16666   0.00000  Uiso   1.00
O235   O     0.81427   0.79072   0.16666   0.00000  Uiso   1.00
O236   O     0.68573   0.70929   0.16667   0.00000  Uiso   1.00
O237   O     0.75000   0.79071   0.09613   0.00000  Uiso   1.00
O238   O     0.75000   0.70929   0.23720   0.00000  Uiso   1.00
O239   O     0.75000   0.79071   0.23720   0.00000  Uiso   1.00
O240   O     0.75000   0.70929   0.09613   0.00000  Uiso   1.00
C241   C     0.16491   0.25002   0.49994   0.00000  Uiso   1.00
C242   C     0.28295   0.44605   0.52477   0.00000  Uiso   1.00
C243   C     0.24998   0.25000   0.40684   0.00000  Uiso   1.00
C244   C     0.25002   0.25000   0.59316   0.00000  Uiso   1.00
C245   C     0.25000   0.02726   0.50000   0.00000  Uiso   1.00
C246   C     0.25000   0.47262   0.50000   0.00000  Uiso   1.00
C247   C     0.24999   0.24999   0.35517   0.00000  Uiso   1.00
C248   C     0.25001   0.24999   0.64483   0.00000  Uiso   1.00
C249   C     0.04696   0.28529   0.52687   0.00000  Uiso   1.00
C250   C     0.45345   0.21582   0.52708   0.00000  Uiso   1.00
C251   C     0.45304   0.28528   0.47312   0.00000  Uiso   1.00
C252   C     0.33509   0.25002   0.50006   0.00000  Uiso   1.00
C253   C     0.04655   0.21581   0.47294   0.00000  Uiso   1.00
C254   C     0.09296   0.28517   0.52749   0.00000  Uiso   1.00
C255   C     0.40746   0.21553   0.52773   0.00000  Uiso   1.00
C256   C     0.40704   0.28516   0.47250   0.00000  Uiso   1.00
C257   C     0.09253   0.21553   0.47229   0.00000  Uiso   1.00
C258   C     0.11635   0.25018   0.49995   0.00000  Uiso   1.00
C259   C     0.38365   0.25018   0.50005   0.00000  Uiso   1.00
C260   C     0.02399   0.25062   0.49993   0.00000  Uiso   1.00
C261   C     0.47601   0.25062   0.50008   0.00000  Uiso   1.00
C262   C     0.11511   0.32034   0.55804   0.00000  Uiso   1.00
C263   C     0.26719   0.10458   0.53891   0.00000  Uiso   1.00
C264   C     0.38587   0.18051   0.55875   0.00000  Uiso   1.00
C265   C     0.38489   0.32033   0.44195   0.00000  Uiso   1.00
C266   C     0.11412   0.18050   0.44128   0.00000  Uiso   1.00
C267   C     0.21777   0.39530   0.47550   0.00000  Uiso   1.00
C268   C     0.23280   0.10459   0.46109   0.00000  Uiso   1.00
C269   C     0.28223   0.39530   0.52450   0.00000  Uiso   1.00
C270   C     0.26737   0.05384   0.53973   0.00000  Uiso   1.00
C271   C     0.21705   0.44605   0.47523   0.00000  Uiso   1.00
C272   C     0.23263   0.05384   0.46027   0.00000  Uiso   1.00
Cu273  Cu    0.25000   0.29822   0.50000   0.00000  Uiso   1.00
Cu274  Cu    0.25000   0.20179   0.50000   0.00000  Uiso   1.00
H275   H     0.28078   0.12404   0.56980   0.00000  Uiso   1.00
H276   H     0.19036   0.46414   0.45621   0.00000  Uiso   1.00
H277   H     0.21950   0.03575   0.42822   0.00000  Uiso   1.00
H278   H     0.30964   0.46414   0.54379   0.00000  Uiso   1.00
H279   H     0.19228   0.37564   0.45611   0.00000  Uiso   1.00
H280   H     0.21922   0.12405   0.43020   0.00000  Uiso   1.00
H281   H     0.30772   0.37564   0.54389   0.00000  Uiso   1.00
H282   H     0.02887   0.31191   0.54796   0.00000  Uiso   1.00
H283   H     0.47186   0.18938   0.54822   0.00000  Uiso   1.00
H284   H     0.47113   0.31190   0.45202   0.00000  Uiso   1.00
H285   H     0.02813   0.18937   0.45182   0.00000  Uiso   1.00
H286   H     0.28050   0.03575   0.57178   0.00000  Uiso   1.00
N287   N     0.25000   0.12935   0.50000   0.00000  Uiso   1.00
N288   N     0.25000   0.37066   0.50000   0.00000  Uiso   1.00
N289   N     0.13284   0.34849   0.58249   0.00000  Uiso   1.00
N290   N     0.36875   0.15247   0.58373   0.00000  Uiso   1.00
N291   N     0.36716   0.34847   0.41748   0.00000  Uiso   1.00
N292   N     0.13124   0.15246   0.41631   0.00000  Uiso   1.00
O293   O     0.18573   0.29072   0.50000   0.00000  Uiso   1.00
O294   O     0.31427   0.20929   0.50000   0.00000  Uiso   1.00
O295   O     0.31427   0.29072   0.50000   0.00000  Uiso   1.00
O296   O     0.18573   0.20929   0.50000   0.00000  Uiso   1.00
O297   O     0.25000   0.29071   0.42946   0.00000  Uiso   1.00
O298   O     0.25000   0.20929   0.57054   0.00000  Uiso   1.00
O299   O     0.25000   0.29071   0.57054   0.00000  Uiso   1.00
O300   O     0.25000   0.20929   0.42946   0.00000  Uiso   1.00
C301   C     0.66491   0.25002   0.49994   0.00000  Uiso   1.00
C302   C     0.78295   0.44605   0.52477   0.00000  Uiso   1.00
C303   C     0.74998   0.25000   0.40684   0.00000  Uiso   1.00
C304   C     0.75002   0.25000   0.59316   0.00000  Uiso   1.00
C305   C     0.75000   0.02726   0.50000   0.00000  Uiso   1.00
C306   C     0.75000   0.47262   0.50000   0.00000  Uiso   1.00
C307   C     0.74999   0.24999   0.35517   0.00000  Uiso   1.00
C308   C     0.75001   0.24999   0.64483   0.00000  Uiso   1.00
C309   C     0.54696   0.28529   0.52687   0.00000  Uiso   1.00
C310   C     0.95345   0.21582   0.52708   0.00000  Uiso   1.00
C311   C     0.95304   0.28528   0.47312   0.00000  Uiso   1.00
C312   C     0.83509   0.25002   0.50006   0.00000  Uiso   1.00
C313   C     0.54655   0.21581   0.47294   0.00000  Uiso   1.00
C314   C     0.59296   0.28517   0.52749   0.00000  Uiso   1.00
C315   C     0.90746   0.21553   0.52773   0.00000  Uiso   1.00
C316   C     0.90704   0.28516   0.47250   0.00000  Uiso   1.00
C317   C     0.59253   0.21553   0.47229   0.00000  Uiso   1.00
C318   C     0.61635   0.25018   0.49995   0.00000  Uiso   1.00
C319   C     0.88365   0.25018   0.50005   0.00000  Uiso   1.00
C320   C     0.52399   0.25062   0.49993   0.00000  Uiso   1.00
C321   C     0.97601   0.25062   0.50008   0.00000  Uiso   1.00
C322   C     0.61511   0.32034   0.55804   0.00000  Uiso   1.00
C323   C     0.76719   0.10458   0.53891   0.00000  Uiso   1.00
C324   C     0.88587   0.18051   0.55875   0.00000  Uiso   1.00
C325   C     0.88489   0.32033   0.44195   0.00000  Uiso   1.00
C326   C     0.61412   0.18050   0.44128   0.00000  Uiso   1.00
C327   C     0.71777   0.39530   0.47550   0.00000  Uiso   1.00
C328   C     0.73280   0.10459   0.46109   0.00000  Uiso   1.00
C329   C     0.78223   0.39530   0.52450   0.00000  Uiso   1.00
C330   C     0.76737   0.05384   0.53973   0.00000  Uiso   1.00
C331   C     0.71705   0.44605   0.47523   0.00000  Uiso   1.00
C332   C     0.73263   0.05384   0.46027   0.00000  Uiso   1.00
Cu333  Cu    0.75000   0.29822   0.50000   0.00000  Uiso   1.00
Cu334  Cu    0.75000   0.20179   0.50000   0.00000  Uiso   1.00
H335   H     0.78078   0.12404   0.56980   0.00000  Uiso   1.00
H336   H     0.69036   0.46414   0.45621   0.00000  Uiso   1.00
H337   H     0.71950   0.03575   0.42822   0.00000  Uiso   1.00
H338   H     0.80964   0.46414   0.54379   0.00000  Uiso   1.00
H339   H     0.69228   0.37564   0.45611   0.00000  Uiso   1.00
H340   H     0.71922   0.12405   0.43020   0.00000  Uiso   1.00
H341   H     0.80772   0.37564   0.54389   0.00000  Uiso   1.00
H342   H     0.52887   0.31191   0.54796   0.00000  Uiso   1.00
H343   H     0.97186   0.18938   0.54822   0.00000  Uiso   1.00
H344   H     0.97113   0.31190   0.45202   0.00000  Uiso   1.00
H345   H     0.52813   0.18937   0.45182   0.00000  Uiso   1.00
H346   H     0.78050   0.03575   0.57178   0.00000  Uiso   1.00
N347   N     0.75000   0.12935   0.50000   0.00000  Uiso   1.00
N348   N     0.75000   0.37066   0.50000   0.00000  Uiso   1.00
N349   N     0.63284   0.34849   0.58249   0.00000  Uiso   1.00
N350   N     0.86875   0.15247   0.58373   0.00000  Uiso   1.00
N351   N     0.86716   0.34847   0.41748   0.00000  Uiso   1.00
N352   N     0.63124   0.15246   0.41631   0.00000  Uiso   1.00
O353   O     0.68573   0.29072   0.50000   0.00000  Uiso   1.00
O354   O     0.81427   0.20929   0.50000   0.00000  Uiso   1.00
O355   O     0.81427   0.29072   0.50000   0.00000  Uiso   1.00
O356   O     0.68573   0.20929   0.50000   0.00000  Uiso   1.00
O357   O     0.75000   0.29071   0.42946   0.00000  Uiso   1.00
O358   O     0.75000   0.20929   0.57054   0.00000  Uiso   1.00
O359   O     0.75000   0.29071   0.57054   0.00000  Uiso   1.00
O360   O     0.75000   0.20929   0.42946   0.00000  Uiso   1.00
C361   C     0.16491   0.75002   0.49994   0.00000  Uiso   1.00
C362   C     0.28295   0.94605   0.52477   0.00000  Uiso   1.00
C363   C     0.24998   0.75000   0.40684   0.00000  Uiso   1.00
C364   C     0.25002   0.75000   0.59316   0.00000  Uiso   1.00
C365   C     0.25000   0.52726   0.50000   0.00000  Uiso   1.00
C366   C     0.25000   0.97262   0.50000   0.00000  Uiso   1.00
C367   C     0.24999   0.74999   0.35517   0.00000  Uiso   1.00
C368   C     0.25001   0.74999   0.64483   0.00000  Uiso   1.00
C369   C     0.04696   0.78529   0.52687   0.00000  Uiso   1.00
C370   C     0.45345   0.71582   0.52708   0.00000  Uiso   1.00
C371   C     0.45304   0.78528   0.47312   0.00000  Uiso   1.00
C372   C     0.33509   0.75002   0.50006   0.00000  Uiso   1.00
C373   C     0.04655   0.71581   0.47294   0.00000  Uiso   1.00
C374   C     0.09296   0.78517   0.52749   0.00000  Uiso   1.00
C375   C     0.40746   0.71553   0.52773   0.00000  Uiso   1.00
C376   C     0.40704   0.78516   0.47250   0.00000  Uiso   1.00
C377   C     0.09253   0.71553   0.47229   0.00000  Uiso   1.00
C378   C     0.11635   0.75018   0.49995   0.00000  Uiso   1.00
C379   C     0.38365   0.75018   0.50005   0.00000  Uiso   1.00
C380   C     0.02399   0.75062   0.49993   0.00000  Uiso   1.00
C381   C     0.47601   0.75062   0.50008   0.00000  Uiso   1.00
C382   C     0.11511   0.82034   0.55804   0.00000  Uiso   1.00
C383   C     0.26719   0.60458   0.53891   0.00000  Uiso   1.00
C384   C     0.38587   0.68051   0.55875   0.00000  Uiso   1.00
C385   C     0.38489   0.82033   0.44195   0.00000  Uiso   1.00
C386   C     0.11412   0.68050   0.44128   0.00000  Uiso   1.00
C387   C     0.21777   0.89530   0.47550   0.00000  Uiso   1.00
C388   C     0.23280   0.60459   0.46109   0.00000  Uiso   1.00
C389   C     0.28223   0.89530   0.52450   0.00000  Uiso   1.00
C390   C     0.26737   0.55384   0.53973   0.00000  Uiso   1.00
C391   C     0.21705   0.94605   0.47523   0.00000  Uiso   1.00
C392   C     0.23263   0.55384   0.46027   0.00000  Uiso   1.00
Cu393  Cu    0.25000   0.79822   0.50000   0.00000  Uiso   1.00
Cu394  Cu    0.25000   0.70179   0.50000   0.00000  Uiso   1.00
H395   H     0.28078   0.62404   0.56980   0.00000  Uiso   1.00
H396   H     0.19036   0.96414   0.45621   0.00000  Uiso   1.00
H397   H     0.21950   0.53575   0.42822   0.00000  Uiso   1.00
H398   H     0.30964   0.96414   0.54379   0.00000  Uiso   1.00
H399   H     0.19228   0.87564   0.45611   0.00000  Uiso   1.00
H400   H     0.21922   0.62405   0.43020   0.00000  Uiso   1.00
H401   H     0.30772   0.87564   0.54389   0.00000  Uiso   1.00
H402   H     0.02887   0.81191   0.54796   0.00000  Uiso   1.00
H403   H     0.47186   0.68938   0.54822   0.00000  Uiso   1.00
H404   H     0.47113   0.81190   0.45202   0.00000  Uiso   1.00
H405   H     0.02813   0.68937   0.45182   0.00000  Uiso   1.00
H406   H     0.28050   0.53575   0.57178   0.00000  Uiso   1.00
N407   N     0.25000   0.62935   0.50000   0.00000  Uiso   1.00
N408   N     0.25000   0.87066   0.50000   0.00000  Uiso   1.00
N409   N     0.13284   0.84849   0.58249   0.00000  Uiso   1.00
N410   N     0.36875   0.65247   0.58373   0.00000  Uiso   1.00
N411   N     0.36716   0.84847   0.41748   0.00000  Uiso   1.00
N412   N     0.13124   0.65246   0.41631   0.00000  Uiso   1.00
O413   O     0.18573   0.79072   0.50000   0.00000  Uiso   1.00
O414   O     0.31427   0.70929   0.50000   0.00000  Uiso   1.00
O415   O     0.31427   0.79072   0.50000   0.00000  Uiso   1.00
O416   O     0.18573   0.70929   0.50000   0.00000  Uiso   1.00
O417   O     0.25000   0.79071   0.42946   0.00000  Uiso   1.00
O418   O     0.25000   0.70929   0.57054   0.00000  Uiso   1.00
O419   O     0.25000   0.79071   0.57054   0.00000  Uiso   1.00
O420   O     0.25000   0.70929   0.42946   0.00000  Uiso   1.00
C421   C     0.66491   0.75002   0.49994   0.00000  Uiso   1.00
C422   C     0.78295   0.94605   0.52477   0.00000  Uiso   1.00
C423   C     0.74998   0.75000   0.40684   0.00000  Uiso   1.00
C424   C     0.75002   0.75000   0.59316   0.00000  Uiso   1.00
C425   C     0.75000   0.52726   0.50000   0.00000  Uiso   1.00
C426   C     0.75000   0.97262   0.50000   0.00000  Uiso   1.00
C427   C     0.74999   0.74999   0.35517   0.00000  Uiso   1.00
C428   C     0.75001   0.74999   0.64483   0.00000  Uiso   1.00
C429   C     0.54696   0.78529   0.52687   0.00000  Uiso   1.00
C430   C     0.95345   0.71582   0.52708   0.00000  Uiso   1.00
C431   C     0.95304   0.78528   0.47312   0.00000  Uiso   1.00
C432   C     0.83509   0.75002   0.50006   0.00000  Uiso   1.00
C433   C     0.54655   0.71581   0.47294   0.00000  Uiso   1.00
C434   C     0.59296   0.78517   0.52749   0.00000  Uiso   1.00
C435   C     0.90746   0.71553   0.52773   0.00000  Uiso   1.00
C436   C     0.90704   0.78516   0.47250   0.00000  Uiso   1.00
C437   C     0.59253   0.71553   0.47229   0.00000  Uiso   1.00
C438   C     0.61635   0.75018   0.49995   0.00000  Uiso   1.00
C439   C     0.88365   0.75018   0.50005   0.00000  Uiso   1.00
C440   C     0.52399   0.75062   0.49993   0.00000  Uiso   1.00
C441   C     0.97601   0.75062   0.50008   0.00000  Uiso   1.00
C442   C     0.61511   0.82034   0.55804   0.00000  Uiso   1.00
C443   C     0.76719   0.60458   0.53891   0.00000  Uiso   1.00
C444   C     0.88587   0.68051   0.55875   0.00000  Uiso   1.00
C445   C     0.88489   0.82033   0.44195   0.00000  Uiso   1.00
C446   C     0.61412   0.68050   0.44128   0.00000  Uiso   1.00
C447   C     0.71777   0.89530   0.47550   0.00000  Uiso   1.00
C448   C     0.73280   0.60459   0.46109   0.00000  Uiso   1.00
C449   C     0.78223   0.89530   0.52450   0.00000  Uiso   1.00
C450   C     0.76737   0.55384   0.53973   0.00000  Uiso   1.00
C451   C     0.71705   0.94605   0.47523   0.00000  Uiso   1.00
C452   C     0.73263   0.55384   0.46027   0.00000  Uiso   1.00
Cu453  Cu    0.75000   0.79822   0.50000   0.00000  Uiso   1.00
Cu454  Cu    0.75000   0.70179   0.50000   0.00000  Uiso   1.00
H455   H     0.78078   0.62404   0.56980   0.00000  Uiso   1.00
H456   H     0.69036   0.96414   0.45621   0.00000  Uiso   1.00
H457   H     0.71950   0.53575   0.42822   0.00000  Uiso   1.00
H458   H     0.80964   0.96414   0.54379   0.00000  Uiso   1.00
H459   H     0.69228   0.87564   0.45611   0.00000  Uiso   1.00
H460   H     0.71922   0.62405   0.43020   0.00000  Uiso   1.00
H461   H     0.80772   0.87564   0.54389   0.00000  Uiso   1.00
H462   H     0.52887   0.81191   0.54796   0.00000  Uiso   1.00
H463   H     0.97186   0.68938   0.54822   0.00000  Uiso   1.00
H464   H     0.97113   0.81190   0.45202   0.00000  Uiso   1.00
H465   H     0.52813   0.68937   0.45182   0.00000  Uiso   1.00
H466   H     0.78050   0.53575   0.57178   0.00000  Uiso   1.00
N467   N     0.75000   0.62935   0.50000   0.00000  Uiso   1.00
N468   N     0.75000   0.87066   0.50000   0.00000  Uiso   1.00
N469   N     0.63284   0.84849   0.58249   0.00000  Uiso   1.00
N470   N     0.86875   0.65247   0.58373   0.00000  Uiso   1.00
N471   N     0.86716   0.84847   0.41748   0.00000  Uiso   1.00
N472   N     0.63124   0.65246   0.41631   0.00000  Uiso   1.00
O473   O     0.68573   0.79072   0.50000   0.00000  Uiso   1.00
O474   O     0.81427   0.70929   0.50000   0.00000  Uiso   1.00
O475   O     0.81427   0.79072   0.50000   0.00000  Uiso   1.00
O476   O     0.68573   0.70929   0.50000   0.00000  Uiso   1.00
O477   O     0.75000   0.79071   0.42946   0.00000  Uiso   1.00
O478   O     0.75000   0.70929   0.57054   0.00000  Uiso   1.00
O479   O     0.75000   0.79071   0.57054   0.00000  Uiso   1.00
O480   O     0.75000   0.70929   0.42946   0.00000  Uiso   1.00
C481   C     0.16491   0.25002   0.83327   0.00000  Uiso   1.00
C482   C     0.28295   0.44605   0.85811   0.00000  Uiso   1.00
C483   C     0.24998   0.25000   0.74017   0.00000  Uiso   1.00
C484   C     0.25002   0.25000   0.92649   0.00000  Uiso   1.00
C485   C     0.25000   0.02726   0.83333   0.00000  Uiso   1.00
C486   C     0.25000   0.47262   0.83333   0.00000  Uiso   1.00
C487   C     0.24999   0.24999   0.68850   0.00000  Uiso   1.00
C488   C     0.25001   0.24999   0.97816   0.00000  Uiso   1.00
C489   C     0.04696   0.28529   0.86021   0.00000  Uiso   1.00
C490   C     0.45345   0.21582   0.86042   0.00000  Uiso   1.00
C491   C     0.45304   0.28528   0.80646   0.00000  Uiso   1.00
C492   C     0.33509   0.25002   0.83339   0.00000  Uiso   1.00
C493   C     0.04655   0.21581   0.80628   0.00000  Uiso   1.00
C494   C     0.09296   0.28517   0.86083   0.00000  Uiso   1.00
C495   C     0.40746   0.21553   0.86107   0.00000  Uiso   1.00
C496   C     0.40704   0.28516   0.80583   0.00000  Uiso   1.00
C497   C     0.09253   0.21553   0.80562   0.00000  Uiso   1.00
C498   C     0.11635   0.25018   0.83328   0.00000  Uiso   1.00
C499   C     0.38365   0.25018   0.83339   0.00000  Uiso   1.00
C500   C     0.02399   0.25062   0.83327   0.00000  Uiso   1.00
C501   C     0.47601   0.25062   0.83341   0.00000  Uiso   1.00
C502   C     0.11511   0.32034   0.89137   0.00000  Uiso   1.00
C503   C     0.26719   0.10458   0.87224   0.00000  Uiso   1.00
C504   C     0.38587   0.18051   0.89209   0.00000  Uiso   1.00
C505   C     0.38489   0.32033   0.77528   0.00000  Uiso   1.00
C506   C     0.11412   0.18050   0.77461   0.00000  Uiso   1.00
C507   C     0.21777   0.39530   0.80884   0.00000  Uiso   1.00
C508   C     0.23280   0.10459   0.79443   0.00000  Uiso   1.00
C509   C     0.28223   0.39530   0.85783   0.00000  Uiso   1.00
C510   C     0.26737   0.05384   0.87306   0.00000  Uiso   1.00
C511   C     0.21705   0.44605   0.80856   0.00000  Uiso   1.00
C512   C     0.23263   0.05384   0.79360   0.00000  Uiso   1.00
Cu513  Cu    0.25000   0.29822   0.83333   0.00000  Uiso   1.00
Cu514  Cu    0.25000   0.20179   0.83333   0.00000  Uiso   1.00
H515   H     0.28078   0.12404   0.90313   0.00000  Uiso   1.00
H516   H     0.19036   0.46414   0.78954   0.00000  Uiso   1.00
H517   H     0.21950   0.03575   0.76156   0.00000  Uiso   1.00
H518   H     0.30964   0.46414   0.87712   0.00000  Uiso   1.00
H519   H     0.19228   0.37564   0.78944   0.00000  Uiso   1.00
H520   H     0.21922   0.12405   0.76354   0.00000  Uiso   1.00
H521   H     0.30772   0.37564   0.87722   0.00000  Uiso   1.00
H522   H     0.02887   0.31191   0.88130   0.00000  Uiso   1.00
H523   H     0.47186   0.18938   0.88155   0.00000  Uiso   1.00
H524   H     0.47113   0.31190   0.78536   0.00000  Uiso   1.00
H525   H     0.02813   0.18937   0.78515   0.00000  Uiso   1.00
H526   H     0.28050   0.03575   0.90511   0.00000  Uiso   1.00
N527   N     0.25000   0.12935   0.83333   0.00000  Uiso   1.00
N528   N     0.25000   0.37066   0.83333   0.00000  Uiso   1.00
N529   N     0.13284   0.34849   0.91583   0.00000  Uiso   1.00
N530   N     0.36875   0.15247   0.91706   0.00000  Uiso   1.00
N531   N     0.36716   0.34847   0.75081   0.00000  Uiso   1.00
N532   N     0.13124   0.15246   0.74964   0.00000  Uiso   1.00
O533   O     0.18573   0.29072   0.83334   0.00000  Uiso   1.00
O534   O     0.31427   0.20929   0.83333   0.00000  Uiso   1.00
O535   O     0.31427   0.29072   0.83333   0.00000  Uiso   1.00
O536   O     0.18573   0.20929   0.83334   0.00000  Uiso   1.00
O537   O     0.25000   0.29071   0.76280   0.00000  Uiso   1.00
O538   O     0.25000   0.20929   0.90387   0.00000  Uiso   1.00
O539   O     0.25000   0.29071   0.90387   0.00000  Uiso   1.00
O540   O     0.25000   0.20929   0.76280   0.00000  Uiso   1.00
C541   C     0.66491   0.25002   0.83327   0.00000  Uiso   1.00
C542   C     0.78295   0.44605   0.85811   0.00000  Uiso   1.00
C543   C     0.74998   0.25000   0.74017   0.00000  Uiso   1.00
C544   C     0.75002   0.25000   0.92649   0.00000  Uiso   1.00
C545   C     0.75000   0.02726   0.83333   0.00000  Uiso   1.00
C546   C     0.75000   0.47262   0.83333   0.00000  Uiso   1.00
C547   C     0.74999   0.24999   0.68850   0.00000  Uiso   1.00
C548   C     0.75001   0.24999   0.97816   0.00000  Uiso   1.00
C549   C     0.54696   0.28529   0.86021   0.00000  Uiso   1.00
C550   C     0.95345   0.21582   0.86042   0.00000  Uiso   1.00
C551   C     0.95304   0.28528   0.80646   0.00000  Uiso   1.00
C552   C     0.83509   0.25002   0.83339   0.00000  Uiso   1.00
C553   C     0.54655   0.21581   0.80628   0.00000  Uiso   1.00
C554   C     0.59296   0.28517   0.86083   0.00000  Uiso   1.00
C555   C     0.90746   0.21553   0.86107   0.00000  Uiso   1.00
C556   C     0.90704   0.28516   0.80583   0.00000  Uiso   1.00
C557   C     0.59253   0.21553   0.80562   0.00000  Uiso   1.00
C558   C     0.61635   0.25018   0.83328   0.00000  Uiso   1.00
C559   C     0.88365   0.25018   0.83339   0.00000  Uiso   1.00
C560   C     0.52399   0.25062   0.83327   0.00000  Uiso   1.00
C561   C     0.97601   0.25062   0.83341   0.00000  Uiso   1.00
C562   C     0.61511   0.32034   0.89137   0.00000  Uiso   1.00
C563   C     0.76719   0.10458   0.87224   0.00000  Uiso   1.00
C564   C     0.88587   0.18051   0.89209   0.00000  Uiso   1.00
C565   C     0.88489   0.32033   0.77528   0.00000  Uiso   1.00
C566   C     0.61412   0.18050   0.77461   0.00000  Uiso   1.00
C567   C     0.71777   0.39530   0.80884   0.00000  Uiso   1.00
C568   C     0.73280   0.10459   0.79443   0.00000  Uiso   1.00
C569   C     0.78223   0.39530   0.85783   0.00000  Uiso   1.00
C570   C     0.76737   0.05384   0.87306   0.00000  Uiso   1.00
C571   C     0.71705   0.44605   0.80856   0.00000  Uiso   1.00
C572   C     0.73263   0.05384   0.79360   0.00000  Uiso   1.00
Cu573  Cu    0.75000   0.29822   0.83333   0.00000  Uiso   1.00
Cu574  Cu    0.75000   0.20179   0.83333   0.00000  Uiso   1.00
H575   H     0.78078   0.12404   0.90313   0.00000  Uiso   1.00
H576   H     0.69036   0.46414   0.78954   0.00000  Uiso   1.00
H577   H     0.71950   0.03575   0.76156   0.00000  Uiso   1.00
H578   H     0.80964   0.46414   0.87712   0.00000  Uiso   1.00
H579   H     0.69228   0.37564   0.78944   0.00000  Uiso   1.00
H580   H     0.71922   0.12405   0.76354   0.00000  Uiso   1.00
H581   H     0.80772   0.37564   0.87722   0.00000  Uiso   1.00
H582   H     0.52887   0.31191   0.88130   0.00000  Uiso   1.00
H583   H     0.97186   0.18938   0.88155   0.00000  Uiso   1.00
H584   H     0.97113   0.31190   0.78536   0.00000  Uiso   1.00
H585   H     0.52813   0.18937   0.78515   0.00000  Uiso   1.00
H586   H     0.78050   0.03575   0.90511   0.00000  Uiso   1.00
N587   N     0.75000   0.12935   0.83333   0.00000  Uiso   1.00
N588   N     0.75000   0.37066   0.83333   0.00000  Uiso   1.00
N589   N     0.63284   0.34849   0.91583   0.00000  Uiso   1.00
N590   N     0.86875   0.15247   0.91706   0.00000  Uiso   1.00
N591   N     0.86716   0.34847   0.75081   0.00000  Uiso   1.00
N592   N     0.63124   0.15246   0.74964   0.00000  Uiso   1.00
O593   O     0.68573   0.29072   0.83334   0.00000  Uiso   1.00
O594   O     0.81427   0.20929   0.83333   0.00000  Uiso   1.00
O595   O     0.81427   0.29072   0.83333   0.00000  Uiso   1.00
O596   O     0.68573   0.20929   0.83334   0.00000  Uiso   1.00
O597   O     0.75000   0.29071   0.76280   0.00000  Uiso   1.00
O598   O     0.75000   0.20929   0.90387   0.00000  Uiso   1.00
O599   O     0.75000   0.29071   0.90387   0.00000  Uiso   1.00
O600   O     0.75000   0.20929   0.76280   0.00000  Uiso   1.00
C601   C     0.16491   0.75002   0.83327   0.00000  Uiso   1.00
C602   C     0.28295   0.94605   0.85811   0.00000  Uiso   1.00
C603   C     0.24998   0.75000   0.74017   0.00000  Uiso   1.00
C604   C     0.25002   0.75000   0.92649   0.00000  Uiso   1.00
C605   C     0.25000   0.52726   0.83333   0.00000  Uiso   1.00
C606   C     0.25000   0.97262   0.83333   0.00000  Uiso   1.00
C607   C     0.24999   0.74999   0.68850   0.00000  Uiso   1.00
C608   C     0.25001   0.74999   0.97816   0.00000  Uiso   1.00
C609   C     0.04696   0.78529   0.86021   0.00000  Uiso   1.00
C610   C     0.45345   0.71582   0.86042   0.00000  Uiso   1.00
C611   C     0.45304   0.78528   0.80646   0.00000  Uiso   1.00
C612   C     0.33509   0.75002   0.83339   0.00000  Uiso   1.00
C613   C     0.04655   0.71581   0.80628   0.00000  Uiso   1.00
C614   C     0.09296   0.78517   0.86083   0.00000  Uiso   1.00
C615   C     0.40746   0.71553   0.86107   0.00000  Uiso   1.00
C616   C     0.40704   0.78516   0.80583   0.00000  Uiso   1.00
C617   C     0.09253   0.71553   0.80562   0.00000  Uiso   1.00
C618   C     0.11635   0.75018   0.83328   0.00000  Uiso   1.00
C619   C     0.38365   0.75018   0.83339   0.00000  Uiso   1.00
C620   C     0.02399   0.75062   0.83327   0.00000  Uiso   1.00
C621   C     0.47601   0.75062   0.83341   0.00000  Uiso   1.00
C622   C     0.11511   0.82034   0.89137   0.00000  Uiso   1.00
C623   C     0.26719   0.60458   0.87224   0.00000  Uiso   1.00
C624   C     0.38587   0.68051   0.89209   0.00000  Uiso   1.00
C625   C     0.38489   0.82033   0.77528   0.00000  Uiso   1.00
C626   C     0.11412   0.68050   0.77461   0.00000  Uiso   1.00
C627   C     0.21777   0.89530   0.80884   0.00000  Uiso   1.00
C628   C     0.23280   0.60459   0.79443   0.00000  Uiso   1.00
C629   C     0.28223   0.89530   0.85783   0.00000  Uiso   1.00
C630   C     0.26737   0.55384   0.87306   0.00000  Uiso   1.00
C631   C     0.21705   0.94605   0.80856   0.00000  Uiso   1.00
C632   C     0.23263   0.55384   0.79360   0.00000  Uiso   1.00
Cu633  Cu    0.25000   0.79822   0.83333   0.00000  Uiso   1.00
Cu634  Cu    0.25000   0.70179   0.83333   0.00000  Uiso   1.00
H635   H     0.28078   0.62404   0.90313   0.00000  Uiso   1.00
H636   H     0.19036   0.96414   0.78954   0.00000  Uiso   1.00
H637   H     0.21950   0.53575   0.76156   0.00000  Uiso   1.00
H638   H     0.30964   0.96414   0.87712   0.00000  Uiso   1.00
H639   H     0.19228   0.87564   0.78944   0.00000  Uiso   1.00
H640   H     0.21922   0.62405   0.76354   0.00000  Uiso   1.00
H641   H     0.30772   0.87564   0.87722   0.00000  Uiso   1.00
H642   H     0.02887   0.81191   0.88130   0.00000  Uiso   1.00
H643   H     0.47186   0.68938   0.88155   0.00000  Uiso   1.00
H644   H     0.47113   0.81190   0.78536   0.00000  Uiso   1.00
H645   H     0.02813   0.68937   0.78515   0.00000  Uiso   1.00
H646   H     0.28050   0.53575   0.90511   0.00000  Uiso   1.00
N647   N     0.25000   0.62935   0.83333   0.00000  Uiso   1.00
N648   N     0.25000   0.87066   0.83333   0.00000  Uiso   1.00
N649   N     0.13284   0.84849   0.91583   0.00000  Uiso   1.00
N650   N     0.36875   0.65247   0.91706   0.00000  Uiso   1.00
N651   N     0.36716   0.84847   0.75081   0.00000  Uiso   1.00
N652   N     0.13124   0.65246   0.74964   0.00000  Uiso   1.00
O653   O     0.18573   0.79072   0.83334   0.00000  Uiso   1.00
O654   O     0.31427   0.70929   0.83333   0.00000  Uiso   1.00
O655   O     0.31427   0.79072   0.83333   0.00000  Uiso   1.00
O656   O     0.18573   0.70929   0.83334   0.00000  Uiso   1.00
O657   O     0.25000   0.79071   0.76280   0.00000  Uiso   1.00
O658   O     0.25000   0.70929   0.90387   0.00000  Uiso   1.00
O659   O     0.25000   0.79071   0.90387   0.00000  Uiso   1.00
O660   O     0.25000   0.70929   0.76280   0.00000  Uiso   1.00
C661   C     0.66491   0.75002   0.83327   0.00000  Uiso   1.00
C662   C     0.78295   0.94605   0.85811   0.00000  Uiso   1.00
C663   C     0.74998   0.75000   0.74017   0.00000  Uiso   1.00
C664   C     0.75002   0.75000   0.92649   0.00000  Uiso   1.00
C665   C     0.75000   0.52726   0.83333   0.00000  Uiso   1.00
C666   C     0.75000   0.97262   0.83333   0.00000  Uiso   1.00
C667   C     0.74999   0.74999   0.68850   0.00000  Uiso   1.00
C668   C     0.75001   0.74999   0.97816   0.00000  Uiso   1.00
C669   C     0.54696   0.78529   0.86021   0.00000  Uiso   1.00
C670   C     0.95345   0.71582   0.86042   0.00000  Uiso   1.00
C671   C     0.95304   0.78528   0.80646   0.00000  Uiso   1.00
C672   C     0.83509   0.75002   0.83339   0.00000  Uiso   1.00
C673   C     0.54655   0.71581   0.80628   0.00000  Uiso   1.00
C674   C     0.59296   0.78517   0.86083   0.00000  Uiso   1.00
C675   C     0.90746   0.71553   0.86107   0.00000  Uiso   1.00
C676   C     0.90704   0.78516   0.80583   0.00000  Uiso   1.00
C677   C     0.59253   0.71553   0.80562   0.00000  Uiso   1.00
C678   C     0.61635   0.75018   0.83328   0.00000  Uiso   1.00
C679   C     0.88365   0.75018   0.83339   0.00000  Uiso   1.00
C680   C     0.52399   0.75062   0.83327   0.00000  Uiso   1.00
C681   C     0.97601   0.75062   0.83341   0.00000  Uiso   1.00
C682   C     0.61511   0.82034   0.89137   0.00000  Uiso   1.00
C683   C     0.76719   0.60458   0.87224   0.00000  Uiso   1.00
C684   C     0.88587   0.68051   0.89209   0.00000  Uiso   1.00
C685   C     0.88489   0.82033   0.77528   0.00000  Uiso   1.00
C686   C     0.61412   0.68050   0.77461   0.00000  Uiso   1.00
C687   C     0.71777   0.89530   0.80884   0.00000  Uiso   1.00
C688   C     0.73280   0.60459   0.79443   0.00000  Uiso   1.00
C689   C     0.78223   0.89530   0.85783   0.00000  Uiso   1.00
C690   C     0.76737   0.55384   0.87306   0.00000  Uiso   1.00
C691   C     0.71705   0.94605   0.80856   0.00000  Uiso   1.00
C692   C     0.73263   0.55384   0.79360   0.00000  Uiso   1.00
Cu693  Cu    0.75000   0.79822   0.83333   0.00000  Uiso   1.00
Cu694  Cu    0.75000   0.70179   0.83333   0.00000  Uiso   1.00
H695   H     0.78078   0.62404   0.90313   0.00000  Uiso   1.00
H696   H     0.69036   0.96414   0.78954   0.00000  Uiso   1.00
H697   H     0.71950   0.53575   0.76156   0.00000  Uiso   1.00
H698   H     0.80964   0.96414   0.87712   0.00000  Uiso   1.00
H699   H     0.69228   0.87564   0.78944   0.00000  Uiso   1.00
H700   H     0.71922   0.62405   0.76354   0.00000  Uiso   1.00
H701   H     0.80772   0.87564   0.87722   0.00000  Uiso   1.00
H702   H     0.52887   0.81191   0.88130   0.00000  Uiso   1.00
H703   H     0.97186   0.68938   0.88155   0.00000  Uiso   1.00
H704   H     0.97113   0.81190   0.78536   0.00000  Uiso   1.00
H705   H     0.52813   0.68937   0.78515   0.00000  Uiso   1.00
H706   H     0.78050   0.53575   0.90511   0.00000  Uiso   1.00
N707   N     0.75000   0.62935   0.83333   0.00000  Uiso   1.00
N708   N     0.75000   0.87066   0.83333   0.00000  Uiso   1.00
N709   N     0.63284   0.84849   0.91583   0.00000  Uiso   1.00
N710   N     0.86875   0.65247   0.91706   0.00000  Uiso   1.00
N711   N     0.86716   0.84847   0.75081   0.00000  Uiso   1.00
N712   N     0.63124   0.65246   0.74964   0.00000  Uiso   1.00
O713   O     0.68573   0.79072   0.83334   0.00000  Uiso   1.00
O714   O     0.81427   0.70929   0.83333   0.00000  Uiso   1.00
O715   O     0.81427   0.79072   0.83333   0.00000  Uiso   1.00
O716   O     0.68573   0.70929   0.83334   0.00000  Uiso   1.00
O717   O     0.75000   0.79071   0.76280   0.00000  Uiso   1.00
O718   O     0.75000   0.70929   0.90387   0.00000  Uiso   1.00
O719   O     0.75000   0.79071   0.90387   0.00000  Uiso   1.00
O720   O     0.75000   0.70929   0.76280   0.00000  Uiso   1.00
loop_
_geom_bond_atom_site_label_1
_geom_bond_atom_site_label_2
_geom_bond_distance
_geom_bond_site_symmetry_2
_ccdc_geom_bond_type
C1     C18     1.470   .     S
C1     O56     1.294   .     A
C1     O53     1.293   .     A
C2     H38     1.082   .     S
C2     C6      1.411   .     A
C2     C29     1.407   .     A
C3     C7      1.408   .     S
C3     O60     1.286   .     A
C3     O57     1.286   .     A
C4     C8      1.408   .     S
C4     O59     1.286   .     A
C4     O58     1.286   .     A
C5     C32     1.410   .     A
C5     C30     1.410   .     A
C5     C126    1.515   1_545 S
C6     C31     1.411   .     A
C6     C125    1.515   .     S
C7     C488    1.190   1_554 S
C8     C247    1.190   .     S
C9     C14     1.393   .     A
C9     C20     1.394   .     A
C9     H42     1.085   .     S
C10    C15     1.393   .     A
C10    C21     1.394   .     A
C10    H43     1.085   .     S
C11    C16     1.393   .     A
C11    C21     1.394   .     A
C11    H44     1.085   .     S
C12    C19     1.470   .     S
C12    O55     1.293   .     A
C12    O54     1.294   .     A
C13    H45     1.085   .     S
C13    C17     1.393   .     A
C13    C20     1.394   .     A
C14    C18     1.418   .     A
C14    C22     1.446   .     S
C15    C24     1.445   .     S
C15    C19     1.417   .     A
C16    C19     1.418   .     A
C16    C25     1.446   .     S
C17    C18     1.417   .     A
C17    C26     1.445   .     S
C20    C81     1.453   1_455 S
C21    C80     1.453   .     S
C22    N49     1.157   .     T
C23    H35     1.080   .     S
C23    N47     1.365   .     A
C23    C30     1.407   .     A
C24    N50     1.157   .     T
C25    N51     1.157   .     T
C26    N52     1.157   .     T
C27    N48     1.364   .     A
C27    C31     1.407   .     A
C27    H39     1.081   .     S
C28    N47     1.365   .     A
C28    C32     1.407   .     A
C28    H40     1.080   .     S
C29    N48     1.364   .     A
C29    H41     1.081   .     S
C30    H46     1.082   .     S
C31    H36     1.082   .     S
C32    H37     1.082   .     S
Cu33   O55     1.957   .     S
Cu33   O53     1.957   .     S
Cu33   O59     1.933   .     S
Cu33   O57     1.933   .     S
Cu33   Cu34    2.674   .     S
Cu33   N48     2.009   .     S
Cu34   O56     1.957   .     S
Cu34   O60     1.933   .     S
Cu34   O54     1.957   .     S
Cu34   O58     1.933   .     S
Cu34   N47     2.009   .     S
C61    C78     1.470   .     S
C61    O116    1.294   .     A
C61    O113    1.293   .     A
C62    H98     1.082   .     S
C62    C66     1.411   .     A
C62    C89     1.407   .     A
C63    C67     1.408   .     S
C63    O120    1.286   .     A
C63    O117    1.286   .     A
C64    C68     1.408   .     S
C64    O119    1.286   .     A
C64    O118    1.286   .     A
C65    C92     1.410   .     A
C65    C90     1.410   .     A
C65    C186    1.515   1_545 S
C66    C91     1.411   .     A
C66    C185    1.515   .     S
C67    C548    1.190   1_554 S
C68    C307    1.190   .     S
C69    C74     1.393   .     A
C69    C80     1.394   .     A
C69    H102    1.085   .     S
C70    C75     1.393   .     A
C70    C81     1.394   .     A
C70    H103    1.085   .     S
C71    C76     1.393   .     A
C71    C81     1.394   .     A
C71    H104    1.085   .     S
C72    C79     1.470   .     S
C72    O115    1.293   .     A
C72    O114    1.294   .     A
C73    H105    1.085   .     S
C73    C77     1.393   .     A
C73    C80     1.394   .     A
C74    C78     1.418   .     A
C74    C82     1.446   .     S
C75    C84     1.445   .     S
C75    C79     1.417   .     A
C76    C79     1.418   .     A
C76    C85     1.446   .     S
C77    C78     1.417   .     A
C77    C86     1.445   .     S
C81    C20     1.453   1_655 S
C82    N109    1.157   .     T
C83    H95     1.080   .     S
C83    N107    1.365   .     A
C83    C90     1.407   .     A
C84    N110    1.157   .     T
C85    N111    1.157   .     T
C86    N112    1.157   .     T
C87    N108    1.364   .     A
C87    C91     1.407   .     A
C87    H99     1.081   .     S
C88    N107    1.365   .     A
C88    C92     1.407   .     A
C88    H100    1.080   .     S
C89    N108    1.364   .     A
C89    H101    1.081   .     S
C90    H106    1.082   .     S
C91    H96     1.082   .     S
C92    H97     1.082   .     S
Cu93   O115    1.957   .     S
Cu93   O113    1.957   .     S
Cu93   O119    1.933   .     S
Cu93   O117    1.933   .     S
Cu93   Cu94    2.674   .     S
Cu93   N108    2.009   .     S
Cu94   O116    1.957   .     S
Cu94   O120    1.933   .     S
Cu94   O114    1.957   .     S
Cu94   O118    1.933   .     S
Cu94   N107    2.009   .     S
C121   C138    1.470   .     S
C121   O176    1.294   .     A
C121   O173    1.293   .     A
C122   H158    1.082   .     S
C122   C126    1.411   .     A
C122   C149    1.407   .     A
C123   C127    1.408   .     S
C123   O180    1.286   .     A
C123   O177    1.286   .     A
C124   C128    1.408   .     S
C124   O179    1.286   .     A
C124   O178    1.286   .     A
C125   C152    1.410   .     A
C125   C150    1.410   .     A
C126   C151    1.411   .     A
C126   C5      1.515   1_565 S
C127   C608    1.190   1_554 S
C128   C367    1.190   .     S
C129   C134    1.393   .     A
C129   C140    1.394   .     A
C129   H162    1.085   .     S
C130   C135    1.393   .     A
C130   C141    1.394   .     A
C130   H163    1.085   .     S
C131   C136    1.393   .     A
C131   C141    1.394   .     A
C131   H164    1.085   .     S
C132   C139    1.470   .     S
C132   O175    1.293   .     A
C132   O174    1.294   .     A
C133   H165    1.085   .     S
C133   C137    1.393   .     A
C133   C140    1.394   .     A
C134   C138    1.418   .     A
C134   C142    1.446   .     S
C135   C144    1.445   .     S
C135   C139    1.417   .     A
C136   C139    1.418   .     A
C136   C145    1.446   .     S
C137   C138    1.417   .     A
C137   C146    1.445   .     S
C140   C201    1.453   1_455 S
C141   C200    1.453   .     S
C142   N169    1.157   .     T
C143   H155    1.080   .     S
C143   N167    1.365   .     A
C143   C150    1.407   .     A
C144   N170    1.157   .     T
C145   N171    1.157   .     T
C146   N172    1.157   .     T
C147   N168    1.364   .     A
C147   C151    1.407   .     A
C147   H159    1.081   .     S
C148   N167    1.365   .     A
C148   C152    1.407   .     A
C148   H160    1.080   .     S
C149   N168    1.364   .     A
C149   H161    1.081   .     S
C150   H166    1.082   .     S
C151   H156    1.082   .     S
C152   H157    1.082   .     S
Cu153  O175    1.957   .     S
Cu153  O173    1.957   .     S
Cu153  O179    1.933   .     S
Cu153  O177    1.933   .     S
Cu153  Cu154   2.674   .     S
Cu153  N168    2.009   .     S
Cu154  O176    1.957   .     S
Cu154  O180    1.933   .     S
Cu154  O174    1.957   .     S
Cu154  O178    1.933   .     S
Cu154  N167    2.009   .     S
C181   C198    1.470   .     S
C181   O236    1.294   .     A
C181   O233    1.293   .     A
C182   H218    1.082   .     S
C182   C186    1.411   .     A
C182   C209    1.407   .     A
C183   C187    1.408   .     S
C183   O240    1.286   .     A
C183   O237    1.286   .     A
C184   C188    1.408   .     S
C184   O239    1.286   .     A
C184   O238    1.286   .     A
C185   C212    1.410   .     A
C185   C210    1.410   .     A
C186   C211    1.411   .     A
C186   C65     1.515   1_565 S
C187   C668    1.190   1_554 S
C188   C427    1.190   .     S
C189   C194    1.393   .     A
C189   C200    1.394   .     A
C189   H222    1.085   .     S
C190   C195    1.393   .     A
C190   C201    1.394   .     A
C190   H223    1.085   .     S
C191   C196    1.393   .     A
C191   C201    1.394   .     A
C191   H224    1.085   .     S
C192   C199    1.470   .     S
C192   O235    1.293   .     A
C192   O234    1.294   .     A
C193   H225    1.085   .     S
C193   C197    1.393   .     A
C193   C200    1.394   .     A
C194   C198    1.418   .     A
C194   C202    1.446   .     S
C195   C204    1.445   .     S
C195   C199    1.417   .     A
C196   C199    1.418   .     A
C196   C205    1.446   .     S
C197   C198    1.417   .     A
C197   C206    1.445   .     S
C201   C140    1.453   1_655 S
C202   N229    1.157   .     T
C203   H215    1.080   .     S
C203   N227    1.365   .     A
C203   C210    1.407   .     A
C204   N230    1.157   .     T
C205   N231    1.157   .     T
C206   N232    1.157   .     T
C207   N228    1.364   .     A
C207   C211    1.407   .     A
C207   H219    1.081   .     S
C208   N227    1.365   .     A
C208   C212    1.407   .     A
C208   H220    1.080   .     S
C209   N228    1.364   .     A
C209   H221    1.081   .     S
C210   H226    1.082   .     S
C211   H216    1.082   .     S
C212   H217    1.082   .     S
Cu213  O235    1.957   .     S
Cu213  O233    1.957   .     S
Cu213  O239    1.933   .     S
Cu213  O237    1.933   .     S
Cu213  Cu214   2.674   .     S
Cu213  N228    2.009   .     S
Cu214  O236    1.957   .     S
Cu214  O240    1.933   .     S
Cu214  O234    1.957   .     S
Cu214  O238    1.933   .     S
Cu214  N227    2.009   .     S
C241   C258    1.470   .     S
C241   O296    1.294   .     A
C241   O293    1.293   .     A
C242   H278    1.082   .     S
C242   C246    1.411   .     A
C242   C269    1.407   .     A
C243   C247    1.408   .     S
C243   O300    1.286   .     A
C243   O297    1.286   .     A
C244   C248    1.408   .     S
C244   O299    1.286   .     A
C244   O298    1.286   .     A
C245   C272    1.410   .     A
C245   C270    1.410   .     A
C245   C366    1.515   1_545 S
C246   C271    1.411   .     A
C246   C365    1.515   .     S
C248   C487    1.190   .     S
C249   C254    1.393   .     A
C249   C260    1.394   .     A
C249   H282    1.085   .     S
C250   C255    1.393   .     A
C250   C261    1.394   .     A
C250   H283    1.085   .     S
C251   C256    1.393   .     A
C251   C261    1.394   .     A
C251   H284    1.085   .     S
C252   C259    1.470   .     S
C252   O295    1.293   .     A
C252   O294    1.294   .     A
C253   H285    1.085   .     S
C253   C257    1.393   .     A
C253   C260    1.394   .     A
C254   C258    1.418   .     A
C254   C262    1.446   .     S
C255   C264    1.445   .     S
C255   C259    1.417   .     A
C256   C259    1.418   .     A
C256   C265    1.446   .     S
C257   C258    1.417   .     A
C257   C266    1.445   .     S
C260   C321    1.453   1_455 S
C261   C320    1.453   .     S
C262   N289    1.157   .     T
C263   H275    1.080   .     S
C263   N287    1.365   .     A
C263   C270    1.407   .     A
C264   N290    1.157   .     T
C265   N291    1.157   .     T
C266   N292    1.157   .     T
C267   N288    1.364   .     A
C267   C271    1.407   .     A
C267   H279    1.081   .     S
C268   N287    1.365   .     A
C268   C272    1.407   .     A
C268   H280    1.080   .     S
C269   N288    1.364   .     A
C269   H281    1.081   .     S
C270   H286    1.082   .     S
C271   H276    1.082   .     S
C272   H277    1.082   .     S
Cu273  O295    1.957   .     S
Cu273  O293    1.957   .     S
Cu273  O299    1.933   .     S
Cu273  O297    1.933   .     S
Cu273  Cu274   2.674   .     S
Cu273  N288    2.009   .     S
Cu274  O296    1.957   .     S
Cu274  O300    1.933   .     S
Cu274  O294    1.957   .     S
Cu274  O298    1.933   .     S
Cu274  N287    2.009   .     S
C301   C318    1.470   .     S
C301   O356    1.294   .     A
C301   O353    1.293   .     A
C302   H338    1.082   .     S
C302   C306    1.411   .     A
C302   C329    1.407   .     A
C303   C307    1.408   .     S
C303   O360    1.286   .     A
C303   O357    1.286   .     A
C304   C308    1.408   .     S
C304   O359    1.286   .     A
C304   O358    1.286   .     A
C305   C332    1.410   .     A
C305   C330    1.410   .     A
C305   C426    1.515   1_545 S
C306   C331    1.411   .     A
C306   C425    1.515   .     S
C308   C547    1.190   .     S
C309   C314    1.393   .     A
C309   C320    1.394   .     A
C309   H342    1.085   .     S
C310   C315    1.393   .     A
C310   C321    1.394   .     A
C310   H343    1.085   .     S
C311   C316    1.393   .     A
C311   C321    1.394   .     A
C311   H344    1.085   .     S
C312   C319    1.470   .     S
C312   O355    1.293   .     A
C312   O354    1.294   .     A
C313   H345    1.085   .     S
C313   C317    1.393   .     A
C313   C320    1.394   .     A
C314   C318    1.418   .     A
C314   C322    1.446   .     S
C315   C324    1.445   .     S
C315   C319    1.417   .     A
C316   C319    1.418   .     A
C316   C325    1.446   .     S
C317   C318    1.417   .     A
C317   C326    1.445   .     S
C321   C260    1.453   1_655 S
C322   N349    1.157   .     T
C323   H335    1.080   .     S
C323   N347    1.365   .     A
C323   C330    1.407   .     A
C324   N350    1.157   .     T
C325   N351    1.157   .     T
C326   N352    1.157   .     T
C327   N348    1.364   .     A
C327   C331    1.407   .     A
C327   H339    1.081   .     S
C328   N347    1.365   .     A
C328   C332    1.407   .     A
C328   H340    1.080   .     S
C329   N348    1.364   .     A
C329   H341    1.081   .     S
C330   H346    1.082   .     S
C331   H336    1.082   .     S
C332   H337    1.082   .     S
Cu333  O355    1.957   .     S
Cu333  O353    1.957   .     S
Cu333  O359    1.933   .     S
Cu333  O357    1.933   .     S
Cu333  Cu334   2.674   .     S
Cu333  N348    2.009   .     S
Cu334  O356    1.957   .     S
Cu334  O360    1.933   .     S
Cu334  O354    1.957   .     S
Cu334  O358    1.933   .     S
Cu334  N347    2.009   .     S
C361   C378    1.470   .     S
C361   O416    1.294   .     A
C361   O413    1.293   .     A
C362   H398    1.082   .     S
C362   C366    1.411   .     A
C362   C389    1.407   .     A
C363   C367    1.408   .     S
C363   O420    1.286   .     A
C363   O417    1.286   .     A
C364   C368    1.408   .     S
C364   O419    1.286   .     A
C364   O418    1.286   .     A
C365   C392    1.410   .     A
C365   C390    1.410   .     A
C366   C391    1.411   .     A
C366   C245    1.515   1_565 S
C368   C607    1.190   .     S
C369   C374    1.393   .     A
C369   C380    1.394   .     A
C369   H402    1.085   .     S
C370   C375    1.393   .     A
C370   C381    1.394   .     A
C370   H403    1.085   .     S
C371   C376    1.393   .     A
C371   C381    1.394   .     A
C371   H404    1.085   .     S
C372   C379    1.470   .     S
C372   O415    1.293   .     A
C372   O414    1.294   .     A
C373   H405    1.085   .     S
C373   C377    1.393   .     A
C373   C380    1.394   .     A
C374   C378    1.418   .     A
C374   C382    1.446   .     S
C375   C384    1.445   .     S
C375   C379    1.417   .     A
C376   C379    1.418   .     A
C376   C385    1.446   .     S
C377   C378    1.417   .     A
C377   C386    1.445   .     S
C380   C441    1.453   1_455 S
C381   C440    1.453   .     S
C382   N409    1.157   .     T
C383   H395    1.080   .     S
C383   N407    1.365   .     A
C383   C390    1.407   .     A
C384   N410    1.157   .     T
C385   N411    1.157   .     T
C386   N412    1.157   .     T
C387   N408    1.364   .     A
C387   C391    1.407   .     A
C387   H399    1.081   .     S
C388   N407    1.365   .     A
C388   C392    1.407   .     A
C388   H400    1.080   .     S
C389   N408    1.364   .     A
C389   H401    1.081   .     S
C390   H406    1.082   .     S
C391   H396    1.082   .     S
C392   H397    1.082   .     S
Cu393  O415    1.957   .     S
Cu393  O413    1.957   .     S
Cu393  O419    1.933   .     S
Cu393  O417    1.933   .     S
Cu393  Cu394   2.674   .     S
Cu393  N408    2.009   .     S
Cu394  O416    1.957   .     S
Cu394  O420    1.933   .     S
Cu394  O414    1.957   .     S
Cu394  O418    1.933   .     S
Cu394  N407    2.009   .     S
C421   C438    1.470   .     S
C421   O476    1.294   .     A
C421   O473    1.293   .     A
C422   H458    1.082   .     S
C422   C426    1.411   .     A
C422   C449    1.407   .     A
C423   C427    1.408   .     S
C423   O480    1.286   .     A
C423   O477    1.286   .     A
C424   C428    1.408   .     S
C424   O479    1.286   .     A
C424   O478    1.286   .     A
C425   C452    1.410   .     A
C425   C450    1.410   .     A
C426   C451    1.411   .     A
C426   C305    1.515   1_565 S
C428   C667    1.190   .     S
C429   C434    1.393   .     A
C429   C440    1.394   .     A
C429   H462    1.085   .     S
C430   C435    1.393   .     A
C430   C441    1.394   .     A
C430   H463    1.085   .     S
C431   C436    1.393   .     A
C431   C441    1.394   .     A
C431   H464    1.085   .     S
C432   C439    1.470   .     S
C432   O475    1.293   .     A
C432   O474    1.294   .     A
C433   H465    1.085   .     S
C433   C437    1.393   .     A
C433   C440    1.394   .     A
C434   C438    1.418   .     A
C434   C442    1.446   .     S
C435   C444    1.445   .     S
C435   C439    1.417   .     A
C436   C439    1.418   .     A
C436   C445    1.446   .     S
C437   C438    1.417   .     A
C437   C446    1.445   .     S
C441   C380    1.453   1_655 S
C442   N469    1.157   .     T
C443   H455    1.080   .     S
C443   N467    1.365   .     A
C443   C450    1.407   .     A
C444   N470    1.157   .     T
C445   N471    1.157   .     T
C446   N472    1.157   .     T
C447   N468    1.364   .     A
C447   C451    1.407   .     A
C447   H459    1.081   .     S
C448   N467    1.365   .     A
C448   C452    1.407   .     A
C448   H460    1.080   .     S
C449   N468    1.364   .     A
C449   H461    1.081   .     S
C450   H466    1.082   .     S
C451   H456    1.082   .     S
C452   H457    1.082   .     S
Cu453  O475    1.957   .     S
Cu453  O473    1.957   .     S
Cu453  O479    1.933   .     S
Cu453  O477    1.933   .     S
Cu453  Cu454   2.674   .     S
Cu453  N468    2.009   .     S
Cu454  O476    1.957   .     S
Cu454  O480    1.933   .     S
Cu454  O474    1.957   .     S
Cu454  O478    1.933   .     S
Cu454  N467    2.009   .     S
C481   C498    1.470   .     S
C481   O536    1.294   .     A
C481   O533    1.293   .     A
C482   H518    1.082   .     S
C482   C486    1.411   .     A
C482   C509    1.407   .     A
C483   C487    1.408   .     S
C483   O540    1.286   .     A
C483   O537    1.286   .     A
C484   C488    1.408   .     S
C484   O539    1.286   .     A
C484   O538    1.286   .     A
C485   C512    1.410   .     A
C485   C510    1.410   .     A
C485   C606    1.515   1_545 S
C486   C511    1.411   .     A
C486   C605    1.515   .     S
C488   C7      1.190   1_556 S
C489   C494    1.393   .     A
C489   C500    1.394   .     A
C489   H522    1.085   .     S
C490   C495    1.393   .     A
C490   C501    1.394   .     A
C490   H523    1.085   .     S
C491   C496    1.393   .     A
C491   C501    1.394   .     A
C491   H524    1.085   .     S
C492   C499    1.470   .     S
C492   O535    1.293   .     A
C492   O534    1.294   .     A
C493   H525    1.085   .     S
C493   C497    1.393   .     A
C493   C500    1.394   .     A
C494   C498    1.418   .     A
C494   C502    1.446   .     S
C495   C504    1.445   .     S
C495   C499    1.417   .     A
C496   C499    1.418   .     A
C496   C505    1.446   .     S
C497   C498    1.417   .     A
C497   C506    1.445   .     S
C500   C561    1.453   1_455 S
C501   C560    1.453   .     S
C502   N529    1.157   .     T
C503   H515    1.080   .     S
C503   N527    1.365   .     A
C503   C510    1.407   .     A
C504   N530    1.157   .     T
C505   N531    1.157   .     T
C506   N532    1.157   .     T
C507   N528    1.364   .     A
C507   C511    1.407   .     A
C507   H519    1.081   .     S
C508   N527    1.365   .     A
C508   C512    1.407   .     A
C508   H520    1.080   .     S
C509   N528    1.364   .     A
C509   H521    1.081   .     S
C510   H526    1.082   .     S
C511   H516    1.082   .     S
C512   H517    1.082   .     S
Cu513  O535    1.957   .     S
Cu513  O533    1.957   .     S
Cu513  O539    1.933   .     S
Cu513  O537    1.933   .     S
Cu513  Cu514   2.674   .     S
Cu513  N528    2.009   .     S
Cu514  O536    1.957   .     S
Cu514  O540    1.933   .     S
Cu514  O534    1.957   .     S
Cu514  O538    1.933   .     S
Cu514  N527    2.009   .     S
C541   C558    1.470   .     S
C541   O596    1.294   .     A
C541   O593    1.293   .     A
C542   H578    1.082   .     S
C542   C546    1.411   .     A
C542   C569    1.407   .     A
C543   C547    1.408   .     S
C543   O600    1.286   .     A
C543   O597    1.286   .     A
C544   C548    1.408   .     S
C544   O599    1.286   .     A
C544   O598    1.286   .     A
C545   C572    1.410   .     A
C545   C570    1.410   .     A
C545   C666    1.515   1_545 S
C546   C571    1.411   .     A
C546   C665    1.515   .     S
C548   C67     1.190   1_556 S
C549   C554    1.393   .     A
C549   C560    1.394   .     A
C549   H582    1.085   .     S
C550   C555    1.393   .     A
C550   C561    1.394   .     A
C550   H583    1.085   .     S
C551   C556    1.393   .     A
C551   C561    1.394   .     A
C551   H584    1.085   .     S
C552   C559    1.470   .     S
C552   O595    1.293   .     A
C552   O594    1.294   .     A
C553   H585    1.085   .     S
C553   C557    1.393   .     A
C553   C560    1.394   .     A
C554   C558    1.418   .     A
C554   C562    1.446   .     S
C555   C564    1.445   .     S
C555   C559    1.417   .     A
C556   C559    1.418   .     A
C556   C565    1.446   .     S
C557   C558    1.417   .     A
C557   C566    1.445   .     S
C561   C500    1.453   1_655 S
C562   N589    1.157   .     T
C563   H575    1.080   .     S
C563   N587    1.365   .     A
C563   C570    1.407   .     A
C564   N590    1.157   .     T
C565   N591    1.157   .     T
C566   N592    1.157   .     T
C567   N588    1.364   .     A
C567   C571    1.407   .     A
C567   H579    1.081   .     S
C568   N587    1.365   .     A
C568   C572    1.407   .     A
C568   H580    1.080   .     S
C569   N588    1.364   .     A
C569   H581    1.081   .     S
C570   H586    1.082   .     S
C571   H576    1.082   .     S
C572   H577    1.082   .     S
Cu573  O595    1.957   .     S
Cu573  O593    1.957   .     S
Cu573  O599    1.933   .     S
Cu573  O597    1.933   .     S
Cu573  Cu574   2.674   .     S
Cu573  N588    2.009   .     S
Cu574  O596    1.957   .     S
Cu574  O600    1.933   .     S
Cu574  O594    1.957   .     S
Cu574  O598    1.933   .     S
Cu574  N587    2.009   .     S
C601   C618    1.470   .     S
C601   O656    1.294   .     A
C601   O653    1.293   .     A
C602   H638    1.082   .     S
C602   C606    1.411   .     A
C602   C629    1.407   .     A
C603   C607    1.408   .     S
C603   O660    1.286   .     A
C603   O657    1.286   .     A
C604   C608    1.408   .     S
C604   O659    1.286   .     A
C604   O658    1.286   .     A
C605   C632    1.410   .     A
C605   C630    1.410   .     A
C606   C631    1.411   .     A
C606   C485    1.515   1_565 S
C608   C127    1.190   1_556 S
C609   C614    1.393   .     A
C609   C620    1.394   .     A
C609   H642    1.085   .     S
C610   C615    1.393   .     A
C610   C621    1.394   .     A
C610   H643    1.085   .     S
C611   C616    1.393   .     A
C611   C621    1.394   .     A
C611   H644    1.085   .     S
C612   C619    1.470   .     S
C612   O655    1.293   .     A
C612   O654    1.294   .     A
C613   H645    1.085   .     S
C613   C617    1.393   .     A
C613   C620    1.394   .     A
C614   C618    1.418   .     A
C614   C622    1.446   .     S
C615   C624    1.445   .     S
C615   C619    1.417   .     A
C616   C619    1.418   .     A
C616   C625    1.446   .     S
C617   C618    1.417   .     A
C617   C626    1.445   .     S
C620   C681    1.453   1_455 S
C621   C680    1.453   .     S
C622   N649    1.157   .     T
C623   H635    1.080   .     S
C623   N647    1.365   .     A
C623   C630    1.407   .     A
C624   N650    1.157   .     T
C625   N651    1.157   .     T
C626   N652    1.157   .     T
C627   N648    1.364   .     A
C627   C631    1.407   .     A
C627   H639    1.081   .     S
C628   N647    1.365   .     A
C628   C632    1.407   .     A
C628   H640    1.080   .     S
C629   N648    1.364   .     A
C629   H641    1.081   .     S
C630   H646    1.082   .     S
C631   H636    1.082   .     S
C632   H637    1.082   .     S
Cu633  O655    1.957   .     S
Cu633  O653    1.957   .     S
Cu633  O659    1.933   .     S
Cu633  O657    1.933   .     S
Cu633  Cu634   2.674   .     S
Cu633  N648    2.009   .     S
Cu634  O656    1.957   .     S
Cu634  O660    1.933   .     S
Cu634  O654    1.957   .     S
Cu634  O658    1.933   .     S
Cu634  N647    2.009   .     S
C661   C678    1.470   .     S
C661   O716    1.294   .     A
C661   O713    1.293   .     A
C662   H698    1.082   .     S
C662   C666    1.411   .     A
C662   C689    1.407   .     A
C663   C667    1.408   .     S
C663   O720    1.286   .     A
C663   O717    1.286   .     A
C664   C668    1.408   .     S
C664   O719    1.286   .     A
C664   O718    1.286   .     A
C665   C692    1.410   .     A
C665   C690    1.410   .     A
C666   C691    1.411   .     A
C666   C545    1.515   1_565 S
C668   C187    1.190   1_556 S
C669   C674    1.393   .     A
C669   C680    1.394   .     A
C669   H702    1.085   .     S
C670   C675    1.393   .     A
C670   C681    1.394   .     A
C670   H703    1.085   .     S
C671   C676    1.393   .     A
C671   C681    1.394   .     A
C671   H704    1.085   .     S
C672   C679    1.470   .     S
C672   O715    1.293   .     A
C672   O714    1.294   .     A
C673   H705    1.085   .     S
C673   C677    1.393   .     A
C673   C680    1.394   .     A
C674   C678    1.418   .     A
C674   C682    1.446   .     S
C675   C684    1.445   .     S
C675   C679    1.417   .     A
C676   C679    1.418   .     A
C676   C685    1.446   .     S
C677   C678    1.417   .     A
C677   C686    1.445   .     S
C681   C620    1.453   1_655 S
C682   N709    1.157   .     T
C683   H695    1.080   .     S
C683   N707    1.365   .     A
C683   C690    1.407   .     A
C684   N710    1.157   .     T
C685   N711    1.157   .     T
C686   N712    1.157   .     T
C687   N708    1.364   .     A
C687   C691    1.407   .     A
C687   H699    1.081   .     S
C688   N707    1.365   .     A
C688   C692    1.407   .     A
C688   H700    1.080   .     S
C689   N708    1.364   .     A
C689   H701    1.081   .     S
C690   H706    1.082   .     S
C691   H696    1.082   .     S
C692   H697    1.082   .     S
Cu693  O715    1.957   .     S
Cu693  O713    1.957   .     S
Cu693  O719    1.933   .     S
Cu693  O717    1.933   .     S
Cu693  Cu694   2.674   .     S
Cu693  N708    2.009   .     S
Cu694  O716    1.957   .     S
Cu694  O720    1.933   .     S
Cu694  O714    1.957   .     S
Cu694  O718    1.933   .     S
Cu694  N707    2.009   .     S
