data_str_m2_o10_o17_pcu_sym.140
_audit_creation_date              2020-01-03
_audit_creation_method            'Materials Studio'
_symmetry_space_group_name_H-M    'P1'
_symmetry_Int_Tables_number       1
_symmetry_cell_setting            triclinic
loop_
_symmetry_equiv_pos_as_xyz
  x,y,z
_cell_length_a                    29.9987
_cell_length_b                    26.3210
_cell_length_c                    22.3710
_cell_angle_alpha                 102.9903
_cell_angle_beta                  94.0296
_cell_angle_gamma                 91.7936
loop_
_atom_site_label
_atom_site_type_symbol
_atom_site_fract_x
_atom_site_fract_y
_atom_site_fract_z
_atom_site_U_iso_or_equiv
_atom_site_adp_type
_atom_site_occupancy
C1     C     0.24868   0.06678   0.15118   0.00000  Uiso   1.00
C2     C     0.25042   0.26653   0.18207   0.00000  Uiso   1.00
C3     C     0.01847   0.06989   0.14093   0.00000  Uiso   1.00
C4     C     0.48098   0.26010   0.20146   0.00000  Uiso   1.00
C5     C     0.24926   0.01101   0.14204   0.00000  Uiso   1.00
C6     C     0.24638   0.32189   0.19036   0.00000  Uiso   1.00
C7     C     0.16450   0.16544   0.16729   0.00000  Uiso   1.00
C8     C     0.33525   0.16598   0.16561   0.00000  Uiso   1.00
C9     C     0.40820   0.21340   0.18080   0.00000  Uiso   1.00
C10    C     0.09104   0.11719   0.15163   0.00000  Uiso   1.00
C11    C     0.38315   0.16582   0.16341   0.00000  Uiso   1.00
C12    C     0.11618   0.16485   0.16852   0.00000  Uiso   1.00
C13    C     0.40358   0.11808   0.14620   0.00000  Uiso   1.00
C14    C     0.09509   0.21242   0.18176   0.00000  Uiso   1.00
C15    C     0.45043   0.11745   0.15077   0.00000  Uiso   1.00
C16    C     0.04863   0.21266   0.18481   0.00000  Uiso   1.00
C17    C     0.47613   0.16518   0.16803   0.00000  Uiso   1.00
C18    C     0.02310   0.16491   0.16952   0.00000  Uiso   1.00
C19    C     0.45497   0.21321   0.18341   0.00000  Uiso   1.00
C20    C     0.04434   0.11700   0.15413   0.00000  Uiso   1.00
C21    C     0.47208   0.07013   0.13905   0.00000  Uiso   1.00
C22    C     0.02728   0.25984   0.20195   0.00000  Uiso   1.00
Cu23   Cu    0.25500   0.17246   0.22813   0.00000  Uiso   1.00
Cu24   Cu    0.24499   0.16087   0.10521   0.00000  Uiso   1.00
N25    N     0.23744   0.15214   0.01284   0.00000  Uiso   1.00
N26    N     0.26255   0.18119   0.32049   0.00000  Uiso   1.00
O27    O     0.25325   0.09538   0.20659   0.00000  Uiso   1.00
O28    O     0.24674   0.23796   0.12674   0.00000  Uiso   1.00
O29    O     0.24480   0.08559   0.10279   0.00000  Uiso   1.00
O30    O     0.25520   0.24774   0.23055   0.00000  Uiso   1.00
O31    O     0.18935   0.17155   0.21857   0.00000  Uiso   1.00
O32    O     0.31064   0.16179   0.11476   0.00000  Uiso   1.00
O33    O     0.18090   0.16176   0.11477   0.00000  Uiso   1.00
O34    O     0.31910   0.17157   0.21857   0.00000  Uiso   1.00
O35    O     0.38691   0.25958   0.19978   0.00000  Uiso   1.00
C36    C     0.37493   0.27964   0.14780   0.00000  Uiso   1.00
H37    H     0.35121   0.25250   0.11412   0.00000  Uiso   1.00
H38    H     0.40492   0.28878   0.12488   0.00000  Uiso   1.00
H39    H     0.35769   0.31638   0.16326   0.00000  Uiso   1.00
O40    O     0.11234   0.07097   0.13313   0.00000  Uiso   1.00
C41    C     0.11009   0.05767   0.06810   0.00000  Uiso   1.00
H42    H     0.12147   0.01752   0.05285   0.00000  Uiso   1.00
H43    H     0.13246   0.08427   0.05028   0.00000  Uiso   1.00
H44    H     0.07544   0.05767   0.04671   0.00000  Uiso   1.00
O45    O     0.37751   0.07197   0.13040   0.00000  Uiso   1.00
C46    C     0.36985   0.05745   0.06571   0.00000  Uiso   1.00
H47    H     0.34769   0.02150   0.05331   0.00000  Uiso   1.00
H48    H     0.40153   0.04848   0.04333   0.00000  Uiso   1.00
H49    H     0.35268   0.08805   0.04701   0.00000  Uiso   1.00
O50    O     0.12011   0.25867   0.18945   0.00000  Uiso   1.00
C51    C     0.11902   0.27289   0.13219   0.00000  Uiso   1.00
H52    H     0.08531   0.28514   0.11899   0.00000  Uiso   1.00
H53    H     0.12936   0.24087   0.09489   0.00000  Uiso   1.00
H54    H     0.14287   0.30660   0.13629   0.00000  Uiso   1.00
H55    H     0.45328   0.03302   0.12794   0.00000  Uiso   1.00
H56    H     0.04626   0.29685   0.21555   0.00000  Uiso   1.00
H57    H     0.03393   0.03260   0.13115   0.00000  Uiso   1.00
H58    H     0.46568   0.29730   0.21455   0.00000  Uiso   1.00
O59    O     0.25807   0.31602   0.08418   0.00000  Uiso   1.00
C60    C     0.21750   0.30482   0.04684   0.00000  Uiso   1.00
H61    H     0.19892   0.00698   0.04575   0.00000  Uiso   1.00
H62    H     0.19561   0.27625   0.06191   0.00000  Uiso   1.00
H63    H     0.22525   0.28672   0.33281   0.00000  Uiso   1.00
O64    O     0.23998   0.01729   0.24900   0.00000  Uiso   1.00
C65    C     0.19358   0.02039   0.25477   0.00000  Uiso   1.00
H66    H     0.17826   0.31490   0.25473   0.00000  Uiso   1.00
H67    H     0.17657   0.03759   0.21870   0.00000  Uiso   1.00
H68    H     0.18801   0.04631   0.29953   0.00000  Uiso   1.00
H69    H     0.21283   0.12985   0.31678   0.00000  Uiso   1.00
H70    H     0.28638   0.20496   0.01673   0.00000  Uiso   1.00
C71    C     0.74868   0.06678   0.15118   0.00000  Uiso   1.00
C72    C     0.75042   0.26653   0.18207   0.00000  Uiso   1.00
C73    C     0.51847   0.06989   0.14093   0.00000  Uiso   1.00
C74    C     0.98098   0.26010   0.20146   0.00000  Uiso   1.00
C75    C     0.74926   0.01101   0.14204   0.00000  Uiso   1.00
C76    C     0.74638   0.32189   0.19036   0.00000  Uiso   1.00
C77    C     0.66450   0.16544   0.16729   0.00000  Uiso   1.00
C78    C     0.83525   0.16598   0.16561   0.00000  Uiso   1.00
C79    C     0.90820   0.21340   0.18080   0.00000  Uiso   1.00
C80    C     0.59104   0.11719   0.15163   0.00000  Uiso   1.00
C81    C     0.88315   0.16582   0.16341   0.00000  Uiso   1.00
C82    C     0.61618   0.16485   0.16852   0.00000  Uiso   1.00
C83    C     0.90358   0.11808   0.14620   0.00000  Uiso   1.00
C84    C     0.59509   0.21242   0.18176   0.00000  Uiso   1.00
C85    C     0.95043   0.11745   0.15077   0.00000  Uiso   1.00
C86    C     0.54863   0.21266   0.18481   0.00000  Uiso   1.00
C87    C     0.97613   0.16518   0.16803   0.00000  Uiso   1.00
C88    C     0.52310   0.16491   0.16952   0.00000  Uiso   1.00
C89    C     0.95497   0.21321   0.18341   0.00000  Uiso   1.00
C90    C     0.54434   0.11700   0.15413   0.00000  Uiso   1.00
C91    C     0.97208   0.07013   0.13905   0.00000  Uiso   1.00
C92    C     0.52728   0.25984   0.20195   0.00000  Uiso   1.00
Cu93   Cu    0.75500   0.17246   0.22813   0.00000  Uiso   1.00
Cu94   Cu    0.74499   0.16087   0.10521   0.00000  Uiso   1.00
N95    N     0.73744   0.15214   0.01284   0.00000  Uiso   1.00
N96    N     0.76255   0.18119   0.32049   0.00000  Uiso   1.00
O97    O     0.75325   0.09538   0.20659   0.00000  Uiso   1.00
O98    O     0.74674   0.23796   0.12674   0.00000  Uiso   1.00
O99    O     0.74480   0.08559   0.10279   0.00000  Uiso   1.00
O100   O     0.75520   0.24774   0.23055   0.00000  Uiso   1.00
O101   O     0.68935   0.17155   0.21857   0.00000  Uiso   1.00
O102   O     0.81064   0.16179   0.11476   0.00000  Uiso   1.00
O103   O     0.68090   0.16176   0.11477   0.00000  Uiso   1.00
O104   O     0.81910   0.17157   0.21857   0.00000  Uiso   1.00
O105   O     0.88691   0.25958   0.19978   0.00000  Uiso   1.00
C106   C     0.87493   0.27964   0.14780   0.00000  Uiso   1.00
H107   H     0.85121   0.25250   0.11412   0.00000  Uiso   1.00
H108   H     0.90492   0.28878   0.12488   0.00000  Uiso   1.00
H109   H     0.85769   0.31638   0.16326   0.00000  Uiso   1.00
O110   O     0.61234   0.07097   0.13313   0.00000  Uiso   1.00
C111   C     0.61009   0.05767   0.06810   0.00000  Uiso   1.00
H112   H     0.62147   0.01752   0.05285   0.00000  Uiso   1.00
H113   H     0.63246   0.08427   0.05028   0.00000  Uiso   1.00
H114   H     0.57544   0.05767   0.04671   0.00000  Uiso   1.00
O115   O     0.87751   0.07197   0.13040   0.00000  Uiso   1.00
C116   C     0.86985   0.05745   0.06571   0.00000  Uiso   1.00
H117   H     0.84769   0.02150   0.05331   0.00000  Uiso   1.00
H118   H     0.90153   0.04848   0.04333   0.00000  Uiso   1.00
H119   H     0.85268   0.08805   0.04701   0.00000  Uiso   1.00
O120   O     0.62011   0.25867   0.18945   0.00000  Uiso   1.00
C121   C     0.61902   0.27289   0.13219   0.00000  Uiso   1.00
H122   H     0.58531   0.28514   0.11899   0.00000  Uiso   1.00
H123   H     0.62936   0.24087   0.09489   0.00000  Uiso   1.00
H124   H     0.64287   0.30660   0.13629   0.00000  Uiso   1.00
H125   H     0.95328   0.03302   0.12794   0.00000  Uiso   1.00
H126   H     0.54626   0.29685   0.21555   0.00000  Uiso   1.00
H127   H     0.53393   0.03260   0.13115   0.00000  Uiso   1.00
H128   H     0.96568   0.29730   0.21455   0.00000  Uiso   1.00
O129   O     0.75807   0.31602   0.08418   0.00000  Uiso   1.00
C130   C     0.71750   0.30482   0.04684   0.00000  Uiso   1.00
H131   H     0.69892   0.00698   0.04575   0.00000  Uiso   1.00
H132   H     0.69561   0.27625   0.06191   0.00000  Uiso   1.00
H133   H     0.72525   0.28672   0.33281   0.00000  Uiso   1.00
O134   O     0.73998   0.01729   0.24900   0.00000  Uiso   1.00
C135   C     0.69358   0.02039   0.25477   0.00000  Uiso   1.00
H136   H     0.67826   0.31490   0.25473   0.00000  Uiso   1.00
H137   H     0.67657   0.03759   0.21870   0.00000  Uiso   1.00
H138   H     0.68801   0.04631   0.29953   0.00000  Uiso   1.00
H139   H     0.71283   0.12985   0.31678   0.00000  Uiso   1.00
H140   H     0.78638   0.20496   0.01673   0.00000  Uiso   1.00
C141   C     0.24868   0.40011   0.15118   0.00000  Uiso   1.00
C142   C     0.25042   0.59987   0.18207   0.00000  Uiso   1.00
C143   C     0.01847   0.40323   0.14093   0.00000  Uiso   1.00
C144   C     0.48098   0.59344   0.20146   0.00000  Uiso   1.00
C145   C     0.24926   0.34435   0.14204   0.00000  Uiso   1.00
C146   C     0.24638   0.65523   0.19036   0.00000  Uiso   1.00
C147   C     0.16450   0.49877   0.16729   0.00000  Uiso   1.00
C148   C     0.33525   0.49931   0.16561   0.00000  Uiso   1.00
C149   C     0.40820   0.54673   0.18080   0.00000  Uiso   1.00
C150   C     0.09104   0.45053   0.15163   0.00000  Uiso   1.00
C151   C     0.38315   0.49915   0.16341   0.00000  Uiso   1.00
C152   C     0.11618   0.49818   0.16852   0.00000  Uiso   1.00
C153   C     0.40358   0.45141   0.14620   0.00000  Uiso   1.00
C154   C     0.09509   0.54575   0.18176   0.00000  Uiso   1.00
C155   C     0.45043   0.45079   0.15077   0.00000  Uiso   1.00
C156   C     0.04863   0.54599   0.18481   0.00000  Uiso   1.00
C157   C     0.47613   0.49851   0.16803   0.00000  Uiso   1.00
C158   C     0.02310   0.49824   0.16952   0.00000  Uiso   1.00
C159   C     0.45497   0.54654   0.18341   0.00000  Uiso   1.00
C160   C     0.04434   0.45033   0.15413   0.00000  Uiso   1.00
C161   C     0.47208   0.40346   0.13905   0.00000  Uiso   1.00
C162   C     0.02728   0.59318   0.20195   0.00000  Uiso   1.00
Cu163  Cu    0.25500   0.50579   0.22813   0.00000  Uiso   1.00
Cu164  Cu    0.24499   0.49421   0.10521   0.00000  Uiso   1.00
N165   N     0.23744   0.48547   0.01284   0.00000  Uiso   1.00
N166   N     0.26255   0.51453   0.32049   0.00000  Uiso   1.00
O167   O     0.25325   0.42871   0.20659   0.00000  Uiso   1.00
O168   O     0.24674   0.57129   0.12674   0.00000  Uiso   1.00
O169   O     0.24480   0.41892   0.10279   0.00000  Uiso   1.00
O170   O     0.25520   0.58108   0.23055   0.00000  Uiso   1.00
O171   O     0.18935   0.50488   0.21857   0.00000  Uiso   1.00
O172   O     0.31064   0.49512   0.11476   0.00000  Uiso   1.00
O173   O     0.18090   0.49510   0.11477   0.00000  Uiso   1.00
O174   O     0.31910   0.50490   0.21857   0.00000  Uiso   1.00
O175   O     0.38691   0.59291   0.19978   0.00000  Uiso   1.00
C176   C     0.37493   0.61297   0.14780   0.00000  Uiso   1.00
H177   H     0.35121   0.58584   0.11412   0.00000  Uiso   1.00
H178   H     0.40492   0.62211   0.12488   0.00000  Uiso   1.00
H179   H     0.35769   0.64971   0.16326   0.00000  Uiso   1.00
O180   O     0.11234   0.40431   0.13313   0.00000  Uiso   1.00
C181   C     0.11009   0.39100   0.06810   0.00000  Uiso   1.00
H182   H     0.12147   0.35086   0.05285   0.00000  Uiso   1.00
H183   H     0.13246   0.41761   0.05028   0.00000  Uiso   1.00
H184   H     0.07544   0.39100   0.04671   0.00000  Uiso   1.00
O185   O     0.37751   0.40530   0.13040   0.00000  Uiso   1.00
C186   C     0.36985   0.39078   0.06571   0.00000  Uiso   1.00
H187   H     0.34769   0.35484   0.05331   0.00000  Uiso   1.00
H188   H     0.40153   0.38182   0.04333   0.00000  Uiso   1.00
H189   H     0.35268   0.42139   0.04701   0.00000  Uiso   1.00
O190   O     0.12011   0.59200   0.18945   0.00000  Uiso   1.00
C191   C     0.11902   0.60623   0.13219   0.00000  Uiso   1.00
H192   H     0.08531   0.61847   0.11899   0.00000  Uiso   1.00
H193   H     0.12936   0.57421   0.09489   0.00000  Uiso   1.00
H194   H     0.14287   0.63993   0.13629   0.00000  Uiso   1.00
H195   H     0.45328   0.36636   0.12794   0.00000  Uiso   1.00
H196   H     0.04626   0.63019   0.21555   0.00000  Uiso   1.00
H197   H     0.03393   0.36593   0.13115   0.00000  Uiso   1.00
H198   H     0.46568   0.63064   0.21455   0.00000  Uiso   1.00
O199   O     0.25807   0.64936   0.08418   0.00000  Uiso   1.00
C200   C     0.21750   0.63815   0.04684   0.00000  Uiso   1.00
H201   H     0.19892   0.34031   0.04575   0.00000  Uiso   1.00
H202   H     0.19561   0.60958   0.06191   0.00000  Uiso   1.00
H203   H     0.22525   0.62006   0.33281   0.00000  Uiso   1.00
O204   O     0.23998   0.35062   0.24900   0.00000  Uiso   1.00
C205   C     0.19358   0.35372   0.25477   0.00000  Uiso   1.00
H206   H     0.17826   0.64824   0.25473   0.00000  Uiso   1.00
H207   H     0.17657   0.37093   0.21870   0.00000  Uiso   1.00
H208   H     0.18801   0.37964   0.29953   0.00000  Uiso   1.00
H209   H     0.21283   0.46318   0.31678   0.00000  Uiso   1.00
H210   H     0.28638   0.53829   0.01673   0.00000  Uiso   1.00
C211   C     0.74868   0.40011   0.15118   0.00000  Uiso   1.00
C212   C     0.75042   0.59987   0.18207   0.00000  Uiso   1.00
C213   C     0.51847   0.40323   0.14093   0.00000  Uiso   1.00
C214   C     0.98098   0.59344   0.20146   0.00000  Uiso   1.00
C215   C     0.74926   0.34435   0.14204   0.00000  Uiso   1.00
C216   C     0.74638   0.65523   0.19036   0.00000  Uiso   1.00
C217   C     0.66450   0.49877   0.16729   0.00000  Uiso   1.00
C218   C     0.83525   0.49931   0.16561   0.00000  Uiso   1.00
C219   C     0.90820   0.54673   0.18080   0.00000  Uiso   1.00
C220   C     0.59104   0.45053   0.15163   0.00000  Uiso   1.00
C221   C     0.88315   0.49915   0.16341   0.00000  Uiso   1.00
C222   C     0.61618   0.49818   0.16852   0.00000  Uiso   1.00
C223   C     0.90358   0.45141   0.14620   0.00000  Uiso   1.00
C224   C     0.59509   0.54575   0.18176   0.00000  Uiso   1.00
C225   C     0.95043   0.45079   0.15077   0.00000  Uiso   1.00
C226   C     0.54863   0.54599   0.18481   0.00000  Uiso   1.00
C227   C     0.97613   0.49851   0.16803   0.00000  Uiso   1.00
C228   C     0.52310   0.49824   0.16952   0.00000  Uiso   1.00
C229   C     0.95497   0.54654   0.18341   0.00000  Uiso   1.00
C230   C     0.54434   0.45033   0.15413   0.00000  Uiso   1.00
C231   C     0.97208   0.40346   0.13905   0.00000  Uiso   1.00
C232   C     0.52728   0.59318   0.20195   0.00000  Uiso   1.00
Cu233  Cu    0.75500   0.50579   0.22813   0.00000  Uiso   1.00
Cu234  Cu    0.74499   0.49421   0.10521   0.00000  Uiso   1.00
N235   N     0.73744   0.48547   0.01284   0.00000  Uiso   1.00
N236   N     0.76255   0.51453   0.32049   0.00000  Uiso   1.00
O237   O     0.75325   0.42871   0.20659   0.00000  Uiso   1.00
O238   O     0.74674   0.57129   0.12674   0.00000  Uiso   1.00
O239   O     0.74480   0.41892   0.10279   0.00000  Uiso   1.00
O240   O     0.75520   0.58108   0.23055   0.00000  Uiso   1.00
O241   O     0.68935   0.50488   0.21857   0.00000  Uiso   1.00
O242   O     0.81064   0.49512   0.11476   0.00000  Uiso   1.00
O243   O     0.68090   0.49510   0.11477   0.00000  Uiso   1.00
O244   O     0.81910   0.50490   0.21857   0.00000  Uiso   1.00
O245   O     0.88691   0.59291   0.19978   0.00000  Uiso   1.00
C246   C     0.87493   0.61297   0.14780   0.00000  Uiso   1.00
H247   H     0.85121   0.58584   0.11412   0.00000  Uiso   1.00
H248   H     0.90492   0.62211   0.12488   0.00000  Uiso   1.00
H249   H     0.85769   0.64971   0.16326   0.00000  Uiso   1.00
O250   O     0.61234   0.40431   0.13313   0.00000  Uiso   1.00
C251   C     0.61009   0.39100   0.06810   0.00000  Uiso   1.00
H252   H     0.62147   0.35086   0.05285   0.00000  Uiso   1.00
H253   H     0.63246   0.41761   0.05028   0.00000  Uiso   1.00
H254   H     0.57544   0.39100   0.04671   0.00000  Uiso   1.00
O255   O     0.87751   0.40530   0.13040   0.00000  Uiso   1.00
C256   C     0.86985   0.39078   0.06571   0.00000  Uiso   1.00
H257   H     0.84769   0.35484   0.05331   0.00000  Uiso   1.00
H258   H     0.90153   0.38182   0.04333   0.00000  Uiso   1.00
H259   H     0.85268   0.42139   0.04701   0.00000  Uiso   1.00
O260   O     0.62011   0.59200   0.18945   0.00000  Uiso   1.00
C261   C     0.61902   0.60623   0.13219   0.00000  Uiso   1.00
H262   H     0.58531   0.61847   0.11899   0.00000  Uiso   1.00
H263   H     0.62936   0.57421   0.09489   0.00000  Uiso   1.00
H264   H     0.64287   0.63993   0.13629   0.00000  Uiso   1.00
H265   H     0.95328   0.36636   0.12794   0.00000  Uiso   1.00
H266   H     0.54626   0.63019   0.21555   0.00000  Uiso   1.00
H267   H     0.53393   0.36593   0.13115   0.00000  Uiso   1.00
H268   H     0.96568   0.63064   0.21455   0.00000  Uiso   1.00
O269   O     0.75807   0.64936   0.08418   0.00000  Uiso   1.00
C270   C     0.71750   0.63815   0.04684   0.00000  Uiso   1.00
H271   H     0.69892   0.34031   0.04575   0.00000  Uiso   1.00
H272   H     0.69561   0.60958   0.06191   0.00000  Uiso   1.00
H273   H     0.72525   0.62006   0.33281   0.00000  Uiso   1.00
O274   O     0.73998   0.35062   0.24900   0.00000  Uiso   1.00
C275   C     0.69358   0.35372   0.25477   0.00000  Uiso   1.00
H276   H     0.67826   0.64824   0.25473   0.00000  Uiso   1.00
H277   H     0.67657   0.37093   0.21870   0.00000  Uiso   1.00
H278   H     0.68801   0.37964   0.29953   0.00000  Uiso   1.00
H279   H     0.71283   0.46318   0.31678   0.00000  Uiso   1.00
H280   H     0.78638   0.53829   0.01673   0.00000  Uiso   1.00
C281   C     0.24868   0.73344   0.15118   0.00000  Uiso   1.00
C282   C     0.25042   0.93320   0.18207   0.00000  Uiso   1.00
C283   C     0.01847   0.73656   0.14093   0.00000  Uiso   1.00
C284   C     0.48098   0.92677   0.20146   0.00000  Uiso   1.00
C285   C     0.24926   0.67768   0.14204   0.00000  Uiso   1.00
C286   C     0.24638   0.98856   0.19036   0.00000  Uiso   1.00
C287   C     0.16450   0.83211   0.16729   0.00000  Uiso   1.00
C288   C     0.33525   0.83264   0.16561   0.00000  Uiso   1.00
C289   C     0.40820   0.88006   0.18080   0.00000  Uiso   1.00
C290   C     0.09104   0.78386   0.15163   0.00000  Uiso   1.00
C291   C     0.38315   0.83249   0.16341   0.00000  Uiso   1.00
C292   C     0.11618   0.83151   0.16852   0.00000  Uiso   1.00
C293   C     0.40358   0.78474   0.14620   0.00000  Uiso   1.00
C294   C     0.09509   0.87909   0.18176   0.00000  Uiso   1.00
C295   C     0.45043   0.78412   0.15077   0.00000  Uiso   1.00
C296   C     0.04863   0.87932   0.18481   0.00000  Uiso   1.00
C297   C     0.47613   0.83184   0.16803   0.00000  Uiso   1.00
C298   C     0.02310   0.83158   0.16952   0.00000  Uiso   1.00
C299   C     0.45497   0.87988   0.18341   0.00000  Uiso   1.00
C300   C     0.04434   0.78367   0.15413   0.00000  Uiso   1.00
C301   C     0.47208   0.73680   0.13905   0.00000  Uiso   1.00
C302   C     0.02728   0.92651   0.20195   0.00000  Uiso   1.00
Cu303  Cu    0.25500   0.83913   0.22813   0.00000  Uiso   1.00
Cu304  Cu    0.24499   0.82754   0.10521   0.00000  Uiso   1.00
N305   N     0.23744   0.81881   0.01284   0.00000  Uiso   1.00
N306   N     0.26255   0.84786   0.32049   0.00000  Uiso   1.00
O307   O     0.25325   0.76204   0.20659   0.00000  Uiso   1.00
O308   O     0.24674   0.90462   0.12674   0.00000  Uiso   1.00
O309   O     0.24480   0.75226   0.10279   0.00000  Uiso   1.00
O310   O     0.25520   0.91441   0.23055   0.00000  Uiso   1.00
O311   O     0.18935   0.83821   0.21857   0.00000  Uiso   1.00
O312   O     0.31064   0.82845   0.11476   0.00000  Uiso   1.00
O313   O     0.18090   0.82843   0.11477   0.00000  Uiso   1.00
O314   O     0.31910   0.83824   0.21857   0.00000  Uiso   1.00
O315   O     0.38691   0.92625   0.19978   0.00000  Uiso   1.00
C316   C     0.37493   0.94630   0.14780   0.00000  Uiso   1.00
H317   H     0.35121   0.91917   0.11412   0.00000  Uiso   1.00
H318   H     0.40492   0.95544   0.12488   0.00000  Uiso   1.00
H319   H     0.35769   0.98305   0.16326   0.00000  Uiso   1.00
O320   O     0.11234   0.73764   0.13313   0.00000  Uiso   1.00
C321   C     0.11009   0.72434   0.06810   0.00000  Uiso   1.00
H322   H     0.12147   0.68419   0.05285   0.00000  Uiso   1.00
H323   H     0.13246   0.75094   0.05028   0.00000  Uiso   1.00
H324   H     0.07544   0.72434   0.04671   0.00000  Uiso   1.00
O325   O     0.37751   0.73863   0.13040   0.00000  Uiso   1.00
C326   C     0.36985   0.72411   0.06571   0.00000  Uiso   1.00
H327   H     0.34769   0.68817   0.05331   0.00000  Uiso   1.00
H328   H     0.40153   0.71515   0.04333   0.00000  Uiso   1.00
H329   H     0.35268   0.75472   0.04701   0.00000  Uiso   1.00
O330   O     0.12011   0.92534   0.18945   0.00000  Uiso   1.00
C331   C     0.11902   0.93956   0.13219   0.00000  Uiso   1.00
H332   H     0.08531   0.95181   0.11899   0.00000  Uiso   1.00
H333   H     0.12936   0.90754   0.09489   0.00000  Uiso   1.00
H334   H     0.14287   0.97326   0.13629   0.00000  Uiso   1.00
H335   H     0.45328   0.69969   0.12794   0.00000  Uiso   1.00
H336   H     0.04626   0.96352   0.21555   0.00000  Uiso   1.00
H337   H     0.03393   0.69926   0.13115   0.00000  Uiso   1.00
H338   H     0.46568   0.96397   0.21455   0.00000  Uiso   1.00
O339   O     0.25807   0.98269   0.08418   0.00000  Uiso   1.00
C340   C     0.21750   0.97149   0.04684   0.00000  Uiso   1.00
H341   H     0.19892   0.67364   0.04575   0.00000  Uiso   1.00
H342   H     0.19561   0.94291   0.06191   0.00000  Uiso   1.00
H343   H     0.22525   0.95339   0.33281   0.00000  Uiso   1.00
O344   O     0.23998   0.68395   0.24900   0.00000  Uiso   1.00
C345   C     0.19358   0.68705   0.25477   0.00000  Uiso   1.00
H346   H     0.17826   0.98157   0.25473   0.00000  Uiso   1.00
H347   H     0.17657   0.70426   0.21870   0.00000  Uiso   1.00
H348   H     0.18801   0.71298   0.29953   0.00000  Uiso   1.00
H349   H     0.21283   0.79652   0.31678   0.00000  Uiso   1.00
H350   H     0.28638   0.87163   0.01673   0.00000  Uiso   1.00
C351   C     0.74868   0.73344   0.15118   0.00000  Uiso   1.00
C352   C     0.75042   0.93320   0.18207   0.00000  Uiso   1.00
C353   C     0.51847   0.73656   0.14093   0.00000  Uiso   1.00
C354   C     0.98098   0.92677   0.20146   0.00000  Uiso   1.00
C355   C     0.74926   0.67768   0.14204   0.00000  Uiso   1.00
C356   C     0.74638   0.98856   0.19036   0.00000  Uiso   1.00
C357   C     0.66450   0.83211   0.16729   0.00000  Uiso   1.00
C358   C     0.83525   0.83264   0.16561   0.00000  Uiso   1.00
C359   C     0.90820   0.88006   0.18080   0.00000  Uiso   1.00
C360   C     0.59104   0.78386   0.15163   0.00000  Uiso   1.00
C361   C     0.88315   0.83249   0.16341   0.00000  Uiso   1.00
C362   C     0.61618   0.83151   0.16852   0.00000  Uiso   1.00
C363   C     0.90358   0.78474   0.14620   0.00000  Uiso   1.00
C364   C     0.59509   0.87909   0.18176   0.00000  Uiso   1.00
C365   C     0.95043   0.78412   0.15077   0.00000  Uiso   1.00
C366   C     0.54863   0.87932   0.18481   0.00000  Uiso   1.00
C367   C     0.97613   0.83184   0.16803   0.00000  Uiso   1.00
C368   C     0.52310   0.83158   0.16952   0.00000  Uiso   1.00
C369   C     0.95497   0.87988   0.18341   0.00000  Uiso   1.00
C370   C     0.54434   0.78367   0.15413   0.00000  Uiso   1.00
C371   C     0.97208   0.73680   0.13905   0.00000  Uiso   1.00
C372   C     0.52728   0.92651   0.20195   0.00000  Uiso   1.00
Cu373  Cu    0.75500   0.83913   0.22813   0.00000  Uiso   1.00
Cu374  Cu    0.74499   0.82754   0.10521   0.00000  Uiso   1.00
N375   N     0.73744   0.81881   0.01284   0.00000  Uiso   1.00
N376   N     0.76255   0.84786   0.32049   0.00000  Uiso   1.00
O377   O     0.75325   0.76204   0.20659   0.00000  Uiso   1.00
O378   O     0.74674   0.90462   0.12674   0.00000  Uiso   1.00
O379   O     0.74480   0.75226   0.10279   0.00000  Uiso   1.00
O380   O     0.75520   0.91441   0.23055   0.00000  Uiso   1.00
O381   O     0.68935   0.83821   0.21857   0.00000  Uiso   1.00
O382   O     0.81064   0.82845   0.11476   0.00000  Uiso   1.00
O383   O     0.68090   0.82843   0.11477   0.00000  Uiso   1.00
O384   O     0.81910   0.83824   0.21857   0.00000  Uiso   1.00
O385   O     0.88691   0.92625   0.19978   0.00000  Uiso   1.00
C386   C     0.87493   0.94630   0.14780   0.00000  Uiso   1.00
H387   H     0.85121   0.91917   0.11412   0.00000  Uiso   1.00
H388   H     0.90492   0.95544   0.12488   0.00000  Uiso   1.00
H389   H     0.85769   0.98305   0.16326   0.00000  Uiso   1.00
O390   O     0.61234   0.73764   0.13313   0.00000  Uiso   1.00
C391   C     0.61009   0.72434   0.06810   0.00000  Uiso   1.00
H392   H     0.62147   0.68419   0.05285   0.00000  Uiso   1.00
H393   H     0.63246   0.75094   0.05028   0.00000  Uiso   1.00
H394   H     0.57544   0.72434   0.04671   0.00000  Uiso   1.00
O395   O     0.87751   0.73863   0.13040   0.00000  Uiso   1.00
C396   C     0.86985   0.72411   0.06571   0.00000  Uiso   1.00
H397   H     0.84769   0.68817   0.05331   0.00000  Uiso   1.00
H398   H     0.90153   0.71515   0.04333   0.00000  Uiso   1.00
H399   H     0.85268   0.75472   0.04701   0.00000  Uiso   1.00
O400   O     0.62011   0.92534   0.18945   0.00000  Uiso   1.00
C401   C     0.61902   0.93956   0.13219   0.00000  Uiso   1.00
H402   H     0.58531   0.95181   0.11899   0.00000  Uiso   1.00
H403   H     0.62936   0.90754   0.09489   0.00000  Uiso   1.00
H404   H     0.64287   0.97326   0.13629   0.00000  Uiso   1.00
H405   H     0.95328   0.69969   0.12794   0.00000  Uiso   1.00
H406   H     0.54626   0.96352   0.21555   0.00000  Uiso   1.00
H407   H     0.53393   0.69926   0.13115   0.00000  Uiso   1.00
H408   H     0.96568   0.96397   0.21455   0.00000  Uiso   1.00
O409   O     0.75807   0.98269   0.08418   0.00000  Uiso   1.00
C410   C     0.71750   0.97149   0.04684   0.00000  Uiso   1.00
H411   H     0.69892   0.67364   0.04575   0.00000  Uiso   1.00
H412   H     0.69561   0.94291   0.06191   0.00000  Uiso   1.00
H413   H     0.72525   0.95339   0.33281   0.00000  Uiso   1.00
O414   O     0.73998   0.68395   0.24900   0.00000  Uiso   1.00
C415   C     0.69358   0.68705   0.25477   0.00000  Uiso   1.00
H416   H     0.67826   0.98157   0.25473   0.00000  Uiso   1.00
H417   H     0.67657   0.70426   0.21870   0.00000  Uiso   1.00
H418   H     0.68801   0.71298   0.29953   0.00000  Uiso   1.00
H419   H     0.71283   0.79652   0.31678   0.00000  Uiso   1.00
H420   H     0.78638   0.87163   0.01673   0.00000  Uiso   1.00
C421   C     0.24868   0.06678   0.48451   0.00000  Uiso   1.00
C422   C     0.25042   0.26653   0.51540   0.00000  Uiso   1.00
C423   C     0.01847   0.06989   0.47426   0.00000  Uiso   1.00
C424   C     0.48098   0.26010   0.53479   0.00000  Uiso   1.00
C425   C     0.24926   0.01101   0.47538   0.00000  Uiso   1.00
C426   C     0.24638   0.32189   0.52370   0.00000  Uiso   1.00
C427   C     0.16450   0.16544   0.50062   0.00000  Uiso   1.00
C428   C     0.33525   0.16598   0.49895   0.00000  Uiso   1.00
C429   C     0.40820   0.21340   0.51414   0.00000  Uiso   1.00
C430   C     0.09104   0.11719   0.48497   0.00000  Uiso   1.00
C431   C     0.38315   0.16582   0.49675   0.00000  Uiso   1.00
C432   C     0.11618   0.16485   0.50185   0.00000  Uiso   1.00
C433   C     0.40358   0.11808   0.47954   0.00000  Uiso   1.00
C434   C     0.09509   0.21242   0.51510   0.00000  Uiso   1.00
C435   C     0.45043   0.11745   0.48411   0.00000  Uiso   1.00
C436   C     0.04863   0.21266   0.51814   0.00000  Uiso   1.00
C437   C     0.47613   0.16518   0.50136   0.00000  Uiso   1.00
C438   C     0.02310   0.16491   0.50286   0.00000  Uiso   1.00
C439   C     0.45497   0.21321   0.51675   0.00000  Uiso   1.00
C440   C     0.04434   0.11700   0.48746   0.00000  Uiso   1.00
C441   C     0.47208   0.07013   0.47238   0.00000  Uiso   1.00
C442   C     0.02728   0.25984   0.53528   0.00000  Uiso   1.00
Cu443  Cu    0.25500   0.17246   0.56146   0.00000  Uiso   1.00
Cu444  Cu    0.24499   0.16087   0.43854   0.00000  Uiso   1.00
N445   N     0.23744   0.15214   0.34617   0.00000  Uiso   1.00
N446   N     0.26255   0.18119   0.65383   0.00000  Uiso   1.00
O447   O     0.25325   0.09538   0.53992   0.00000  Uiso   1.00
O448   O     0.24674   0.23796   0.46008   0.00000  Uiso   1.00
O449   O     0.24480   0.08559   0.43612   0.00000  Uiso   1.00
O450   O     0.25520   0.24774   0.56388   0.00000  Uiso   1.00
O451   O     0.18935   0.17155   0.55191   0.00000  Uiso   1.00
O452   O     0.31064   0.16179   0.44809   0.00000  Uiso   1.00
O453   O     0.18090   0.16176   0.44810   0.00000  Uiso   1.00
O454   O     0.31910   0.17157   0.55190   0.00000  Uiso   1.00
O455   O     0.38691   0.25958   0.53312   0.00000  Uiso   1.00
C456   C     0.37493   0.27964   0.48113   0.00000  Uiso   1.00
H457   H     0.35121   0.25250   0.44745   0.00000  Uiso   1.00
H458   H     0.40492   0.28878   0.45821   0.00000  Uiso   1.00
H459   H     0.35769   0.31638   0.49659   0.00000  Uiso   1.00
O460   O     0.11234   0.07097   0.46647   0.00000  Uiso   1.00
C461   C     0.11009   0.05767   0.40143   0.00000  Uiso   1.00
H462   H     0.12147   0.01752   0.38619   0.00000  Uiso   1.00
H463   H     0.13246   0.08427   0.38362   0.00000  Uiso   1.00
H464   H     0.07544   0.05767   0.38004   0.00000  Uiso   1.00
O465   O     0.37751   0.07197   0.46373   0.00000  Uiso   1.00
C466   C     0.36985   0.05745   0.39905   0.00000  Uiso   1.00
H467   H     0.34769   0.02150   0.38665   0.00000  Uiso   1.00
H468   H     0.40153   0.04848   0.37667   0.00000  Uiso   1.00
H469   H     0.35268   0.08805   0.38034   0.00000  Uiso   1.00
O470   O     0.12011   0.25867   0.52279   0.00000  Uiso   1.00
C471   C     0.11902   0.27289   0.46552   0.00000  Uiso   1.00
H472   H     0.08531   0.28514   0.45232   0.00000  Uiso   1.00
H473   H     0.12936   0.24087   0.42823   0.00000  Uiso   1.00
H474   H     0.14287   0.30660   0.46962   0.00000  Uiso   1.00
H475   H     0.45328   0.03302   0.46127   0.00000  Uiso   1.00
H476   H     0.04626   0.29685   0.54888   0.00000  Uiso   1.00
H477   H     0.03393   0.03260   0.46448   0.00000  Uiso   1.00
H478   H     0.46568   0.29730   0.54788   0.00000  Uiso   1.00
O479   O     0.25807   0.31602   0.41751   0.00000  Uiso   1.00
C480   C     0.21750   0.30482   0.38017   0.00000  Uiso   1.00
H481   H     0.19892   0.00698   0.37909   0.00000  Uiso   1.00
H482   H     0.19561   0.27625   0.39524   0.00000  Uiso   1.00
H483   H     0.22525   0.28672   0.66615   0.00000  Uiso   1.00
O484   O     0.23998   0.01729   0.58233   0.00000  Uiso   1.00
C485   C     0.19358   0.02039   0.58810   0.00000  Uiso   1.00
H486   H     0.17826   0.31490   0.58806   0.00000  Uiso   1.00
H487   H     0.17657   0.03759   0.55203   0.00000  Uiso   1.00
H488   H     0.18801   0.04631   0.63286   0.00000  Uiso   1.00
H489   H     0.21283   0.12985   0.65012   0.00000  Uiso   1.00
H490   H     0.28638   0.20496   0.35007   0.00000  Uiso   1.00
C491   C     0.74868   0.06678   0.48451   0.00000  Uiso   1.00
C492   C     0.75042   0.26653   0.51540   0.00000  Uiso   1.00
C493   C     0.51847   0.06989   0.47426   0.00000  Uiso   1.00
C494   C     0.98098   0.26010   0.53479   0.00000  Uiso   1.00
C495   C     0.74926   0.01101   0.47538   0.00000  Uiso   1.00
C496   C     0.74638   0.32189   0.52370   0.00000  Uiso   1.00
C497   C     0.66450   0.16544   0.50062   0.00000  Uiso   1.00
C498   C     0.83525   0.16598   0.49895   0.00000  Uiso   1.00
C499   C     0.90820   0.21340   0.51414   0.00000  Uiso   1.00
C500   C     0.59104   0.11719   0.48497   0.00000  Uiso   1.00
C501   C     0.88315   0.16582   0.49675   0.00000  Uiso   1.00
C502   C     0.61618   0.16485   0.50185   0.00000  Uiso   1.00
C503   C     0.90358   0.11808   0.47954   0.00000  Uiso   1.00
C504   C     0.59509   0.21242   0.51510   0.00000  Uiso   1.00
C505   C     0.95043   0.11745   0.48411   0.00000  Uiso   1.00
C506   C     0.54863   0.21266   0.51814   0.00000  Uiso   1.00
C507   C     0.97613   0.16518   0.50136   0.00000  Uiso   1.00
C508   C     0.52310   0.16491   0.50286   0.00000  Uiso   1.00
C509   C     0.95497   0.21321   0.51675   0.00000  Uiso   1.00
C510   C     0.54434   0.11700   0.48746   0.00000  Uiso   1.00
C511   C     0.97208   0.07013   0.47238   0.00000  Uiso   1.00
C512   C     0.52728   0.25984   0.53528   0.00000  Uiso   1.00
Cu513  Cu    0.75500   0.17246   0.56146   0.00000  Uiso   1.00
Cu514  Cu    0.74499   0.16087   0.43854   0.00000  Uiso   1.00
N515   N     0.73744   0.15214   0.34617   0.00000  Uiso   1.00
N516   N     0.76255   0.18119   0.65383   0.00000  Uiso   1.00
O517   O     0.75325   0.09538   0.53992   0.00000  Uiso   1.00
O518   O     0.74674   0.23796   0.46008   0.00000  Uiso   1.00
O519   O     0.74480   0.08559   0.43612   0.00000  Uiso   1.00
O520   O     0.75520   0.24774   0.56388   0.00000  Uiso   1.00
O521   O     0.68935   0.17155   0.55191   0.00000  Uiso   1.00
O522   O     0.81064   0.16179   0.44809   0.00000  Uiso   1.00
O523   O     0.68090   0.16176   0.44810   0.00000  Uiso   1.00
O524   O     0.81910   0.17157   0.55190   0.00000  Uiso   1.00
O525   O     0.88691   0.25958   0.53312   0.00000  Uiso   1.00
C526   C     0.87493   0.27964   0.48113   0.00000  Uiso   1.00
H527   H     0.85121   0.25250   0.44745   0.00000  Uiso   1.00
H528   H     0.90492   0.28878   0.45821   0.00000  Uiso   1.00
H529   H     0.85769   0.31638   0.49659   0.00000  Uiso   1.00
O530   O     0.61234   0.07097   0.46647   0.00000  Uiso   1.00
C531   C     0.61009   0.05767   0.40143   0.00000  Uiso   1.00
H532   H     0.62147   0.01752   0.38619   0.00000  Uiso   1.00
H533   H     0.63246   0.08427   0.38362   0.00000  Uiso   1.00
H534   H     0.57544   0.05767   0.38004   0.00000  Uiso   1.00
O535   O     0.87751   0.07197   0.46373   0.00000  Uiso   1.00
C536   C     0.86985   0.05745   0.39905   0.00000  Uiso   1.00
H537   H     0.84769   0.02150   0.38665   0.00000  Uiso   1.00
H538   H     0.90153   0.04848   0.37667   0.00000  Uiso   1.00
H539   H     0.85268   0.08805   0.38034   0.00000  Uiso   1.00
O540   O     0.62011   0.25867   0.52279   0.00000  Uiso   1.00
C541   C     0.61902   0.27289   0.46552   0.00000  Uiso   1.00
H542   H     0.58531   0.28514   0.45232   0.00000  Uiso   1.00
H543   H     0.62936   0.24087   0.42823   0.00000  Uiso   1.00
H544   H     0.64287   0.30660   0.46962   0.00000  Uiso   1.00
H545   H     0.95328   0.03302   0.46127   0.00000  Uiso   1.00
H546   H     0.54626   0.29685   0.54888   0.00000  Uiso   1.00
H547   H     0.53393   0.03260   0.46448   0.00000  Uiso   1.00
H548   H     0.96568   0.29730   0.54788   0.00000  Uiso   1.00
O549   O     0.75807   0.31602   0.41751   0.00000  Uiso   1.00
C550   C     0.71750   0.30482   0.38017   0.00000  Uiso   1.00
H551   H     0.69892   0.00698   0.37909   0.00000  Uiso   1.00
H552   H     0.69561   0.27625   0.39524   0.00000  Uiso   1.00
H553   H     0.72525   0.28672   0.66615   0.00000  Uiso   1.00
O554   O     0.73998   0.01729   0.58233   0.00000  Uiso   1.00
C555   C     0.69358   0.02039   0.58810   0.00000  Uiso   1.00
H556   H     0.67826   0.31490   0.58806   0.00000  Uiso   1.00
H557   H     0.67657   0.03759   0.55203   0.00000  Uiso   1.00
H558   H     0.68801   0.04631   0.63286   0.00000  Uiso   1.00
H559   H     0.71283   0.12985   0.65012   0.00000  Uiso   1.00
H560   H     0.78638   0.20496   0.35007   0.00000  Uiso   1.00
C561   C     0.24868   0.40011   0.48451   0.00000  Uiso   1.00
C562   C     0.25042   0.59987   0.51540   0.00000  Uiso   1.00
C563   C     0.01847   0.40323   0.47426   0.00000  Uiso   1.00
C564   C     0.48098   0.59344   0.53479   0.00000  Uiso   1.00
C565   C     0.24926   0.34435   0.47538   0.00000  Uiso   1.00
C566   C     0.24638   0.65523   0.52370   0.00000  Uiso   1.00
C567   C     0.16450   0.49877   0.50062   0.00000  Uiso   1.00
C568   C     0.33525   0.49931   0.49895   0.00000  Uiso   1.00
C569   C     0.40820   0.54673   0.51414   0.00000  Uiso   1.00
C570   C     0.09104   0.45053   0.48497   0.00000  Uiso   1.00
C571   C     0.38315   0.49915   0.49675   0.00000  Uiso   1.00
C572   C     0.11618   0.49818   0.50185   0.00000  Uiso   1.00
C573   C     0.40358   0.45141   0.47954   0.00000  Uiso   1.00
C574   C     0.09509   0.54575   0.51510   0.00000  Uiso   1.00
C575   C     0.45043   0.45079   0.48411   0.00000  Uiso   1.00
C576   C     0.04863   0.54599   0.51814   0.00000  Uiso   1.00
C577   C     0.47613   0.49851   0.50136   0.00000  Uiso   1.00
C578   C     0.02310   0.49824   0.50286   0.00000  Uiso   1.00
C579   C     0.45497   0.54654   0.51675   0.00000  Uiso   1.00
C580   C     0.04434   0.45033   0.48746   0.00000  Uiso   1.00
C581   C     0.47208   0.40346   0.47238   0.00000  Uiso   1.00
C582   C     0.02728   0.59318   0.53528   0.00000  Uiso   1.00
Cu583  Cu    0.25500   0.50579   0.56146   0.00000  Uiso   1.00
Cu584  Cu    0.24499   0.49421   0.43854   0.00000  Uiso   1.00
N585   N     0.23744   0.48547   0.34617   0.00000  Uiso   1.00
N586   N     0.26255   0.51453   0.65383   0.00000  Uiso   1.00
O587   O     0.25325   0.42871   0.53992   0.00000  Uiso   1.00
O588   O     0.24674   0.57129   0.46008   0.00000  Uiso   1.00
O589   O     0.24480   0.41892   0.43612   0.00000  Uiso   1.00
O590   O     0.25520   0.58108   0.56388   0.00000  Uiso   1.00
O591   O     0.18935   0.50488   0.55191   0.00000  Uiso   1.00
O592   O     0.31064   0.49512   0.44809   0.00000  Uiso   1.00
O593   O     0.18090   0.49510   0.44810   0.00000  Uiso   1.00
O594   O     0.31910   0.50490   0.55190   0.00000  Uiso   1.00
O595   O     0.38691   0.59291   0.53312   0.00000  Uiso   1.00
C596   C     0.37493   0.61297   0.48113   0.00000  Uiso   1.00
H597   H     0.35121   0.58584   0.44745   0.00000  Uiso   1.00
H598   H     0.40492   0.62211   0.45821   0.00000  Uiso   1.00
H599   H     0.35769   0.64971   0.49659   0.00000  Uiso   1.00
O600   O     0.11234   0.40431   0.46647   0.00000  Uiso   1.00
C601   C     0.11009   0.39100   0.40143   0.00000  Uiso   1.00
H602   H     0.12147   0.35086   0.38619   0.00000  Uiso   1.00
H603   H     0.13246   0.41761   0.38362   0.00000  Uiso   1.00
H604   H     0.07544   0.39100   0.38004   0.00000  Uiso   1.00
O605   O     0.37751   0.40530   0.46373   0.00000  Uiso   1.00
C606   C     0.36985   0.39078   0.39905   0.00000  Uiso   1.00
H607   H     0.34769   0.35484   0.38665   0.00000  Uiso   1.00
H608   H     0.40153   0.38182   0.37667   0.00000  Uiso   1.00
H609   H     0.35268   0.42139   0.38034   0.00000  Uiso   1.00
O610   O     0.12011   0.59200   0.52279   0.00000  Uiso   1.00
C611   C     0.11902   0.60623   0.46552   0.00000  Uiso   1.00
H612   H     0.08531   0.61847   0.45232   0.00000  Uiso   1.00
H613   H     0.12936   0.57421   0.42823   0.00000  Uiso   1.00
H614   H     0.14287   0.63993   0.46962   0.00000  Uiso   1.00
H615   H     0.45328   0.36636   0.46127   0.00000  Uiso   1.00
H616   H     0.04626   0.63019   0.54888   0.00000  Uiso   1.00
H617   H     0.03393   0.36593   0.46448   0.00000  Uiso   1.00
H618   H     0.46568   0.63064   0.54788   0.00000  Uiso   1.00
O619   O     0.25807   0.64936   0.41751   0.00000  Uiso   1.00
C620   C     0.21750   0.63815   0.38017   0.00000  Uiso   1.00
H621   H     0.19892   0.34031   0.37909   0.00000  Uiso   1.00
H622   H     0.19561   0.60958   0.39524   0.00000  Uiso   1.00
H623   H     0.22525   0.62006   0.66615   0.00000  Uiso   1.00
O624   O     0.23998   0.35062   0.58233   0.00000  Uiso   1.00
C625   C     0.19358   0.35372   0.58810   0.00000  Uiso   1.00
H626   H     0.17826   0.64824   0.58806   0.00000  Uiso   1.00
H627   H     0.17657   0.37093   0.55203   0.00000  Uiso   1.00
H628   H     0.18801   0.37964   0.63286   0.00000  Uiso   1.00
H629   H     0.21283   0.46318   0.65012   0.00000  Uiso   1.00
H630   H     0.28638   0.53829   0.35007   0.00000  Uiso   1.00
C631   C     0.74868   0.40011   0.48451   0.00000  Uiso   1.00
C632   C     0.75042   0.59987   0.51540   0.00000  Uiso   1.00
C633   C     0.51847   0.40323   0.47426   0.00000  Uiso   1.00
C634   C     0.98098   0.59344   0.53479   0.00000  Uiso   1.00
C635   C     0.74926   0.34435   0.47538   0.00000  Uiso   1.00
C636   C     0.74638   0.65523   0.52370   0.00000  Uiso   1.00
C637   C     0.66450   0.49877   0.50062   0.00000  Uiso   1.00
C638   C     0.83525   0.49931   0.49895   0.00000  Uiso   1.00
C639   C     0.90820   0.54673   0.51414   0.00000  Uiso   1.00
C640   C     0.59104   0.45053   0.48497   0.00000  Uiso   1.00
C641   C     0.88315   0.49915   0.49675   0.00000  Uiso   1.00
C642   C     0.61618   0.49818   0.50185   0.00000  Uiso   1.00
C643   C     0.90358   0.45141   0.47954   0.00000  Uiso   1.00
C644   C     0.59509   0.54575   0.51510   0.00000  Uiso   1.00
C645   C     0.95043   0.45079   0.48411   0.00000  Uiso   1.00
C646   C     0.54863   0.54599   0.51814   0.00000  Uiso   1.00
C647   C     0.97613   0.49851   0.50136   0.00000  Uiso   1.00
C648   C     0.52310   0.49824   0.50286   0.00000  Uiso   1.00
C649   C     0.95497   0.54654   0.51675   0.00000  Uiso   1.00
C650   C     0.54434   0.45033   0.48746   0.00000  Uiso   1.00
C651   C     0.97208   0.40346   0.47238   0.00000  Uiso   1.00
C652   C     0.52728   0.59318   0.53528   0.00000  Uiso   1.00
Cu653  Cu    0.75500   0.50579   0.56146   0.00000  Uiso   1.00
Cu654  Cu    0.74499   0.49421   0.43854   0.00000  Uiso   1.00
N655   N     0.73744   0.48547   0.34617   0.00000  Uiso   1.00
N656   N     0.76255   0.51453   0.65383   0.00000  Uiso   1.00
O657   O     0.75325   0.42871   0.53992   0.00000  Uiso   1.00
O658   O     0.74674   0.57129   0.46008   0.00000  Uiso   1.00
O659   O     0.74480   0.41892   0.43612   0.00000  Uiso   1.00
O660   O     0.75520   0.58108   0.56388   0.00000  Uiso   1.00
O661   O     0.68935   0.50488   0.55191   0.00000  Uiso   1.00
O662   O     0.81064   0.49512   0.44809   0.00000  Uiso   1.00
O663   O     0.68090   0.49510   0.44810   0.00000  Uiso   1.00
O664   O     0.81910   0.50490   0.55190   0.00000  Uiso   1.00
O665   O     0.88691   0.59291   0.53312   0.00000  Uiso   1.00
C666   C     0.87493   0.61297   0.48113   0.00000  Uiso   1.00
H667   H     0.85121   0.58584   0.44745   0.00000  Uiso   1.00
H668   H     0.90492   0.62211   0.45821   0.00000  Uiso   1.00
H669   H     0.85769   0.64971   0.49659   0.00000  Uiso   1.00
O670   O     0.61234   0.40431   0.46647   0.00000  Uiso   1.00
C671   C     0.61009   0.39100   0.40143   0.00000  Uiso   1.00
H672   H     0.62147   0.35086   0.38619   0.00000  Uiso   1.00
H673   H     0.63246   0.41761   0.38362   0.00000  Uiso   1.00
H674   H     0.57544   0.39100   0.38004   0.00000  Uiso   1.00
O675   O     0.87751   0.40530   0.46373   0.00000  Uiso   1.00
C676   C     0.86985   0.39078   0.39905   0.00000  Uiso   1.00
H677   H     0.84769   0.35484   0.38665   0.00000  Uiso   1.00
H678   H     0.90153   0.38182   0.37667   0.00000  Uiso   1.00
H679   H     0.85268   0.42139   0.38034   0.00000  Uiso   1.00
O680   O     0.62011   0.59200   0.52279   0.00000  Uiso   1.00
C681   C     0.61902   0.60623   0.46552   0.00000  Uiso   1.00
H682   H     0.58531   0.61847   0.45232   0.00000  Uiso   1.00
H683   H     0.62936   0.57421   0.42823   0.00000  Uiso   1.00
H684   H     0.64287   0.63993   0.46962   0.00000  Uiso   1.00
H685   H     0.95328   0.36636   0.46127   0.00000  Uiso   1.00
H686   H     0.54626   0.63019   0.54888   0.00000  Uiso   1.00
H687   H     0.53393   0.36593   0.46448   0.00000  Uiso   1.00
H688   H     0.96568   0.63064   0.54788   0.00000  Uiso   1.00
O689   O     0.75807   0.64936   0.41751   0.00000  Uiso   1.00
C690   C     0.71750   0.63815   0.38017   0.00000  Uiso   1.00
H691   H     0.69892   0.34031   0.37909   0.00000  Uiso   1.00
H692   H     0.69561   0.60958   0.39524   0.00000  Uiso   1.00
H693   H     0.72525   0.62006   0.66615   0.00000  Uiso   1.00
O694   O     0.73998   0.35062   0.58233   0.00000  Uiso   1.00
C695   C     0.69358   0.35372   0.58810   0.00000  Uiso   1.00
H696   H     0.67826   0.64824   0.58806   0.00000  Uiso   1.00
H697   H     0.67657   0.37093   0.55203   0.00000  Uiso   1.00
H698   H     0.68801   0.37964   0.63286   0.00000  Uiso   1.00
H699   H     0.71283   0.46318   0.65012   0.00000  Uiso   1.00
H700   H     0.78638   0.53829   0.35007   0.00000  Uiso   1.00
C701   C     0.24868   0.73344   0.48451   0.00000  Uiso   1.00
C702   C     0.25042   0.93320   0.51540   0.00000  Uiso   1.00
C703   C     0.01847   0.73656   0.47426   0.00000  Uiso   1.00
C704   C     0.48098   0.92677   0.53479   0.00000  Uiso   1.00
C705   C     0.24926   0.67768   0.47538   0.00000  Uiso   1.00
C706   C     0.24638   0.98856   0.52370   0.00000  Uiso   1.00
C707   C     0.16450   0.83211   0.50062   0.00000  Uiso   1.00
C708   C     0.33525   0.83264   0.49895   0.00000  Uiso   1.00
C709   C     0.40820   0.88006   0.51414   0.00000  Uiso   1.00
C710   C     0.09104   0.78386   0.48497   0.00000  Uiso   1.00
C711   C     0.38315   0.83249   0.49675   0.00000  Uiso   1.00
C712   C     0.11618   0.83151   0.50185   0.00000  Uiso   1.00
C713   C     0.40358   0.78474   0.47954   0.00000  Uiso   1.00
C714   C     0.09509   0.87909   0.51510   0.00000  Uiso   1.00
C715   C     0.45043   0.78412   0.48411   0.00000  Uiso   1.00
C716   C     0.04863   0.87932   0.51814   0.00000  Uiso   1.00
C717   C     0.47613   0.83184   0.50136   0.00000  Uiso   1.00
C718   C     0.02310   0.83158   0.50286   0.00000  Uiso   1.00
C719   C     0.45497   0.87988   0.51675   0.00000  Uiso   1.00
C720   C     0.04434   0.78367   0.48746   0.00000  Uiso   1.00
C721   C     0.47208   0.73680   0.47238   0.00000  Uiso   1.00
C722   C     0.02728   0.92651   0.53528   0.00000  Uiso   1.00
Cu723  Cu    0.25500   0.83913   0.56146   0.00000  Uiso   1.00
Cu724  Cu    0.24499   0.82754   0.43854   0.00000  Uiso   1.00
N725   N     0.23744   0.81881   0.34617   0.00000  Uiso   1.00
N726   N     0.26255   0.84786   0.65383   0.00000  Uiso   1.00
O727   O     0.25325   0.76204   0.53992   0.00000  Uiso   1.00
O728   O     0.24674   0.90462   0.46008   0.00000  Uiso   1.00
O729   O     0.24480   0.75226   0.43612   0.00000  Uiso   1.00
O730   O     0.25520   0.91441   0.56388   0.00000  Uiso   1.00
O731   O     0.18935   0.83821   0.55191   0.00000  Uiso   1.00
O732   O     0.31064   0.82845   0.44809   0.00000  Uiso   1.00
O733   O     0.18090   0.82843   0.44810   0.00000  Uiso   1.00
O734   O     0.31910   0.83824   0.55190   0.00000  Uiso   1.00
O735   O     0.38691   0.92625   0.53312   0.00000  Uiso   1.00
C736   C     0.37493   0.94630   0.48113   0.00000  Uiso   1.00
H737   H     0.35121   0.91917   0.44745   0.00000  Uiso   1.00
H738   H     0.40492   0.95544   0.45821   0.00000  Uiso   1.00
H739   H     0.35769   0.98305   0.49659   0.00000  Uiso   1.00
O740   O     0.11234   0.73764   0.46647   0.00000  Uiso   1.00
C741   C     0.11009   0.72434   0.40143   0.00000  Uiso   1.00
H742   H     0.12147   0.68419   0.38619   0.00000  Uiso   1.00
H743   H     0.13246   0.75094   0.38362   0.00000  Uiso   1.00
H744   H     0.07544   0.72434   0.38004   0.00000  Uiso   1.00
O745   O     0.37751   0.73863   0.46373   0.00000  Uiso   1.00
C746   C     0.36985   0.72411   0.39905   0.00000  Uiso   1.00
H747   H     0.34769   0.68817   0.38665   0.00000  Uiso   1.00
H748   H     0.40153   0.71515   0.37667   0.00000  Uiso   1.00
H749   H     0.35268   0.75472   0.38034   0.00000  Uiso   1.00
O750   O     0.12011   0.92534   0.52279   0.00000  Uiso   1.00
C751   C     0.11902   0.93956   0.46552   0.00000  Uiso   1.00
H752   H     0.08531   0.95181   0.45232   0.00000  Uiso   1.00
H753   H     0.12936   0.90754   0.42823   0.00000  Uiso   1.00
H754   H     0.14287   0.97326   0.46962   0.00000  Uiso   1.00
H755   H     0.45328   0.69969   0.46127   0.00000  Uiso   1.00
H756   H     0.04626   0.96352   0.54888   0.00000  Uiso   1.00
H757   H     0.03393   0.69926   0.46448   0.00000  Uiso   1.00
H758   H     0.46568   0.96397   0.54788   0.00000  Uiso   1.00
O759   O     0.25807   0.98269   0.41751   0.00000  Uiso   1.00
C760   C     0.21750   0.97149   0.38017   0.00000  Uiso   1.00
H761   H     0.19892   0.67364   0.37909   0.00000  Uiso   1.00
H762   H     0.19561   0.94291   0.39524   0.00000  Uiso   1.00
H763   H     0.22525   0.95339   0.66615   0.00000  Uiso   1.00
O764   O     0.23998   0.68395   0.58233   0.00000  Uiso   1.00
C765   C     0.19358   0.68705   0.58810   0.00000  Uiso   1.00
H766   H     0.17826   0.98157   0.58806   0.00000  Uiso   1.00
H767   H     0.17657   0.70426   0.55203   0.00000  Uiso   1.00
H768   H     0.18801   0.71298   0.63286   0.00000  Uiso   1.00
H769   H     0.21283   0.79652   0.65012   0.00000  Uiso   1.00
H770   H     0.28638   0.87163   0.35007   0.00000  Uiso   1.00
C771   C     0.74868   0.73344   0.48451   0.00000  Uiso   1.00
C772   C     0.75042   0.93320   0.51540   0.00000  Uiso   1.00
C773   C     0.51847   0.73656   0.47426   0.00000  Uiso   1.00
C774   C     0.98098   0.92677   0.53479   0.00000  Uiso   1.00
C775   C     0.74926   0.67768   0.47538   0.00000  Uiso   1.00
C776   C     0.74638   0.98856   0.52370   0.00000  Uiso   1.00
C777   C     0.66450   0.83211   0.50062   0.00000  Uiso   1.00
C778   C     0.83525   0.83264   0.49895   0.00000  Uiso   1.00
C779   C     0.90820   0.88006   0.51414   0.00000  Uiso   1.00
C780   C     0.59104   0.78386   0.48497   0.00000  Uiso   1.00
C781   C     0.88315   0.83249   0.49675   0.00000  Uiso   1.00
C782   C     0.61618   0.83151   0.50185   0.00000  Uiso   1.00
C783   C     0.90358   0.78474   0.47954   0.00000  Uiso   1.00
C784   C     0.59509   0.87909   0.51510   0.00000  Uiso   1.00
C785   C     0.95043   0.78412   0.48411   0.00000  Uiso   1.00
C786   C     0.54863   0.87932   0.51814   0.00000  Uiso   1.00
C787   C     0.97613   0.83184   0.50136   0.00000  Uiso   1.00
C788   C     0.52310   0.83158   0.50286   0.00000  Uiso   1.00
C789   C     0.95497   0.87988   0.51675   0.00000  Uiso   1.00
C790   C     0.54434   0.78367   0.48746   0.00000  Uiso   1.00
C791   C     0.97208   0.73680   0.47238   0.00000  Uiso   1.00
C792   C     0.52728   0.92651   0.53528   0.00000  Uiso   1.00
Cu793  Cu    0.75500   0.83913   0.56146   0.00000  Uiso   1.00
Cu794  Cu    0.74499   0.82754   0.43854   0.00000  Uiso   1.00
N795   N     0.73744   0.81881   0.34617   0.00000  Uiso   1.00
N796   N     0.76255   0.84786   0.65383   0.00000  Uiso   1.00
O797   O     0.75325   0.76204   0.53992   0.00000  Uiso   1.00
O798   O     0.74674   0.90462   0.46008   0.00000  Uiso   1.00
O799   O     0.74480   0.75226   0.43612   0.00000  Uiso   1.00
O800   O     0.75520   0.91441   0.56388   0.00000  Uiso   1.00
O801   O     0.68935   0.83821   0.55191   0.00000  Uiso   1.00
O802   O     0.81064   0.82845   0.44809   0.00000  Uiso   1.00
O803   O     0.68090   0.82843   0.44810   0.00000  Uiso   1.00
O804   O     0.81910   0.83824   0.55190   0.00000  Uiso   1.00
O805   O     0.88691   0.92625   0.53312   0.00000  Uiso   1.00
C806   C     0.87493   0.94630   0.48113   0.00000  Uiso   1.00
H807   H     0.85121   0.91917   0.44745   0.00000  Uiso   1.00
H808   H     0.90492   0.95544   0.45821   0.00000  Uiso   1.00
H809   H     0.85769   0.98305   0.49659   0.00000  Uiso   1.00
O810   O     0.61234   0.73764   0.46647   0.00000  Uiso   1.00
C811   C     0.61009   0.72434   0.40143   0.00000  Uiso   1.00
H812   H     0.62147   0.68419   0.38619   0.00000  Uiso   1.00
H813   H     0.63246   0.75094   0.38362   0.00000  Uiso   1.00
H814   H     0.57544   0.72434   0.38004   0.00000  Uiso   1.00
O815   O     0.87751   0.73863   0.46373   0.00000  Uiso   1.00
C816   C     0.86985   0.72411   0.39905   0.00000  Uiso   1.00
H817   H     0.84769   0.68817   0.38665   0.00000  Uiso   1.00
H818   H     0.90153   0.71515   0.37667   0.00000  Uiso   1.00
H819   H     0.85268   0.75472   0.38034   0.00000  Uiso   1.00
O820   O     0.62011   0.92534   0.52279   0.00000  Uiso   1.00
C821   C     0.61902   0.93956   0.46552   0.00000  Uiso   1.00
H822   H     0.58531   0.95181   0.45232   0.00000  Uiso   1.00
H823   H     0.62936   0.90754   0.42823   0.00000  Uiso   1.00
H824   H     0.64287   0.97326   0.46962   0.00000  Uiso   1.00
H825   H     0.95328   0.69969   0.46127   0.00000  Uiso   1.00
H826   H     0.54626   0.96352   0.54888   0.00000  Uiso   1.00
H827   H     0.53393   0.69926   0.46448   0.00000  Uiso   1.00
H828   H     0.96568   0.96397   0.54788   0.00000  Uiso   1.00
O829   O     0.75807   0.98269   0.41751   0.00000  Uiso   1.00
C830   C     0.71750   0.97149   0.38017   0.00000  Uiso   1.00
H831   H     0.69892   0.67364   0.37909   0.00000  Uiso   1.00
H832   H     0.69561   0.94291   0.39524   0.00000  Uiso   1.00
H833   H     0.72525   0.95339   0.66615   0.00000  Uiso   1.00
O834   O     0.73998   0.68395   0.58233   0.00000  Uiso   1.00
C835   C     0.69358   0.68705   0.58810   0.00000  Uiso   1.00
H836   H     0.67826   0.98157   0.58806   0.00000  Uiso   1.00
H837   H     0.67657   0.70426   0.55203   0.00000  Uiso   1.00
H838   H     0.68801   0.71298   0.63286   0.00000  Uiso   1.00
H839   H     0.71283   0.79652   0.65012   0.00000  Uiso   1.00
H840   H     0.78638   0.87163   0.35007   0.00000  Uiso   1.00
C841   C     0.24868   0.06678   0.81784   0.00000  Uiso   1.00
C842   C     0.25042   0.26653   0.84874   0.00000  Uiso   1.00
C843   C     0.01847   0.06989   0.80759   0.00000  Uiso   1.00
C844   C     0.48098   0.26010   0.86812   0.00000  Uiso   1.00
C845   C     0.24926   0.01101   0.80871   0.00000  Uiso   1.00
C846   C     0.24638   0.32189   0.85703   0.00000  Uiso   1.00
C847   C     0.16450   0.16544   0.83395   0.00000  Uiso   1.00
C848   C     0.33525   0.16598   0.83228   0.00000  Uiso   1.00
C849   C     0.40820   0.21340   0.84747   0.00000  Uiso   1.00
C850   C     0.09104   0.11719   0.81830   0.00000  Uiso   1.00
C851   C     0.38315   0.16582   0.83008   0.00000  Uiso   1.00
C852   C     0.11618   0.16485   0.83518   0.00000  Uiso   1.00
C853   C     0.40358   0.11808   0.81287   0.00000  Uiso   1.00
C854   C     0.09509   0.21242   0.84843   0.00000  Uiso   1.00
C855   C     0.45043   0.11745   0.81744   0.00000  Uiso   1.00
C856   C     0.04863   0.21266   0.85147   0.00000  Uiso   1.00
C857   C     0.47613   0.16518   0.83469   0.00000  Uiso   1.00
C858   C     0.02310   0.16491   0.83619   0.00000  Uiso   1.00
C859   C     0.45497   0.21321   0.85008   0.00000  Uiso   1.00
C860   C     0.04434   0.11700   0.82080   0.00000  Uiso   1.00
C861   C     0.47208   0.07013   0.80572   0.00000  Uiso   1.00
C862   C     0.02728   0.25984   0.86861   0.00000  Uiso   1.00
Cu863  Cu    0.25500   0.17246   0.89479   0.00000  Uiso   1.00
Cu864  Cu    0.24499   0.16087   0.77187   0.00000  Uiso   1.00
N865   N     0.23744   0.15214   0.67951   0.00000  Uiso   1.00
N866   N     0.26255   0.18119   0.98716   0.00000  Uiso   1.00
O867   O     0.25325   0.09538   0.87326   0.00000  Uiso   1.00
O868   O     0.24674   0.23796   0.79341   0.00000  Uiso   1.00
O869   O     0.24480   0.08559   0.76945   0.00000  Uiso   1.00
O870   O     0.25520   0.24774   0.89721   0.00000  Uiso   1.00
O871   O     0.18935   0.17155   0.88524   0.00000  Uiso   1.00
O872   O     0.31064   0.16179   0.78143   0.00000  Uiso   1.00
O873   O     0.18090   0.16176   0.78143   0.00000  Uiso   1.00
O874   O     0.31910   0.17157   0.88523   0.00000  Uiso   1.00
O875   O     0.38691   0.25958   0.86645   0.00000  Uiso   1.00
C876   C     0.37493   0.27964   0.81446   0.00000  Uiso   1.00
H877   H     0.35121   0.25250   0.78079   0.00000  Uiso   1.00
H878   H     0.40492   0.28878   0.79155   0.00000  Uiso   1.00
H879   H     0.35769   0.31638   0.82992   0.00000  Uiso   1.00
O880   O     0.11234   0.07097   0.79980   0.00000  Uiso   1.00
C881   C     0.11009   0.05767   0.73476   0.00000  Uiso   1.00
H882   H     0.12147   0.01752   0.71952   0.00000  Uiso   1.00
H883   H     0.13246   0.08427   0.71695   0.00000  Uiso   1.00
H884   H     0.07544   0.05767   0.71338   0.00000  Uiso   1.00
O885   O     0.37751   0.07197   0.79707   0.00000  Uiso   1.00
C886   C     0.36985   0.05745   0.73238   0.00000  Uiso   1.00
H887   H     0.34769   0.02150   0.71998   0.00000  Uiso   1.00
H888   H     0.40153   0.04848   0.71000   0.00000  Uiso   1.00
H889   H     0.35268   0.08805   0.71367   0.00000  Uiso   1.00
O890   O     0.12011   0.25867   0.85612   0.00000  Uiso   1.00
C891   C     0.11902   0.27289   0.79885   0.00000  Uiso   1.00
H892   H     0.08531   0.28514   0.78566   0.00000  Uiso   1.00
H893   H     0.12936   0.24087   0.76156   0.00000  Uiso   1.00
H894   H     0.14287   0.30660   0.80296   0.00000  Uiso   1.00
H895   H     0.45328   0.03302   0.79461   0.00000  Uiso   1.00
H896   H     0.04626   0.29685   0.88222   0.00000  Uiso   1.00
H897   H     0.03393   0.03260   0.79782   0.00000  Uiso   1.00
H898   H     0.46568   0.29730   0.88121   0.00000  Uiso   1.00
O899   O     0.25807   0.31602   0.75085   0.00000  Uiso   1.00
C900   C     0.21750   0.30482   0.71350   0.00000  Uiso   1.00
H901   H     0.19892   0.00698   0.71242   0.00000  Uiso   1.00
H902   H     0.19561   0.27625   0.72857   0.00000  Uiso   1.00
H903   H     0.22525   0.28672   0.99948   0.00000  Uiso   1.00
O904   O     0.23998   0.01729   0.91567   0.00000  Uiso   1.00
C905   C     0.19358   0.02039   0.92144   0.00000  Uiso   1.00
H906   H     0.17826   0.31490   0.92140   0.00000  Uiso   1.00
H907   H     0.17657   0.03759   0.88537   0.00000  Uiso   1.00
H908   H     0.18801   0.04631   0.96619   0.00000  Uiso   1.00
H909   H     0.21283   0.12985   0.98345   0.00000  Uiso   1.00
H910   H     0.28638   0.20496   0.68340   0.00000  Uiso   1.00
C911   C     0.74868   0.06678   0.81784   0.00000  Uiso   1.00
C912   C     0.75042   0.26653   0.84874   0.00000  Uiso   1.00
C913   C     0.51847   0.06989   0.80759   0.00000  Uiso   1.00
C914   C     0.98098   0.26010   0.86812   0.00000  Uiso   1.00
C915   C     0.74926   0.01101   0.80871   0.00000  Uiso   1.00
C916   C     0.74638   0.32189   0.85703   0.00000  Uiso   1.00
C917   C     0.66450   0.16544   0.83395   0.00000  Uiso   1.00
C918   C     0.83525   0.16598   0.83228   0.00000  Uiso   1.00
C919   C     0.90820   0.21340   0.84747   0.00000  Uiso   1.00
C920   C     0.59104   0.11719   0.81830   0.00000  Uiso   1.00
C921   C     0.88315   0.16582   0.83008   0.00000  Uiso   1.00
C922   C     0.61618   0.16485   0.83518   0.00000  Uiso   1.00
C923   C     0.90358   0.11808   0.81287   0.00000  Uiso   1.00
C924   C     0.59509   0.21242   0.84843   0.00000  Uiso   1.00
C925   C     0.95043   0.11745   0.81744   0.00000  Uiso   1.00
C926   C     0.54863   0.21266   0.85147   0.00000  Uiso   1.00
C927   C     0.97613   0.16518   0.83469   0.00000  Uiso   1.00
C928   C     0.52310   0.16491   0.83619   0.00000  Uiso   1.00
C929   C     0.95497   0.21321   0.85008   0.00000  Uiso   1.00
C930   C     0.54434   0.11700   0.82080   0.00000  Uiso   1.00
C931   C     0.97208   0.07013   0.80572   0.00000  Uiso   1.00
C932   C     0.52728   0.25984   0.86861   0.00000  Uiso   1.00
Cu933  Cu    0.75500   0.17246   0.89479   0.00000  Uiso   1.00
Cu934  Cu    0.74499   0.16087   0.77187   0.00000  Uiso   1.00
N935   N     0.73744   0.15214   0.67951   0.00000  Uiso   1.00
N936   N     0.76255   0.18119   0.98716   0.00000  Uiso   1.00
O937   O     0.75325   0.09538   0.87326   0.00000  Uiso   1.00
O938   O     0.74674   0.23796   0.79341   0.00000  Uiso   1.00
O939   O     0.74480   0.08559   0.76945   0.00000  Uiso   1.00
O940   O     0.75520   0.24774   0.89721   0.00000  Uiso   1.00
O941   O     0.68935   0.17155   0.88524   0.00000  Uiso   1.00
O942   O     0.81064   0.16179   0.78143   0.00000  Uiso   1.00
O943   O     0.68090   0.16176   0.78143   0.00000  Uiso   1.00
O944   O     0.81910   0.17157   0.88523   0.00000  Uiso   1.00
O945   O     0.88691   0.25958   0.86645   0.00000  Uiso   1.00
C946   C     0.87493   0.27964   0.81446   0.00000  Uiso   1.00
H947   H     0.85121   0.25250   0.78079   0.00000  Uiso   1.00
H948   H     0.90492   0.28878   0.79155   0.00000  Uiso   1.00
H949   H     0.85769   0.31638   0.82992   0.00000  Uiso   1.00
O950   O     0.61234   0.07097   0.79980   0.00000  Uiso   1.00
C951   C     0.61009   0.05767   0.73476   0.00000  Uiso   1.00
H952   H     0.62147   0.01752   0.71952   0.00000  Uiso   1.00
H953   H     0.63246   0.08427   0.71695   0.00000  Uiso   1.00
H954   H     0.57544   0.05767   0.71338   0.00000  Uiso   1.00
O955   O     0.87751   0.07197   0.79707   0.00000  Uiso   1.00
C956   C     0.86985   0.05745   0.73238   0.00000  Uiso   1.00
H957   H     0.84769   0.02150   0.71998   0.00000  Uiso   1.00
H958   H     0.90153   0.04848   0.71000   0.00000  Uiso   1.00
H959   H     0.85268   0.08805   0.71367   0.00000  Uiso   1.00
O960   O     0.62011   0.25867   0.85612   0.00000  Uiso   1.00
C961   C     0.61902   0.27289   0.79885   0.00000  Uiso   1.00
H962   H     0.58531   0.28514   0.78566   0.00000  Uiso   1.00
H963   H     0.62936   0.24087   0.76156   0.00000  Uiso   1.00
H964   H     0.64287   0.30660   0.80296   0.00000  Uiso   1.00
H965   H     0.95328   0.03302   0.79461   0.00000  Uiso   1.00
H966   H     0.54626   0.29685   0.88222   0.00000  Uiso   1.00
H967   H     0.53393   0.03260   0.79782   0.00000  Uiso   1.00
H968   H     0.96568   0.29730   0.88121   0.00000  Uiso   1.00
O969   O     0.75807   0.31602   0.75085   0.00000  Uiso   1.00
C970   C     0.71750   0.30482   0.71350   0.00000  Uiso   1.00
H971   H     0.69892   0.00698   0.71242   0.00000  Uiso   1.00
H972   H     0.69561   0.27625   0.72857   0.00000  Uiso   1.00
H973   H     0.72525   0.28672   0.99948   0.00000  Uiso   1.00
O974   O     0.73998   0.01729   0.91567   0.00000  Uiso   1.00
C975   C     0.69358   0.02039   0.92144   0.00000  Uiso   1.00
H976   H     0.67826   0.31490   0.92140   0.00000  Uiso   1.00
H977   H     0.67657   0.03759   0.88537   0.00000  Uiso   1.00
H978   H     0.68801   0.04631   0.96619   0.00000  Uiso   1.00
H979   H     0.71283   0.12985   0.98345   0.00000  Uiso   1.00
H980   H     0.78638   0.20496   0.68340   0.00000  Uiso   1.00
C981   C     0.24868   0.40011   0.81784   0.00000  Uiso   1.00
C982   C     0.25042   0.59987   0.84874   0.00000  Uiso   1.00
C983   C     0.01847   0.40323   0.80759   0.00000  Uiso   1.00
C984   C     0.48098   0.59344   0.86812   0.00000  Uiso   1.00
C985   C     0.24926   0.34435   0.80871   0.00000  Uiso   1.00
C986   C     0.24638   0.65523   0.85703   0.00000  Uiso   1.00
C987   C     0.16450   0.49877   0.83395   0.00000  Uiso   1.00
C988   C     0.33525   0.49931   0.83228   0.00000  Uiso   1.00
C989   C     0.40820   0.54673   0.84747   0.00000  Uiso   1.00
C990   C     0.09104   0.45053   0.81830   0.00000  Uiso   1.00
C991   C     0.38315   0.49915   0.83008   0.00000  Uiso   1.00
C992   C     0.11618   0.49818   0.83518   0.00000  Uiso   1.00
C993   C     0.40358   0.45141   0.81287   0.00000  Uiso   1.00
C994   C     0.09509   0.54575   0.84843   0.00000  Uiso   1.00
C995   C     0.45043   0.45079   0.81744   0.00000  Uiso   1.00
C996   C     0.04863   0.54599   0.85147   0.00000  Uiso   1.00
C997   C     0.47613   0.49851   0.83469   0.00000  Uiso   1.00
C998   C     0.02310   0.49824   0.83619   0.00000  Uiso   1.00
C999   C     0.45497   0.54654   0.85008   0.00000  Uiso   1.00
C1000  C     0.04434   0.45033   0.82080   0.00000  Uiso   1.00
C1001  C     0.47208   0.40346   0.80572   0.00000  Uiso   1.00
C1002  C     0.02728   0.59318   0.86861   0.00000  Uiso   1.00
Cu1003 Cu    0.25500   0.50579   0.89479   0.00000  Uiso   1.00
Cu1004 Cu    0.24499   0.49421   0.77187   0.00000  Uiso   1.00
N1005  N     0.23744   0.48547   0.67951   0.00000  Uiso   1.00
N1006  N     0.26255   0.51453   0.98716   0.00000  Uiso   1.00
O1007  O     0.25325   0.42871   0.87326   0.00000  Uiso   1.00
O1008  O     0.24674   0.57129   0.79341   0.00000  Uiso   1.00
O1009  O     0.24480   0.41892   0.76945   0.00000  Uiso   1.00
O1010  O     0.25520   0.58108   0.89721   0.00000  Uiso   1.00
O1011  O     0.18935   0.50488   0.88524   0.00000  Uiso   1.00
O1012  O     0.31064   0.49512   0.78143   0.00000  Uiso   1.00
O1013  O     0.18090   0.49510   0.78143   0.00000  Uiso   1.00
O1014  O     0.31910   0.50490   0.88523   0.00000  Uiso   1.00
O1015  O     0.38691   0.59291   0.86645   0.00000  Uiso   1.00
C1016  C     0.37493   0.61297   0.81446   0.00000  Uiso   1.00
H1017  H     0.35121   0.58584   0.78079   0.00000  Uiso   1.00
H1018  H     0.40492   0.62211   0.79155   0.00000  Uiso   1.00
H1019  H     0.35769   0.64971   0.82992   0.00000  Uiso   1.00
O1020  O     0.11234   0.40431   0.79980   0.00000  Uiso   1.00
C1021  C     0.11009   0.39100   0.73476   0.00000  Uiso   1.00
H1022  H     0.12147   0.35086   0.71952   0.00000  Uiso   1.00
H1023  H     0.13246   0.41761   0.71695   0.00000  Uiso   1.00
H1024  H     0.07544   0.39100   0.71338   0.00000  Uiso   1.00
O1025  O     0.37751   0.40530   0.79707   0.00000  Uiso   1.00
C1026  C     0.36985   0.39078   0.73238   0.00000  Uiso   1.00
H1027  H     0.34769   0.35484   0.71998   0.00000  Uiso   1.00
H1028  H     0.40153   0.38182   0.71000   0.00000  Uiso   1.00
H1029  H     0.35268   0.42139   0.71367   0.00000  Uiso   1.00
O1030  O     0.12011   0.59200   0.85612   0.00000  Uiso   1.00
C1031  C     0.11902   0.60623   0.79885   0.00000  Uiso   1.00
H1032  H     0.08531   0.61847   0.78566   0.00000  Uiso   1.00
H1033  H     0.12936   0.57421   0.76156   0.00000  Uiso   1.00
H1034  H     0.14287   0.63993   0.80296   0.00000  Uiso   1.00
H1035  H     0.45328   0.36636   0.79461   0.00000  Uiso   1.00
H1036  H     0.04626   0.63019   0.88222   0.00000  Uiso   1.00
H1037  H     0.03393   0.36593   0.79782   0.00000  Uiso   1.00
H1038  H     0.46568   0.63064   0.88121   0.00000  Uiso   1.00
O1039  O     0.25807   0.64936   0.75085   0.00000  Uiso   1.00
C1040  C     0.21750   0.63815   0.71350   0.00000  Uiso   1.00
H1041  H     0.19892   0.34031   0.71242   0.00000  Uiso   1.00
H1042  H     0.19561   0.60958   0.72857   0.00000  Uiso   1.00
H1043  H     0.22525   0.62006   0.99948   0.00000  Uiso   1.00
O1044  O     0.23998   0.35062   0.91567   0.00000  Uiso   1.00
C1045  C     0.19358   0.35372   0.92144   0.00000  Uiso   1.00
H1046  H     0.17826   0.64824   0.92140   0.00000  Uiso   1.00
H1047  H     0.17657   0.37093   0.88537   0.00000  Uiso   1.00
H1048  H     0.18801   0.37964   0.96619   0.00000  Uiso   1.00
H1049  H     0.21283   0.46318   0.98345   0.00000  Uiso   1.00
H1050  H     0.28638   0.53829   0.68340   0.00000  Uiso   1.00
C1051  C     0.74868   0.40011   0.81784   0.00000  Uiso   1.00
C1052  C     0.75042   0.59987   0.84874   0.00000  Uiso   1.00
C1053  C     0.51847   0.40323   0.80759   0.00000  Uiso   1.00
C1054  C     0.98098   0.59344   0.86812   0.00000  Uiso   1.00
C1055  C     0.74926   0.34435   0.80871   0.00000  Uiso   1.00
C1056  C     0.74638   0.65523   0.85703   0.00000  Uiso   1.00
C1057  C     0.66450   0.49877   0.83395   0.00000  Uiso   1.00
C1058  C     0.83525   0.49931   0.83228   0.00000  Uiso   1.00
C1059  C     0.90820   0.54673   0.84747   0.00000  Uiso   1.00
C1060  C     0.59104   0.45053   0.81830   0.00000  Uiso   1.00
C1061  C     0.88315   0.49915   0.83008   0.00000  Uiso   1.00
C1062  C     0.61618   0.49818   0.83518   0.00000  Uiso   1.00
C1063  C     0.90358   0.45141   0.81287   0.00000  Uiso   1.00
C1064  C     0.59509   0.54575   0.84843   0.00000  Uiso   1.00
C1065  C     0.95043   0.45079   0.81744   0.00000  Uiso   1.00
C1066  C     0.54863   0.54599   0.85147   0.00000  Uiso   1.00
C1067  C     0.97613   0.49851   0.83469   0.00000  Uiso   1.00
C1068  C     0.52310   0.49824   0.83619   0.00000  Uiso   1.00
C1069  C     0.95497   0.54654   0.85008   0.00000  Uiso   1.00
C1070  C     0.54434   0.45033   0.82080   0.00000  Uiso   1.00
C1071  C     0.97208   0.40346   0.80572   0.00000  Uiso   1.00
C1072  C     0.52728   0.59318   0.86861   0.00000  Uiso   1.00
Cu1073 Cu    0.75500   0.50579   0.89479   0.00000  Uiso   1.00
Cu1074 Cu    0.74499   0.49421   0.77187   0.00000  Uiso   1.00
N1075  N     0.73744   0.48547   0.67951   0.00000  Uiso   1.00
N1076  N     0.76255   0.51453   0.98716   0.00000  Uiso   1.00
O1077  O     0.75325   0.42871   0.87326   0.00000  Uiso   1.00
O1078  O     0.74674   0.57129   0.79341   0.00000  Uiso   1.00
O1079  O     0.74480   0.41892   0.76945   0.00000  Uiso   1.00
O1080  O     0.75520   0.58108   0.89721   0.00000  Uiso   1.00
O1081  O     0.68935   0.50488   0.88524   0.00000  Uiso   1.00
O1082  O     0.81064   0.49512   0.78143   0.00000  Uiso   1.00
O1083  O     0.68090   0.49510   0.78143   0.00000  Uiso   1.00
O1084  O     0.81910   0.50490   0.88523   0.00000  Uiso   1.00
O1085  O     0.88691   0.59291   0.86645   0.00000  Uiso   1.00
C1086  C     0.87493   0.61297   0.81446   0.00000  Uiso   1.00
H1087  H     0.85121   0.58584   0.78079   0.00000  Uiso   1.00
H1088  H     0.90492   0.62211   0.79155   0.00000  Uiso   1.00
H1089  H     0.85769   0.64971   0.82992   0.00000  Uiso   1.00
O1090  O     0.61234   0.40431   0.79980   0.00000  Uiso   1.00
C1091  C     0.61009   0.39100   0.73476   0.00000  Uiso   1.00
H1092  H     0.62147   0.35086   0.71952   0.00000  Uiso   1.00
H1093  H     0.63246   0.41761   0.71695   0.00000  Uiso   1.00
H1094  H     0.57544   0.39100   0.71338   0.00000  Uiso   1.00
O1095  O     0.87751   0.40530   0.79707   0.00000  Uiso   1.00
C1096  C     0.86985   0.39078   0.73238   0.00000  Uiso   1.00
H1097  H     0.84769   0.35484   0.71998   0.00000  Uiso   1.00
H1098  H     0.90153   0.38182   0.71000   0.00000  Uiso   1.00
H1099  H     0.85268   0.42139   0.71367   0.00000  Uiso   1.00
O1100  O     0.62011   0.59200   0.85612   0.00000  Uiso   1.00
C1101  C     0.61902   0.60623   0.79885   0.00000  Uiso   1.00
H1102  H     0.58531   0.61847   0.78566   0.00000  Uiso   1.00
H1103  H     0.62936   0.57421   0.76156   0.00000  Uiso   1.00
H1104  H     0.64287   0.63993   0.80296   0.00000  Uiso   1.00
H1105  H     0.95328   0.36636   0.79461   0.00000  Uiso   1.00
H1106  H     0.54626   0.63019   0.88222   0.00000  Uiso   1.00
H1107  H     0.53393   0.36593   0.79782   0.00000  Uiso   1.00
H1108  H     0.96568   0.63064   0.88121   0.00000  Uiso   1.00
O1109  O     0.75807   0.64936   0.75085   0.00000  Uiso   1.00
C1110  C     0.71750   0.63815   0.71350   0.00000  Uiso   1.00
H1111  H     0.69892   0.34031   0.71242   0.00000  Uiso   1.00
H1112  H     0.69561   0.60958   0.72857   0.00000  Uiso   1.00
H1113  H     0.72525   0.62006   0.99948   0.00000  Uiso   1.00
O1114  O     0.73998   0.35062   0.91567   0.00000  Uiso   1.00
C1115  C     0.69358   0.35372   0.92144   0.00000  Uiso   1.00
H1116  H     0.67826   0.64824   0.92140   0.00000  Uiso   1.00
H1117  H     0.67657   0.37093   0.88537   0.00000  Uiso   1.00
H1118  H     0.68801   0.37964   0.96619   0.00000  Uiso   1.00
H1119  H     0.71283   0.46318   0.98345   0.00000  Uiso   1.00
H1120  H     0.78638   0.53829   0.68340   0.00000  Uiso   1.00
C1121  C     0.24868   0.73344   0.81784   0.00000  Uiso   1.00
C1122  C     0.25042   0.93320   0.84874   0.00000  Uiso   1.00
C1123  C     0.01847   0.73656   0.80759   0.00000  Uiso   1.00
C1124  C     0.48098   0.92677   0.86812   0.00000  Uiso   1.00
C1125  C     0.24926   0.67768   0.80871   0.00000  Uiso   1.00
C1126  C     0.24638   0.98856   0.85703   0.00000  Uiso   1.00
C1127  C     0.16450   0.83211   0.83395   0.00000  Uiso   1.00
C1128  C     0.33525   0.83264   0.83228   0.00000  Uiso   1.00
C1129  C     0.40820   0.88006   0.84747   0.00000  Uiso   1.00
C1130  C     0.09104   0.78386   0.81830   0.00000  Uiso   1.00
C1131  C     0.38315   0.83249   0.83008   0.00000  Uiso   1.00
C1132  C     0.11618   0.83151   0.83518   0.00000  Uiso   1.00
C1133  C     0.40358   0.78474   0.81287   0.00000  Uiso   1.00
C1134  C     0.09509   0.87909   0.84843   0.00000  Uiso   1.00
C1135  C     0.45043   0.78412   0.81744   0.00000  Uiso   1.00
C1136  C     0.04863   0.87932   0.85147   0.00000  Uiso   1.00
C1137  C     0.47613   0.83184   0.83469   0.00000  Uiso   1.00
C1138  C     0.02310   0.83158   0.83619   0.00000  Uiso   1.00
C1139  C     0.45497   0.87988   0.85008   0.00000  Uiso   1.00
C1140  C     0.04434   0.78367   0.82080   0.00000  Uiso   1.00
C1141  C     0.47208   0.73680   0.80572   0.00000  Uiso   1.00
C1142  C     0.02728   0.92651   0.86861   0.00000  Uiso   1.00
Cu1143 Cu    0.25500   0.83913   0.89479   0.00000  Uiso   1.00
Cu1144 Cu    0.24499   0.82754   0.77187   0.00000  Uiso   1.00
N1145  N     0.23744   0.81881   0.67951   0.00000  Uiso   1.00
N1146  N     0.26255   0.84786   0.98716   0.00000  Uiso   1.00
O1147  O     0.25325   0.76204   0.87326   0.00000  Uiso   1.00
O1148  O     0.24674   0.90462   0.79341   0.00000  Uiso   1.00
O1149  O     0.24480   0.75226   0.76945   0.00000  Uiso   1.00
O1150  O     0.25520   0.91441   0.89721   0.00000  Uiso   1.00
O1151  O     0.18935   0.83821   0.88524   0.00000  Uiso   1.00
O1152  O     0.31064   0.82845   0.78143   0.00000  Uiso   1.00
O1153  O     0.18090   0.82843   0.78143   0.00000  Uiso   1.00
O1154  O     0.31910   0.83824   0.88523   0.00000  Uiso   1.00
O1155  O     0.38691   0.92625   0.86645   0.00000  Uiso   1.00
C1156  C     0.37493   0.94630   0.81446   0.00000  Uiso   1.00
H1157  H     0.35121   0.91917   0.78079   0.00000  Uiso   1.00
H1158  H     0.40492   0.95544   0.79155   0.00000  Uiso   1.00
H1159  H     0.35769   0.98305   0.82992   0.00000  Uiso   1.00
O1160  O     0.11234   0.73764   0.79980   0.00000  Uiso   1.00
C1161  C     0.11009   0.72434   0.73476   0.00000  Uiso   1.00
H1162  H     0.12147   0.68419   0.71952   0.00000  Uiso   1.00
H1163  H     0.13246   0.75094   0.71695   0.00000  Uiso   1.00
H1164  H     0.07544   0.72434   0.71338   0.00000  Uiso   1.00
O1165  O     0.37751   0.73863   0.79707   0.00000  Uiso   1.00
C1166  C     0.36985   0.72411   0.73238   0.00000  Uiso   1.00
H1167  H     0.34769   0.68817   0.71998   0.00000  Uiso   1.00
H1168  H     0.40153   0.71515   0.71000   0.00000  Uiso   1.00
H1169  H     0.35268   0.75472   0.71367   0.00000  Uiso   1.00
O1170  O     0.12011   0.92534   0.85612   0.00000  Uiso   1.00
C1171  C     0.11902   0.93956   0.79885   0.00000  Uiso   1.00
H1172  H     0.08531   0.95181   0.78566   0.00000  Uiso   1.00
H1173  H     0.12936   0.90754   0.76156   0.00000  Uiso   1.00
H1174  H     0.14287   0.97326   0.80296   0.00000  Uiso   1.00
H1175  H     0.45328   0.69969   0.79461   0.00000  Uiso   1.00
H1176  H     0.04626   0.96352   0.88222   0.00000  Uiso   1.00
H1177  H     0.03393   0.69926   0.79782   0.00000  Uiso   1.00
H1178  H     0.46568   0.96397   0.88121   0.00000  Uiso   1.00
O1179  O     0.25807   0.98269   0.75085   0.00000  Uiso   1.00
C1180  C     0.21750   0.97149   0.71350   0.00000  Uiso   1.00
H1181  H     0.19892   0.67364   0.71242   0.00000  Uiso   1.00
H1182  H     0.19561   0.94291   0.72857   0.00000  Uiso   1.00
H1183  H     0.22525   0.95339   0.99948   0.00000  Uiso   1.00
O1184  O     0.23998   0.68395   0.91567   0.00000  Uiso   1.00
C1185  C     0.19358   0.68705   0.92144   0.00000  Uiso   1.00
H1186  H     0.17826   0.98157   0.92140   0.00000  Uiso   1.00
H1187  H     0.17657   0.70426   0.88537   0.00000  Uiso   1.00
H1188  H     0.18801   0.71298   0.96619   0.00000  Uiso   1.00
H1189  H     0.21283   0.79652   0.98345   0.00000  Uiso   1.00
H1190  H     0.28638   0.87163   0.68340   0.00000  Uiso   1.00
C1191  C     0.74868   0.73344   0.81784   0.00000  Uiso   1.00
C1192  C     0.75042   0.93320   0.84874   0.00000  Uiso   1.00
C1193  C     0.51847   0.73656   0.80759   0.00000  Uiso   1.00
C1194  C     0.98098   0.92677   0.86812   0.00000  Uiso   1.00
C1195  C     0.74926   0.67768   0.80871   0.00000  Uiso   1.00
C1196  C     0.74638   0.98856   0.85703   0.00000  Uiso   1.00
C1197  C     0.66450   0.83211   0.83395   0.00000  Uiso   1.00
C1198  C     0.83525   0.83264   0.83228   0.00000  Uiso   1.00
C1199  C     0.90820   0.88006   0.84747   0.00000  Uiso   1.00
C1200  C     0.59104   0.78386   0.81830   0.00000  Uiso   1.00
C1201  C     0.88315   0.83249   0.83008   0.00000  Uiso   1.00
C1202  C     0.61618   0.83151   0.83518   0.00000  Uiso   1.00
C1203  C     0.90358   0.78474   0.81287   0.00000  Uiso   1.00
C1204  C     0.59509   0.87909   0.84843   0.00000  Uiso   1.00
C1205  C     0.95043   0.78412   0.81744   0.00000  Uiso   1.00
C1206  C     0.54863   0.87932   0.85147   0.00000  Uiso   1.00
C1207  C     0.97613   0.83184   0.83469   0.00000  Uiso   1.00
C1208  C     0.52310   0.83158   0.83619   0.00000  Uiso   1.00
C1209  C     0.95497   0.87988   0.85008   0.00000  Uiso   1.00
C1210  C     0.54434   0.78367   0.82080   0.00000  Uiso   1.00
C1211  C     0.97208   0.73680   0.80572   0.00000  Uiso   1.00
C1212  C     0.52728   0.92651   0.86861   0.00000  Uiso   1.00
Cu1213 Cu    0.75500   0.83913   0.89479   0.00000  Uiso   1.00
Cu1214 Cu    0.74499   0.82754   0.77187   0.00000  Uiso   1.00
N1215  N     0.73744   0.81881   0.67951   0.00000  Uiso   1.00
N1216  N     0.76255   0.84786   0.98716   0.00000  Uiso   1.00
O1217  O     0.75325   0.76204   0.87326   0.00000  Uiso   1.00
O1218  O     0.74674   0.90462   0.79341   0.00000  Uiso   1.00
O1219  O     0.74480   0.75226   0.76945   0.00000  Uiso   1.00
O1220  O     0.75520   0.91441   0.89721   0.00000  Uiso   1.00
O1221  O     0.68935   0.83821   0.88524   0.00000  Uiso   1.00
O1222  O     0.81064   0.82845   0.78143   0.00000  Uiso   1.00
O1223  O     0.68090   0.82843   0.78143   0.00000  Uiso   1.00
O1224  O     0.81910   0.83824   0.88523   0.00000  Uiso   1.00
O1225  O     0.88691   0.92625   0.86645   0.00000  Uiso   1.00
C1226  C     0.87493   0.94630   0.81446   0.00000  Uiso   1.00
H1227  H     0.85121   0.91917   0.78079   0.00000  Uiso   1.00
H1228  H     0.90492   0.95544   0.79155   0.00000  Uiso   1.00
H1229  H     0.85769   0.98305   0.82992   0.00000  Uiso   1.00
O1230  O     0.61234   0.73764   0.79980   0.00000  Uiso   1.00
C1231  C     0.61009   0.72434   0.73476   0.00000  Uiso   1.00
H1232  H     0.62147   0.68419   0.71952   0.00000  Uiso   1.00
H1233  H     0.63246   0.75094   0.71695   0.00000  Uiso   1.00
H1234  H     0.57544   0.72434   0.71338   0.00000  Uiso   1.00
O1235  O     0.87751   0.73863   0.79707   0.00000  Uiso   1.00
C1236  C     0.86985   0.72411   0.73238   0.00000  Uiso   1.00
H1237  H     0.84769   0.68817   0.71998   0.00000  Uiso   1.00
H1238  H     0.90153   0.71515   0.71000   0.00000  Uiso   1.00
H1239  H     0.85268   0.75472   0.71367   0.00000  Uiso   1.00
O1240  O     0.62011   0.92534   0.85612   0.00000  Uiso   1.00
C1241  C     0.61902   0.93956   0.79885   0.00000  Uiso   1.00
H1242  H     0.58531   0.95181   0.78566   0.00000  Uiso   1.00
H1243  H     0.62936   0.90754   0.76156   0.00000  Uiso   1.00
H1244  H     0.64287   0.97326   0.80296   0.00000  Uiso   1.00
H1245  H     0.95328   0.69969   0.79461   0.00000  Uiso   1.00
H1246  H     0.54626   0.96352   0.88222   0.00000  Uiso   1.00
H1247  H     0.53393   0.69926   0.79782   0.00000  Uiso   1.00
H1248  H     0.96568   0.96397   0.88121   0.00000  Uiso   1.00
O1249  O     0.75807   0.98269   0.75085   0.00000  Uiso   1.00
C1250  C     0.71750   0.97149   0.71350   0.00000  Uiso   1.00
H1251  H     0.69892   0.67364   0.71242   0.00000  Uiso   1.00
H1252  H     0.69561   0.94291   0.72857   0.00000  Uiso   1.00
H1253  H     0.72525   0.95339   0.99948   0.00000  Uiso   1.00
O1254  O     0.73998   0.68395   0.91567   0.00000  Uiso   1.00
C1255  C     0.69358   0.68705   0.92144   0.00000  Uiso   1.00
H1256  H     0.67826   0.98157   0.92140   0.00000  Uiso   1.00
H1257  H     0.67657   0.70426   0.88537   0.00000  Uiso   1.00
H1258  H     0.68801   0.71298   0.96619   0.00000  Uiso   1.00
H1259  H     0.71283   0.79652   0.98345   0.00000  Uiso   1.00
H1260  H     0.78638   0.87163   0.68340   0.00000  Uiso   1.00
loop_
_geom_bond_atom_site_label_1
_geom_bond_atom_site_label_2
_geom_bond_distance
_geom_bond_site_symmetry_2
_ccdc_geom_bond_type
C1     O29     1.287   .     A
C1     C5      1.436   .     S
C1     O27     1.293   .     A
C2     O30     1.290   .     A
C2     O28     1.291   .     A
C2     C6      1.437   .     S
C3     H57     1.083   .     S
C3     C20     1.403   .     A
C3     C91     1.390   1_455 S
C4     H58     1.083   .     S
C4     C19     1.402   .     A
C4     C92     1.388   .     S
C5     C286    1.350   1_545 S
C5     O339    1.388   1_545 S
C6     C145    1.350   .     S
C6     O204    1.388   .     S
C7     O33     1.290   .     A
C7     C12     1.452   .     S
C7     O31     1.299   .     A
C8     O34     1.291   .     A
C8     C11     1.441   .     S
C8     O32     1.293   .     A
C9     C11     1.402   .     A
C9     O35     1.386   .     S
C9     C19     1.400   .     A
C10    C12     1.404   .     A
C10    O40     1.385   .     S
C10    C20     1.406   .     A
C11    C13     1.402   .     A
C12    C14     1.402   .     A
C13    C15     1.403   .     A
C13    O45     1.385   .     S
C14    O50     1.380   .     S
C14    C16     1.400   .     A
C15    C21     1.403   .     A
C15    C17     1.414   .     A
C16    C18     1.412   .     A
C16    C22     1.404   .     A
C17    C19     1.416   .     A
C17    C88     1.407   .     S
C18    C20     1.414   .     A
C18    C87     1.407   1_455 S
C21    H55     1.082   .     S
C21    C73     1.390   .     S
C22    H56     1.083   .     S
C22    C74     1.388   1_455 S
Cu23   Cu24    2.692   .     S
Cu23   O27     1.975   .     S
Cu23   O30     1.970   .     S
Cu23   O34     1.950   .     S
Cu23   N26     2.023   .     S
Cu23   O31     1.965   .     S
Cu24   O32     1.965   .     S
Cu24   O33     1.950   .     S
Cu24   O28     1.975   .     S
Cu24   N25     2.023   .     S
Cu24   O29     1.970   .     S
N25    N866    1.306   1_554 S
N25    H909    1.026   1_554 S
N26    N445    1.306   .     S
N26    H490    1.029   .     S
O35    C36     1.411   .     S
C36    H38     1.112   .     S
C36    H37     1.111   .     S
C36    H39     1.108   .     S
O40    C41     1.414   .     S
C41    H43     1.110   .     S
C41    H44     1.113   .     S
C41    H42     1.107   .     S
O45    C46     1.411   .     S
C46    H49     1.112   .     S
C46    H48     1.112   .     S
C46    H47     1.109   .     S
O50    C51     1.412   .     S
C51    H54     1.105   .     S
C51    H52     1.111   .     S
C51    H53     1.113   .     S
O59    C60     1.411   .     S
O59    C145    1.388   .     S
C60    H62     1.107   .     S
C60    H201    1.107   .     S
C60    H903    1.104   1_554 S
H61    C340    1.107   1_545 S
H63    C480    1.104   .     S
O64    C65     1.410   .     S
O64    C286    1.388   1_545 S
C65    H68     1.104   .     S
C65    H67     1.112   .     S
C65    H346    1.107   1_545 S
H66    C205    1.107   .     S
H69    N445    1.026   .     S
H70    N866    1.029   1_554 S
C71    O99     1.287   .     A
C71    C75     1.436   .     S
C71    O97     1.293   .     A
C72    O100    1.290   .     A
C72    O98     1.291   .     A
C72    C76     1.437   .     S
C73    H127    1.083   .     S
C73    C90     1.403   .     A
C74    H128    1.083   .     S
C74    C89     1.402   .     A
C74    C22     1.388   1_655 S
C75    C356    1.350   1_545 S
C75    O409    1.388   1_545 S
C76    C215    1.350   .     S
C76    O274    1.388   .     S
C77    O103    1.290   .     A
C77    C82     1.452   .     S
C77    O101    1.299   .     A
C78    O104    1.291   .     A
C78    C81     1.441   .     S
C78    O102    1.293   .     A
C79    C81     1.402   .     A
C79    O105    1.386   .     S
C79    C89     1.400   .     A
C80    C82     1.404   .     A
C80    O110    1.385   .     S
C80    C90     1.406   .     A
C81    C83     1.402   .     A
C82    C84     1.402   .     A
C83    C85     1.403   .     A
C83    O115    1.385   .     S
C84    O120    1.380   .     S
C84    C86     1.400   .     A
C85    C91     1.403   .     A
C85    C87     1.414   .     A
C86    C88     1.412   .     A
C86    C92     1.404   .     A
C87    C89     1.416   .     A
C87    C18     1.407   1_655 S
C88    C90     1.414   .     A
C91    H125    1.082   .     S
C91    C3      1.390   1_655 S
C92    H126    1.083   .     S
Cu93   Cu94    2.692   .     S
Cu93   O97     1.975   .     S
Cu93   O100    1.970   .     S
Cu93   O104    1.950   .     S
Cu93   N96     2.023   .     S
Cu93   O101    1.965   .     S
Cu94   O102    1.965   .     S
Cu94   O103    1.950   .     S
Cu94   O98     1.975   .     S
Cu94   N95     2.023   .     S
Cu94   O99     1.970   .     S
N95    N936    1.306   1_554 S
N95    H979    1.026   1_554 S
N96    N515    1.306   .     S
N96    H560    1.029   .     S
O105   C106    1.411   .     S
C106   H108    1.112   .     S
C106   H107    1.111   .     S
C106   H109    1.108   .     S
O110   C111    1.414   .     S
C111   H113    1.110   .     S
C111   H114    1.113   .     S
C111   H112    1.107   .     S
O115   C116    1.411   .     S
C116   H119    1.112   .     S
C116   H118    1.112   .     S
C116   H117    1.109   .     S
O120   C121    1.412   .     S
C121   H124    1.105   .     S
C121   H122    1.111   .     S
C121   H123    1.113   .     S
O129   C130    1.411   .     S
O129   C215    1.388   .     S
C130   H132    1.107   .     S
C130   H271    1.107   .     S
C130   H973    1.104   1_554 S
H131   C410    1.107   1_545 S
H133   C550    1.104   .     S
O134   C135    1.410   .     S
O134   C356    1.388   1_545 S
C135   H138    1.104   .     S
C135   H137    1.112   .     S
C135   H416    1.107   1_545 S
H136   C275    1.107   .     S
H139   N515    1.026   .     S
H140   N936    1.029   1_554 S
C141   O169    1.287   .     A
C141   C145    1.436   .     S
C141   O167    1.293   .     A
C142   O170    1.290   .     A
C142   O168    1.291   .     A
C142   C146    1.437   .     S
C143   H197    1.083   .     S
C143   C160    1.403   .     A
C143   C231    1.390   1_455 S
C144   H198    1.083   .     S
C144   C159    1.402   .     A
C144   C232    1.388   .     S
C146   C285    1.350   .     S
C146   O344    1.388   .     S
C147   O173    1.290   .     A
C147   C152    1.452   .     S
C147   O171    1.299   .     A
C148   O174    1.291   .     A
C148   C151    1.441   .     S
C148   O172    1.293   .     A
C149   C151    1.402   .     A
C149   O175    1.386   .     S
C149   C159    1.400   .     A
C150   C152    1.404   .     A
C150   O180    1.385   .     S
C150   C160    1.406   .     A
C151   C153    1.402   .     A
C152   C154    1.402   .     A
C153   C155    1.403   .     A
C153   O185    1.385   .     S
C154   O190    1.380   .     S
C154   C156    1.400   .     A
C155   C161    1.403   .     A
C155   C157    1.414   .     A
C156   C158    1.412   .     A
C156   C162    1.404   .     A
C157   C159    1.416   .     A
C157   C228    1.407   .     S
C158   C160    1.414   .     A
C158   C227    1.407   1_455 S
C161   H195    1.082   .     S
C161   C213    1.390   .     S
C162   H196    1.083   .     S
C162   C214    1.388   1_455 S
Cu163  Cu164   2.692   .     S
Cu163  O167    1.975   .     S
Cu163  O170    1.970   .     S
Cu163  O174    1.950   .     S
Cu163  N166    2.023   .     S
Cu163  O171    1.965   .     S
Cu164  O172    1.965   .     S
Cu164  O173    1.950   .     S
Cu164  O168    1.975   .     S
Cu164  N165    2.023   .     S
Cu164  O169    1.970   .     S
N165   N1006   1.306   1_554 S
N165   H1049   1.026   1_554 S
N166   N585    1.306   .     S
N166   H630    1.029   .     S
O175   C176    1.411   .     S
C176   H178    1.112   .     S
C176   H177    1.111   .     S
C176   H179    1.108   .     S
O180   C181    1.414   .     S
C181   H183    1.110   .     S
C181   H184    1.113   .     S
C181   H182    1.107   .     S
O185   C186    1.411   .     S
C186   H189    1.112   .     S
C186   H188    1.112   .     S
C186   H187    1.109   .     S
O190   C191    1.412   .     S
C191   H194    1.105   .     S
C191   H192    1.111   .     S
C191   H193    1.113   .     S
O199   C200    1.411   .     S
O199   C285    1.388   .     S
C200   H202    1.107   .     S
C200   H341    1.107   .     S
C200   H1043   1.104   1_554 S
H203   C620    1.104   .     S
O204   C205    1.410   .     S
C205   H208    1.104   .     S
C205   H207    1.112   .     S
H206   C345    1.107   .     S
H209   N585    1.026   .     S
H210   N1006   1.029   1_554 S
C211   O239    1.287   .     A
C211   C215    1.436   .     S
C211   O237    1.293   .     A
C212   O240    1.290   .     A
C212   O238    1.291   .     A
C212   C216    1.437   .     S
C213   H267    1.083   .     S
C213   C230    1.403   .     A
C214   H268    1.083   .     S
C214   C229    1.402   .     A
C214   C162    1.388   1_655 S
C216   C355    1.350   .     S
C216   O414    1.388   .     S
C217   O243    1.290   .     A
C217   C222    1.452   .     S
C217   O241    1.299   .     A
C218   O244    1.291   .     A
C218   C221    1.441   .     S
C218   O242    1.293   .     A
C219   C221    1.402   .     A
C219   O245    1.386   .     S
C219   C229    1.400   .     A
C220   C222    1.404   .     A
C220   O250    1.385   .     S
C220   C230    1.406   .     A
C221   C223    1.402   .     A
C222   C224    1.402   .     A
C223   C225    1.403   .     A
C223   O255    1.385   .     S
C224   O260    1.380   .     S
C224   C226    1.400   .     A
C225   C231    1.403   .     A
C225   C227    1.414   .     A
C226   C228    1.412   .     A
C226   C232    1.404   .     A
C227   C229    1.416   .     A
C227   C158    1.407   1_655 S
C228   C230    1.414   .     A
C231   H265    1.082   .     S
C231   C143    1.390   1_655 S
C232   H266    1.083   .     S
Cu233  Cu234   2.692   .     S
Cu233  O237    1.975   .     S
Cu233  O240    1.970   .     S
Cu233  O244    1.950   .     S
Cu233  N236    2.023   .     S
Cu233  O241    1.965   .     S
Cu234  O242    1.965   .     S
Cu234  O243    1.950   .     S
Cu234  O238    1.975   .     S
Cu234  N235    2.023   .     S
Cu234  O239    1.970   .     S
N235   N1076   1.306   1_554 S
N235   H1119   1.026   1_554 S
N236   N655    1.306   .     S
N236   H700    1.029   .     S
O245   C246    1.411   .     S
C246   H248    1.112   .     S
C246   H247    1.111   .     S
C246   H249    1.108   .     S
O250   C251    1.414   .     S
C251   H253    1.110   .     S
C251   H254    1.113   .     S
C251   H252    1.107   .     S
O255   C256    1.411   .     S
C256   H259    1.112   .     S
C256   H258    1.112   .     S
C256   H257    1.109   .     S
O260   C261    1.412   .     S
C261   H264    1.105   .     S
C261   H262    1.111   .     S
C261   H263    1.113   .     S
O269   C270    1.411   .     S
O269   C355    1.388   .     S
C270   H272    1.107   .     S
C270   H411    1.107   .     S
C270   H1113   1.104   1_554 S
H273   C690    1.104   .     S
O274   C275    1.410   .     S
C275   H278    1.104   .     S
C275   H277    1.112   .     S
H276   C415    1.107   .     S
H279   N655    1.026   .     S
H280   N1076   1.029   1_554 S
C281   O309    1.287   .     A
C281   C285    1.436   .     S
C281   O307    1.293   .     A
C282   O310    1.290   .     A
C282   O308    1.291   .     A
C282   C286    1.437   .     S
C283   H337    1.083   .     S
C283   C300    1.403   .     A
C283   C371    1.390   1_455 S
C284   H338    1.083   .     S
C284   C299    1.402   .     A
C284   C372    1.388   .     S
C286   C5      1.350   1_565 S
C286   O64     1.388   1_565 S
C287   O313    1.290   .     A
C287   C292    1.452   .     S
C287   O311    1.299   .     A
C288   O314    1.291   .     A
C288   C291    1.441   .     S
C288   O312    1.293   .     A
C289   C291    1.402   .     A
C289   O315    1.386   .     S
C289   C299    1.400   .     A
C290   C292    1.404   .     A
C290   O320    1.385   .     S
C290   C300    1.406   .     A
C291   C293    1.402   .     A
C292   C294    1.402   .     A
C293   C295    1.403   .     A
C293   O325    1.385   .     S
C294   O330    1.380   .     S
C294   C296    1.400   .     A
C295   C301    1.403   .     A
C295   C297    1.414   .     A
C296   C298    1.412   .     A
C296   C302    1.404   .     A
C297   C299    1.416   .     A
C297   C368    1.407   .     S
C298   C300    1.414   .     A
C298   C367    1.407   1_455 S
C301   H335    1.082   .     S
C301   C353    1.390   .     S
C302   H336    1.083   .     S
C302   C354    1.388   1_455 S
Cu303  Cu304   2.692   .     S
Cu303  O307    1.975   .     S
Cu303  O310    1.970   .     S
Cu303  O314    1.950   .     S
Cu303  N306    2.023   .     S
Cu303  O311    1.965   .     S
Cu304  O312    1.965   .     S
Cu304  O313    1.950   .     S
Cu304  O308    1.975   .     S
Cu304  N305    2.023   .     S
Cu304  O309    1.970   .     S
N305   N1146   1.306   1_554 S
N305   H1189   1.026   1_554 S
N306   N725    1.306   .     S
N306   H770    1.029   .     S
O315   C316    1.411   .     S
C316   H318    1.112   .     S
C316   H317    1.111   .     S
C316   H319    1.108   .     S
O320   C321    1.414   .     S
C321   H323    1.110   .     S
C321   H324    1.113   .     S
C321   H322    1.107   .     S
O325   C326    1.411   .     S
C326   H329    1.112   .     S
C326   H328    1.112   .     S
C326   H327    1.109   .     S
O330   C331    1.412   .     S
C331   H334    1.105   .     S
C331   H332    1.111   .     S
C331   H333    1.113   .     S
O339   C340    1.411   .     S
O339   C5      1.388   1_565 S
C340   H342    1.107   .     S
C340   H61     1.107   1_565 S
C340   H1183   1.104   1_554 S
H343   C760    1.104   .     S
O344   C345    1.410   .     S
C345   H348    1.104   .     S
C345   H347    1.112   .     S
H346   C65     1.107   1_565 S
H349   N725    1.026   .     S
H350   N1146   1.029   1_554 S
C351   O379    1.287   .     A
C351   C355    1.436   .     S
C351   O377    1.293   .     A
C352   O380    1.290   .     A
C352   O378    1.291   .     A
C352   C356    1.437   .     S
C353   H407    1.083   .     S
C353   C370    1.403   .     A
C354   H408    1.083   .     S
C354   C369    1.402   .     A
C354   C302    1.388   1_655 S
C356   C75     1.350   1_565 S
C356   O134    1.388   1_565 S
C357   O383    1.290   .     A
C357   C362    1.452   .     S
C357   O381    1.299   .     A
C358   O384    1.291   .     A
C358   C361    1.441   .     S
C358   O382    1.293   .     A
C359   C361    1.402   .     A
C359   O385    1.386   .     S
C359   C369    1.400   .     A
C360   C362    1.404   .     A
C360   O390    1.385   .     S
C360   C370    1.406   .     A
C361   C363    1.402   .     A
C362   C364    1.402   .     A
C363   C365    1.403   .     A
C363   O395    1.385   .     S
C364   O400    1.380   .     S
C364   C366    1.400   .     A
C365   C371    1.403   .     A
C365   C367    1.414   .     A
C366   C368    1.412   .     A
C366   C372    1.404   .     A
C367   C369    1.416   .     A
C367   C298    1.407   1_655 S
C368   C370    1.414   .     A
C371   H405    1.082   .     S
C371   C283    1.390   1_655 S
C372   H406    1.083   .     S
Cu373  Cu374   2.692   .     S
Cu373  O377    1.975   .     S
Cu373  O380    1.970   .     S
Cu373  O384    1.950   .     S
Cu373  N376    2.023   .     S
Cu373  O381    1.965   .     S
Cu374  O382    1.965   .     S
Cu374  O383    1.950   .     S
Cu374  O378    1.975   .     S
Cu374  N375    2.023   .     S
Cu374  O379    1.970   .     S
N375   N1216   1.306   1_554 S
N375   H1259   1.026   1_554 S
N376   N795    1.306   .     S
N376   H840    1.029   .     S
O385   C386    1.411   .     S
C386   H388    1.112   .     S
C386   H387    1.111   .     S
C386   H389    1.108   .     S
O390   C391    1.414   .     S
C391   H393    1.110   .     S
C391   H394    1.113   .     S
C391   H392    1.107   .     S
O395   C396    1.411   .     S
C396   H399    1.112   .     S
C396   H398    1.112   .     S
C396   H397    1.109   .     S
O400   C401    1.412   .     S
C401   H404    1.105   .     S
C401   H402    1.111   .     S
C401   H403    1.113   .     S
O409   C410    1.411   .     S
O409   C75     1.388   1_565 S
C410   H412    1.107   .     S
C410   H131    1.107   1_565 S
C410   H1253   1.104   1_554 S
H413   C830    1.104   .     S
O414   C415    1.410   .     S
C415   H418    1.104   .     S
C415   H417    1.112   .     S
H416   C135    1.107   1_565 S
H419   N795    1.026   .     S
H420   N1216   1.029   1_554 S
C421   O449    1.287   .     A
C421   C425    1.436   .     S
C421   O447    1.293   .     A
C422   O450    1.290   .     A
C422   O448    1.291   .     A
C422   C426    1.437   .     S
C423   H477    1.083   .     S
C423   C440    1.403   .     A
C423   C511    1.390   1_455 S
C424   H478    1.083   .     S
C424   C439    1.402   .     A
C424   C512    1.388   .     S
C425   C706    1.350   1_545 S
C425   O759    1.388   1_545 S
C426   C565    1.350   .     S
C426   O624    1.388   .     S
C427   O453    1.290   .     A
C427   C432    1.452   .     S
C427   O451    1.299   .     A
C428   O454    1.291   .     A
C428   C431    1.441   .     S
C428   O452    1.293   .     A
C429   C431    1.402   .     A
C429   O455    1.386   .     S
C429   C439    1.400   .     A
C430   C432    1.404   .     A
C430   O460    1.385   .     S
C430   C440    1.406   .     A
C431   C433    1.402   .     A
C432   C434    1.402   .     A
C433   C435    1.403   .     A
C433   O465    1.385   .     S
C434   O470    1.380   .     S
C434   C436    1.400   .     A
C435   C441    1.403   .     A
C435   C437    1.414   .     A
C436   C438    1.412   .     A
C436   C442    1.404   .     A
C437   C439    1.416   .     A
C437   C508    1.407   .     S
C438   C440    1.414   .     A
C438   C507    1.407   1_455 S
C441   H475    1.082   .     S
C441   C493    1.390   .     S
C442   H476    1.083   .     S
C442   C494    1.388   1_455 S
Cu443  Cu444   2.692   .     S
Cu443  O447    1.975   .     S
Cu443  O450    1.970   .     S
Cu443  O454    1.950   .     S
Cu443  N446    2.023   .     S
Cu443  O451    1.965   .     S
Cu444  O452    1.965   .     S
Cu444  O453    1.950   .     S
Cu444  O448    1.975   .     S
Cu444  N445    2.023   .     S
Cu444  O449    1.970   .     S
N446   N865    1.306   .     S
N446   H910    1.029   .     S
O455   C456    1.411   .     S
C456   H458    1.112   .     S
C456   H457    1.111   .     S
C456   H459    1.108   .     S
O460   C461    1.414   .     S
C461   H463    1.110   .     S
C461   H464    1.113   .     S
C461   H462    1.107   .     S
O465   C466    1.411   .     S
C466   H469    1.112   .     S
C466   H468    1.112   .     S
C466   H467    1.109   .     S
O470   C471    1.412   .     S
C471   H474    1.105   .     S
C471   H472    1.111   .     S
C471   H473    1.113   .     S
O479   C480    1.411   .     S
O479   C565    1.388   .     S
C480   H482    1.107   .     S
C480   H621    1.107   .     S
H481   C760    1.107   1_545 S
H483   C900    1.104   .     S
O484   C485    1.410   .     S
O484   C706    1.388   1_545 S
C485   H488    1.104   .     S
C485   H487    1.112   .     S
C485   H766    1.107   1_545 S
H486   C625    1.107   .     S
H489   N865    1.026   .     S
C491   O519    1.287   .     A
C491   C495    1.436   .     S
C491   O517    1.293   .     A
C492   O520    1.290   .     A
C492   O518    1.291   .     A
C492   C496    1.437   .     S
C493   H547    1.083   .     S
C493   C510    1.403   .     A
C494   H548    1.083   .     S
C494   C509    1.402   .     A
C494   C442    1.388   1_655 S
C495   C776    1.350   1_545 S
C495   O829    1.388   1_545 S
C496   C635    1.350   .     S
C496   O694    1.388   .     S
C497   O523    1.290   .     A
C497   C502    1.452   .     S
C497   O521    1.299   .     A
C498   O524    1.291   .     A
C498   C501    1.441   .     S
C498   O522    1.293   .     A
C499   C501    1.402   .     A
C499   O525    1.386   .     S
C499   C509    1.400   .     A
C500   C502    1.404   .     A
C500   O530    1.385   .     S
C500   C510    1.406   .     A
C501   C503    1.402   .     A
C502   C504    1.402   .     A
C503   C505    1.403   .     A
C503   O535    1.385   .     S
C504   O540    1.380   .     S
C504   C506    1.400   .     A
C505   C511    1.403   .     A
C505   C507    1.414   .     A
C506   C508    1.412   .     A
C506   C512    1.404   .     A
C507   C509    1.416   .     A
C507   C438    1.407   1_655 S
C508   C510    1.414   .     A
C511   H545    1.082   .     S
C511   C423    1.390   1_655 S
C512   H546    1.083   .     S
Cu513  Cu514   2.692   .     S
Cu513  O517    1.975   .     S
Cu513  O520    1.970   .     S
Cu513  O524    1.950   .     S
Cu513  N516    2.023   .     S
Cu513  O521    1.965   .     S
Cu514  O522    1.965   .     S
Cu514  O523    1.950   .     S
Cu514  O518    1.975   .     S
Cu514  N515    2.023   .     S
Cu514  O519    1.970   .     S
N516   N935    1.306   .     S
N516   H980    1.029   .     S
O525   C526    1.411   .     S
C526   H528    1.112   .     S
C526   H527    1.111   .     S
C526   H529    1.108   .     S
O530   C531    1.414   .     S
C531   H533    1.110   .     S
C531   H534    1.113   .     S
C531   H532    1.107   .     S
O535   C536    1.411   .     S
C536   H539    1.112   .     S
C536   H538    1.112   .     S
C536   H537    1.109   .     S
O540   C541    1.412   .     S
C541   H544    1.105   .     S
C541   H542    1.111   .     S
C541   H543    1.113   .     S
O549   C550    1.411   .     S
O549   C635    1.388   .     S
C550   H552    1.107   .     S
C550   H691    1.107   .     S
H551   C830    1.107   1_545 S
H553   C970    1.104   .     S
O554   C555    1.410   .     S
O554   C776    1.388   1_545 S
C555   H558    1.104   .     S
C555   H557    1.112   .     S
C555   H836    1.107   1_545 S
H556   C695    1.107   .     S
H559   N935    1.026   .     S
C561   O589    1.287   .     A
C561   C565    1.436   .     S
C561   O587    1.293   .     A
C562   O590    1.290   .     A
C562   O588    1.291   .     A
C562   C566    1.437   .     S
C563   H617    1.083   .     S
C563   C580    1.403   .     A
C563   C651    1.390   1_455 S
C564   H618    1.083   .     S
C564   C579    1.402   .     A
C564   C652    1.388   .     S
C566   C705    1.350   .     S
C566   O764    1.388   .     S
C567   O593    1.290   .     A
C567   C572    1.452   .     S
C567   O591    1.299   .     A
C568   O594    1.291   .     A
C568   C571    1.441   .     S
C568   O592    1.293   .     A
C569   C571    1.402   .     A
C569   O595    1.386   .     S
C569   C579    1.400   .     A
C570   C572    1.404   .     A
C570   O600    1.385   .     S
C570   C580    1.406   .     A
C571   C573    1.402   .     A
C572   C574    1.402   .     A
C573   C575    1.403   .     A
C573   O605    1.385   .     S
C574   O610    1.380   .     S
C574   C576    1.400   .     A
C575   C581    1.403   .     A
C575   C577    1.414   .     A
C576   C578    1.412   .     A
C576   C582    1.404   .     A
C577   C579    1.416   .     A
C577   C648    1.407   .     S
C578   C580    1.414   .     A
C578   C647    1.407   1_455 S
C581   H615    1.082   .     S
C581   C633    1.390   .     S
C582   H616    1.083   .     S
C582   C634    1.388   1_455 S
Cu583  Cu584   2.692   .     S
Cu583  O587    1.975   .     S
Cu583  O590    1.970   .     S
Cu583  O594    1.950   .     S
Cu583  N586    2.023   .     S
Cu583  O591    1.965   .     S
Cu584  O592    1.965   .     S
Cu584  O593    1.950   .     S
Cu584  O588    1.975   .     S
Cu584  N585    2.023   .     S
Cu584  O589    1.970   .     S
N586   N1005   1.306   .     S
N586   H1050   1.029   .     S
O595   C596    1.411   .     S
C596   H598    1.112   .     S
C596   H597    1.111   .     S
C596   H599    1.108   .     S
O600   C601    1.414   .     S
C601   H603    1.110   .     S
C601   H604    1.113   .     S
C601   H602    1.107   .     S
O605   C606    1.411   .     S
C606   H609    1.112   .     S
C606   H608    1.112   .     S
C606   H607    1.109   .     S
O610   C611    1.412   .     S
C611   H614    1.105   .     S
C611   H612    1.111   .     S
C611   H613    1.113   .     S
O619   C620    1.411   .     S
O619   C705    1.388   .     S
C620   H622    1.107   .     S
C620   H761    1.107   .     S
H623   C1040   1.104   .     S
O624   C625    1.410   .     S
C625   H628    1.104   .     S
C625   H627    1.112   .     S
H626   C765    1.107   .     S
H629   N1005   1.026   .     S
C631   O659    1.287   .     A
C631   C635    1.436   .     S
C631   O657    1.293   .     A
C632   O660    1.290   .     A
C632   O658    1.291   .     A
C632   C636    1.437   .     S
C633   H687    1.083   .     S
C633   C650    1.403   .     A
C634   H688    1.083   .     S
C634   C649    1.402   .     A
C634   C582    1.388   1_655 S
C636   C775    1.350   .     S
C636   O834    1.388   .     S
C637   O663    1.290   .     A
C637   C642    1.452   .     S
C637   O661    1.299   .     A
C638   O664    1.291   .     A
C638   C641    1.441   .     S
C638   O662    1.293   .     A
C639   C641    1.402   .     A
C639   O665    1.386   .     S
C639   C649    1.400   .     A
C640   C642    1.404   .     A
C640   O670    1.385   .     S
C640   C650    1.406   .     A
C641   C643    1.402   .     A
C642   C644    1.402   .     A
C643   C645    1.403   .     A
C643   O675    1.385   .     S
C644   O680    1.380   .     S
C644   C646    1.400   .     A
C645   C651    1.403   .     A
C645   C647    1.414   .     A
C646   C648    1.412   .     A
C646   C652    1.404   .     A
C647   C649    1.416   .     A
C647   C578    1.407   1_655 S
C648   C650    1.414   .     A
C651   H685    1.082   .     S
C651   C563    1.390   1_655 S
C652   H686    1.083   .     S
Cu653  Cu654   2.692   .     S
Cu653  O657    1.975   .     S
Cu653  O660    1.970   .     S
Cu653  O664    1.950   .     S
Cu653  N656    2.023   .     S
Cu653  O661    1.965   .     S
Cu654  O662    1.965   .     S
Cu654  O663    1.950   .     S
Cu654  O658    1.975   .     S
Cu654  N655    2.023   .     S
Cu654  O659    1.970   .     S
N656   N1075   1.306   .     S
N656   H1120   1.029   .     S
O665   C666    1.411   .     S
C666   H668    1.112   .     S
C666   H667    1.111   .     S
C666   H669    1.108   .     S
O670   C671    1.414   .     S
C671   H673    1.110   .     S
C671   H674    1.113   .     S
C671   H672    1.107   .     S
O675   C676    1.411   .     S
C676   H679    1.112   .     S
C676   H678    1.112   .     S
C676   H677    1.109   .     S
O680   C681    1.412   .     S
C681   H684    1.105   .     S
C681   H682    1.111   .     S
C681   H683    1.113   .     S
O689   C690    1.411   .     S
O689   C775    1.388   .     S
C690   H692    1.107   .     S
C690   H831    1.107   .     S
H693   C1110   1.104   .     S
O694   C695    1.410   .     S
C695   H698    1.104   .     S
C695   H697    1.112   .     S
H696   C835    1.107   .     S
H699   N1075   1.026   .     S
C701   O729    1.287   .     A
C701   C705    1.436   .     S
C701   O727    1.293   .     A
C702   O730    1.290   .     A
C702   O728    1.291   .     A
C702   C706    1.437   .     S
C703   H757    1.083   .     S
C703   C720    1.403   .     A
C703   C791    1.390   1_455 S
C704   H758    1.083   .     S
C704   C719    1.402   .     A
C704   C792    1.388   .     S
C706   C425    1.350   1_565 S
C706   O484    1.388   1_565 S
C707   O733    1.290   .     A
C707   C712    1.452   .     S
C707   O731    1.299   .     A
C708   O734    1.291   .     A
C708   C711    1.441   .     S
C708   O732    1.293   .     A
C709   C711    1.402   .     A
C709   O735    1.386   .     S
C709   C719    1.400   .     A
C710   C712    1.404   .     A
C710   O740    1.385   .     S
C710   C720    1.406   .     A
C711   C713    1.402   .     A
C712   C714    1.402   .     A
C713   C715    1.403   .     A
C713   O745    1.385   .     S
C714   O750    1.380   .     S
C714   C716    1.400   .     A
C715   C721    1.403   .     A
C715   C717    1.414   .     A
C716   C718    1.412   .     A
C716   C722    1.404   .     A
C717   C719    1.416   .     A
C717   C788    1.407   .     S
C718   C720    1.414   .     A
C718   C787    1.407   1_455 S
C721   H755    1.082   .     S
C721   C773    1.390   .     S
C722   H756    1.083   .     S
C722   C774    1.388   1_455 S
Cu723  Cu724   2.692   .     S
Cu723  O727    1.975   .     S
Cu723  O730    1.970   .     S
Cu723  O734    1.950   .     S
Cu723  N726    2.023   .     S
Cu723  O731    1.965   .     S
Cu724  O732    1.965   .     S
Cu724  O733    1.950   .     S
Cu724  O728    1.975   .     S
Cu724  N725    2.023   .     S
Cu724  O729    1.970   .     S
N726   N1145   1.306   .     S
N726   H1190   1.029   .     S
O735   C736    1.411   .     S
C736   H738    1.112   .     S
C736   H737    1.111   .     S
C736   H739    1.108   .     S
O740   C741    1.414   .     S
C741   H743    1.110   .     S
C741   H744    1.113   .     S
C741   H742    1.107   .     S
O745   C746    1.411   .     S
C746   H749    1.112   .     S
C746   H748    1.112   .     S
C746   H747    1.109   .     S
O750   C751    1.412   .     S
C751   H754    1.105   .     S
C751   H752    1.111   .     S
C751   H753    1.113   .     S
O759   C760    1.411   .     S
O759   C425    1.388   1_565 S
C760   H762    1.107   .     S
C760   H481    1.107   1_565 S
H763   C1180   1.104   .     S
O764   C765    1.410   .     S
C765   H768    1.104   .     S
C765   H767    1.112   .     S
H766   C485    1.107   1_565 S
H769   N1145   1.026   .     S
C771   O799    1.287   .     A
C771   C775    1.436   .     S
C771   O797    1.293   .     A
C772   O800    1.290   .     A
C772   O798    1.291   .     A
C772   C776    1.437   .     S
C773   H827    1.083   .     S
C773   C790    1.403   .     A
C774   H828    1.083   .     S
C774   C789    1.402   .     A
C774   C722    1.388   1_655 S
C776   C495    1.350   1_565 S
C776   O554    1.388   1_565 S
C777   O803    1.290   .     A
C777   C782    1.452   .     S
C777   O801    1.299   .     A
C778   O804    1.291   .     A
C778   C781    1.441   .     S
C778   O802    1.293   .     A
C779   C781    1.402   .     A
C779   O805    1.386   .     S
C779   C789    1.400   .     A
C780   C782    1.404   .     A
C780   O810    1.385   .     S
C780   C790    1.406   .     A
C781   C783    1.402   .     A
C782   C784    1.402   .     A
C783   C785    1.403   .     A
C783   O815    1.385   .     S
C784   O820    1.380   .     S
C784   C786    1.400   .     A
C785   C791    1.403   .     A
C785   C787    1.414   .     A
C786   C788    1.412   .     A
C786   C792    1.404   .     A
C787   C789    1.416   .     A
C787   C718    1.407   1_655 S
C788   C790    1.414   .     A
C791   H825    1.082   .     S
C791   C703    1.390   1_655 S
C792   H826    1.083   .     S
Cu793  Cu794   2.692   .     S
Cu793  O797    1.975   .     S
Cu793  O800    1.970   .     S
Cu793  O804    1.950   .     S
Cu793  N796    2.023   .     S
Cu793  O801    1.965   .     S
Cu794  O802    1.965   .     S
Cu794  O803    1.950   .     S
Cu794  O798    1.975   .     S
Cu794  N795    2.023   .     S
Cu794  O799    1.970   .     S
N796   N1215   1.306   .     S
N796   H1260   1.029   .     S
O805   C806    1.411   .     S
C806   H808    1.112   .     S
C806   H807    1.111   .     S
C806   H809    1.108   .     S
O810   C811    1.414   .     S
C811   H813    1.110   .     S
C811   H814    1.113   .     S
C811   H812    1.107   .     S
O815   C816    1.411   .     S
C816   H819    1.112   .     S
C816   H818    1.112   .     S
C816   H817    1.109   .     S
O820   C821    1.412   .     S
C821   H824    1.105   .     S
C821   H822    1.111   .     S
C821   H823    1.113   .     S
O829   C830    1.411   .     S
O829   C495    1.388   1_565 S
C830   H832    1.107   .     S
C830   H551    1.107   1_565 S
H833   C1250   1.104   .     S
O834   C835    1.410   .     S
C835   H838    1.104   .     S
C835   H837    1.112   .     S
H836   C555    1.107   1_565 S
H839   N1215   1.026   .     S
C841   O869    1.287   .     A
C841   C845    1.436   .     S
C841   O867    1.293   .     A
C842   O870    1.290   .     A
C842   O868    1.291   .     A
C842   C846    1.437   .     S
C843   H897    1.083   .     S
C843   C860    1.403   .     A
C843   C931    1.390   1_455 S
C844   H898    1.083   .     S
C844   C859    1.402   .     A
C844   C932    1.388   .     S
C845   C1126   1.350   1_545 S
C845   O1179   1.388   1_545 S
C846   C985    1.350   .     S
C846   O1044   1.388   .     S
C847   O873    1.290   .     A
C847   C852    1.452   .     S
C847   O871    1.299   .     A
C848   O874    1.291   .     A
C848   C851    1.441   .     S
C848   O872    1.293   .     A
C849   C851    1.402   .     A
C849   O875    1.386   .     S
C849   C859    1.400   .     A
C850   C852    1.404   .     A
C850   O880    1.385   .     S
C850   C860    1.406   .     A
C851   C853    1.402   .     A
C852   C854    1.402   .     A
C853   C855    1.403   .     A
C853   O885    1.385   .     S
C854   O890    1.380   .     S
C854   C856    1.400   .     A
C855   C861    1.403   .     A
C855   C857    1.414   .     A
C856   C858    1.412   .     A
C856   C862    1.404   .     A
C857   C859    1.416   .     A
C857   C928    1.407   .     S
C858   C860    1.414   .     A
C858   C927    1.407   1_455 S
C861   H895    1.082   .     S
C861   C913    1.390   .     S
C862   H896    1.083   .     S
C862   C914    1.388   1_455 S
Cu863  Cu864   2.692   .     S
Cu863  O867    1.975   .     S
Cu863  O870    1.970   .     S
Cu863  O874    1.950   .     S
Cu863  N866    2.023   .     S
Cu863  O871    1.965   .     S
Cu864  O872    1.965   .     S
Cu864  O873    1.950   .     S
Cu864  O868    1.975   .     S
Cu864  N865    2.023   .     S
Cu864  O869    1.970   .     S
N866   N25     1.306   1_556 S
N866   H70     1.029   1_556 S
O875   C876    1.411   .     S
C876   H878    1.112   .     S
C876   H877    1.111   .     S
C876   H879    1.108   .     S
O880   C881    1.414   .     S
C881   H883    1.110   .     S
C881   H884    1.113   .     S
C881   H882    1.107   .     S
O885   C886    1.411   .     S
C886   H889    1.112   .     S
C886   H888    1.112   .     S
C886   H887    1.109   .     S
O890   C891    1.412   .     S
C891   H894    1.105   .     S
C891   H892    1.111   .     S
C891   H893    1.113   .     S
O899   C900    1.411   .     S
O899   C985    1.388   .     S
C900   H902    1.107   .     S
C900   H1041   1.107   .     S
H901   C1180   1.107   1_545 S
H903   C60     1.104   1_556 S
O904   C905    1.410   .     S
O904   C1126   1.388   1_545 S
C905   H908    1.104   .     S
C905   H907    1.112   .     S
C905   H1186   1.107   1_545 S
H906   C1045   1.107   .     S
H909   N25     1.026   1_556 S
C911   O939    1.287   .     A
C911   C915    1.436   .     S
C911   O937    1.293   .     A
C912   O940    1.290   .     A
C912   O938    1.291   .     A
C912   C916    1.437   .     S
C913   H967    1.083   .     S
C913   C930    1.403   .     A
C914   H968    1.083   .     S
C914   C929    1.402   .     A
C914   C862    1.388   1_655 S
C915   C1196   1.350   1_545 S
C915   O1249   1.388   1_545 S
C916   C1055   1.350   .     S
C916   O1114   1.388   .     S
C917   O943    1.290   .     A
C917   C922    1.452   .     S
C917   O941    1.299   .     A
C918   O944    1.291   .     A
C918   C921    1.441   .     S
C918   O942    1.293   .     A
C919   C921    1.402   .     A
C919   O945    1.386   .     S
C919   C929    1.400   .     A
C920   C922    1.404   .     A
C920   O950    1.385   .     S
C920   C930    1.406   .     A
C921   C923    1.402   .     A
C922   C924    1.402   .     A
C923   C925    1.403   .     A
C923   O955    1.385   .     S
C924   O960    1.380   .     S
C924   C926    1.400   .     A
C925   C931    1.403   .     A
C925   C927    1.414   .     A
C926   C928    1.412   .     A
C926   C932    1.404   .     A
C927   C929    1.416   .     A
C927   C858    1.407   1_655 S
C928   C930    1.414   .     A
C931   H965    1.082   .     S
C931   C843    1.390   1_655 S
C932   H966    1.083   .     S
Cu933  Cu934   2.692   .     S
Cu933  O937    1.975   .     S
Cu933  O940    1.970   .     S
Cu933  O944    1.950   .     S
Cu933  N936    2.023   .     S
Cu933  O941    1.965   .     S
Cu934  O942    1.965   .     S
Cu934  O943    1.950   .     S
Cu934  O938    1.975   .     S
Cu934  N935    2.023   .     S
Cu934  O939    1.970   .     S
N936   N95     1.306   1_556 S
N936   H140    1.029   1_556 S
O945   C946    1.411   .     S
C946   H948    1.112   .     S
C946   H947    1.111   .     S
C946   H949    1.108   .     S
O950   C951    1.414   .     S
C951   H953    1.110   .     S
C951   H954    1.113   .     S
C951   H952    1.107   .     S
O955   C956    1.411   .     S
C956   H959    1.112   .     S
C956   H958    1.112   .     S
C956   H957    1.109   .     S
O960   C961    1.412   .     S
C961   H964    1.105   .     S
C961   H962    1.111   .     S
C961   H963    1.113   .     S
O969   C970    1.411   .     S
O969   C1055   1.388   .     S
C970   H972    1.107   .     S
C970   H1111   1.107   .     S
H971   C1250   1.107   1_545 S
H973   C130    1.104   1_556 S
O974   C975    1.410   .     S
O974   C1196   1.388   1_545 S
C975   H978    1.104   .     S
C975   H977    1.112   .     S
C975   H1256   1.107   1_545 S
H976   C1115   1.107   .     S
H979   N95     1.026   1_556 S
C981   O1009   1.287   .     A
C981   C985    1.436   .     S
C981   O1007   1.293   .     A
C982   O1010   1.290   .     A
C982   O1008   1.291   .     A
C982   C986    1.437   .     S
C983   H1037   1.083   .     S
C983   C1000   1.403   .     A
C983   C1071   1.390   1_455 S
C984   H1038   1.083   .     S
C984   C999    1.402   .     A
C984   C1072   1.388   .     S
C986   C1125   1.350   .     S
C986   O1184   1.388   .     S
C987   O1013   1.290   .     A
C987   C992    1.452   .     S
C987   O1011   1.299   .     A
C988   O1014   1.291   .     A
C988   C991    1.441   .     S
C988   O1012   1.293   .     A
C989   C991    1.402   .     A
C989   O1015   1.386   .     S
C989   C999    1.400   .     A
C990   C992    1.404   .     A
C990   O1020   1.385   .     S
C990   C1000   1.406   .     A
C991   C993    1.402   .     A
C992   C994    1.402   .     A
C993   C995    1.403   .     A
C993   O1025   1.385   .     S
C994   O1030   1.380   .     S
C994   C996    1.400   .     A
C995   C1001   1.403   .     A
C995   C997    1.414   .     A
C996   C998    1.412   .     A
C996   C1002   1.404   .     A
C997   C999    1.416   .     A
C997   C1068   1.407   .     S
C998   C1000   1.414   .     A
C998   C1067   1.407   1_455 S
C1001  H1035   1.082   .     S
C1001  C1053   1.390   .     S
C1002  H1036   1.083   .     S
C1002  C1054   1.388   1_455 S
Cu1003 Cu1004  2.692   .     S
Cu1003 O1007   1.975   .     S
Cu1003 O1010   1.970   .     S
Cu1003 O1014   1.950   .     S
Cu1003 N1006   2.023   .     S
Cu1003 O1011   1.965   .     S
Cu1004 O1012   1.965   .     S
Cu1004 O1013   1.950   .     S
Cu1004 O1008   1.975   .     S
Cu1004 N1005   2.023   .     S
Cu1004 O1009   1.970   .     S
N1006  N165    1.306   1_556 S
N1006  H210    1.029   1_556 S
O1015  C1016   1.411   .     S
C1016  H1018   1.112   .     S
C1016  H1017   1.111   .     S
C1016  H1019   1.108   .     S
O1020  C1021   1.414   .     S
C1021  H1023   1.110   .     S
C1021  H1024   1.113   .     S
C1021  H1022   1.107   .     S
O1025  C1026   1.411   .     S
C1026  H1029   1.112   .     S
C1026  H1028   1.112   .     S
C1026  H1027   1.109   .     S
O1030  C1031   1.412   .     S
C1031  H1034   1.105   .     S
C1031  H1032   1.111   .     S
C1031  H1033   1.113   .     S
O1039  C1040   1.411   .     S
O1039  C1125   1.388   .     S
C1040  H1042   1.107   .     S
C1040  H1181   1.107   .     S
H1043  C200    1.104   1_556 S
O1044  C1045   1.410   .     S
C1045  H1048   1.104   .     S
C1045  H1047   1.112   .     S
H1046  C1185   1.107   .     S
H1049  N165    1.026   1_556 S
C1051  O1079   1.287   .     A
C1051  C1055   1.436   .     S
C1051  O1077   1.293   .     A
C1052  O1080   1.290   .     A
C1052  O1078   1.291   .     A
C1052  C1056   1.437   .     S
C1053  H1107   1.083   .     S
C1053  C1070   1.403   .     A
C1054  H1108   1.083   .     S
C1054  C1069   1.402   .     A
C1054  C1002   1.388   1_655 S
C1056  C1195   1.350   .     S
C1056  O1254   1.388   .     S
C1057  O1083   1.290   .     A
C1057  C1062   1.452   .     S
C1057  O1081   1.299   .     A
C1058  O1084   1.291   .     A
C1058  C1061   1.441   .     S
C1058  O1082   1.293   .     A
C1059  C1061   1.402   .     A
C1059  O1085   1.386   .     S
C1059  C1069   1.400   .     A
C1060  C1062   1.404   .     A
C1060  O1090   1.385   .     S
C1060  C1070   1.406   .     A
C1061  C1063   1.402   .     A
C1062  C1064   1.402   .     A
C1063  C1065   1.403   .     A
C1063  O1095   1.385   .     S
C1064  O1100   1.380   .     S
C1064  C1066   1.400   .     A
C1065  C1071   1.403   .     A
C1065  C1067   1.414   .     A
C1066  C1068   1.412   .     A
C1066  C1072   1.404   .     A
C1067  C1069   1.416   .     A
C1067  C998    1.407   1_655 S
C1068  C1070   1.414   .     A
C1071  H1105   1.082   .     S
C1071  C983    1.390   1_655 S
C1072  H1106   1.083   .     S
Cu1073 Cu1074  2.692   .     S
Cu1073 O1077   1.975   .     S
Cu1073 O1080   1.970   .     S
Cu1073 O1084   1.950   .     S
Cu1073 N1076   2.023   .     S
Cu1073 O1081   1.965   .     S
Cu1074 O1082   1.965   .     S
Cu1074 O1083   1.950   .     S
Cu1074 O1078   1.975   .     S
Cu1074 N1075   2.023   .     S
Cu1074 O1079   1.970   .     S
N1076  N235    1.306   1_556 S
N1076  H280    1.029   1_556 S
O1085  C1086   1.411   .     S
C1086  H1088   1.112   .     S
C1086  H1087   1.111   .     S
C1086  H1089   1.108   .     S
O1090  C1091   1.414   .     S
C1091  H1093   1.110   .     S
C1091  H1094   1.113   .     S
C1091  H1092   1.107   .     S
O1095  C1096   1.411   .     S
C1096  H1099   1.112   .     S
C1096  H1098   1.112   .     S
C1096  H1097   1.109   .     S
O1100  C1101   1.412   .     S
C1101  H1104   1.105   .     S
C1101  H1102   1.111   .     S
C1101  H1103   1.113   .     S
O1109  C1110   1.411   .     S
O1109  C1195   1.388   .     S
C1110  H1112   1.107   .     S
C1110  H1251   1.107   .     S
H1113  C270    1.104   1_556 S
O1114  C1115   1.410   .     S
C1115  H1118   1.104   .     S
C1115  H1117   1.112   .     S
H1116  C1255   1.107   .     S
H1119  N235    1.026   1_556 S
C1121  O1149   1.287   .     A
C1121  C1125   1.436   .     S
C1121  O1147   1.293   .     A
C1122  O1150   1.290   .     A
C1122  O1148   1.291   .     A
C1122  C1126   1.437   .     S
C1123  H1177   1.083   .     S
C1123  C1140   1.403   .     A
C1123  C1211   1.390   1_455 S
C1124  H1178   1.083   .     S
C1124  C1139   1.402   .     A
C1124  C1212   1.388   .     S
C1126  C845    1.350   1_565 S
C1126  O904    1.388   1_565 S
C1127  O1153   1.290   .     A
C1127  C1132   1.452   .     S
C1127  O1151   1.299   .     A
C1128  O1154   1.291   .     A
C1128  C1131   1.441   .     S
C1128  O1152   1.293   .     A
C1129  C1131   1.402   .     A
C1129  O1155   1.386   .     S
C1129  C1139   1.400   .     A
C1130  C1132   1.404   .     A
C1130  O1160   1.385   .     S
C1130  C1140   1.406   .     A
C1131  C1133   1.402   .     A
C1132  C1134   1.402   .     A
C1133  C1135   1.403   .     A
C1133  O1165   1.385   .     S
C1134  O1170   1.380   .     S
C1134  C1136   1.400   .     A
C1135  C1141   1.403   .     A
C1135  C1137   1.414   .     A
C1136  C1138   1.412   .     A
C1136  C1142   1.404   .     A
C1137  C1139   1.416   .     A
C1137  C1208   1.407   .     S
C1138  C1140   1.414   .     A
C1138  C1207   1.407   1_455 S
C1141  H1175   1.082   .     S
C1141  C1193   1.390   .     S
C1142  H1176   1.083   .     S
C1142  C1194   1.388   1_455 S
Cu1143 Cu1144  2.692   .     S
Cu1143 O1147   1.975   .     S
Cu1143 O1150   1.970   .     S
Cu1143 O1154   1.950   .     S
Cu1143 N1146   2.023   .     S
Cu1143 O1151   1.965   .     S
Cu1144 O1152   1.965   .     S
Cu1144 O1153   1.950   .     S
Cu1144 O1148   1.975   .     S
Cu1144 N1145   2.023   .     S
Cu1144 O1149   1.970   .     S
N1146  N305    1.306   1_556 S
N1146  H350    1.029   1_556 S
O1155  C1156   1.411   .     S
C1156  H1158   1.112   .     S
C1156  H1157   1.111   .     S
C1156  H1159   1.108   .     S
O1160  C1161   1.414   .     S
C1161  H1163   1.110   .     S
C1161  H1164   1.113   .     S
C1161  H1162   1.107   .     S
O1165  C1166   1.411   .     S
C1166  H1169   1.112   .     S
C1166  H1168   1.112   .     S
C1166  H1167   1.109   .     S
O1170  C1171   1.412   .     S
C1171  H1174   1.105   .     S
C1171  H1172   1.111   .     S
C1171  H1173   1.113   .     S
O1179  C1180   1.411   .     S
O1179  C845    1.388   1_565 S
C1180  H1182   1.107   .     S
C1180  H901    1.107   1_565 S
H1183  C340    1.104   1_556 S
O1184  C1185   1.410   .     S
C1185  H1188   1.104   .     S
C1185  H1187   1.112   .     S
H1186  C905    1.107   1_565 S
H1189  N305    1.026   1_556 S
C1191  O1219   1.287   .     A
C1191  C1195   1.436   .     S
C1191  O1217   1.293   .     A
C1192  O1220   1.290   .     A
C1192  O1218   1.291   .     A
C1192  C1196   1.437   .     S
C1193  H1247   1.083   .     S
C1193  C1210   1.403   .     A
C1194  H1248   1.083   .     S
C1194  C1209   1.402   .     A
C1194  C1142   1.388   1_655 S
C1196  C915    1.350   1_565 S
C1196  O974    1.388   1_565 S
C1197  O1223   1.290   .     A
C1197  C1202   1.452   .     S
C1197  O1221   1.299   .     A
C1198  O1224   1.291   .     A
C1198  C1201   1.441   .     S
C1198  O1222   1.293   .     A
C1199  C1201   1.402   .     A
C1199  O1225   1.386   .     S
C1199  C1209   1.400   .     A
C1200  C1202   1.404   .     A
C1200  O1230   1.385   .     S
C1200  C1210   1.406   .     A
C1201  C1203   1.402   .     A
C1202  C1204   1.402   .     A
C1203  C1205   1.403   .     A
C1203  O1235   1.385   .     S
C1204  O1240   1.380   .     S
C1204  C1206   1.400   .     A
C1205  C1211   1.403   .     A
C1205  C1207   1.414   .     A
C1206  C1208   1.412   .     A
C1206  C1212   1.404   .     A
C1207  C1209   1.416   .     A
C1207  C1138   1.407   1_655 S
C1208  C1210   1.414   .     A
C1211  H1245   1.082   .     S
C1211  C1123   1.390   1_655 S
C1212  H1246   1.083   .     S
Cu1213 Cu1214  2.692   .     S
Cu1213 O1217   1.975   .     S
Cu1213 O1220   1.970   .     S
Cu1213 O1224   1.950   .     S
Cu1213 N1216   2.023   .     S
Cu1213 O1221   1.965   .     S
Cu1214 O1222   1.965   .     S
Cu1214 O1223   1.950   .     S
Cu1214 O1218   1.975   .     S
Cu1214 N1215   2.023   .     S
Cu1214 O1219   1.970   .     S
N1216  N375    1.306   1_556 S
N1216  H420    1.029   1_556 S
O1225  C1226   1.411   .     S
C1226  H1228   1.112   .     S
C1226  H1227   1.111   .     S
C1226  H1229   1.108   .     S
O1230  C1231   1.414   .     S
C1231  H1233   1.110   .     S
C1231  H1234   1.113   .     S
C1231  H1232   1.107   .     S
O1235  C1236   1.411   .     S
C1236  H1239   1.112   .     S
C1236  H1238   1.112   .     S
C1236  H1237   1.109   .     S
O1240  C1241   1.412   .     S
C1241  H1244   1.105   .     S
C1241  H1242   1.111   .     S
C1241  H1243   1.113   .     S
O1249  C1250   1.411   .     S
O1249  C915    1.388   1_565 S
C1250  H1252   1.107   .     S
C1250  H971    1.107   1_565 S
H1253  C410    1.104   1_556 S
O1254  C1255   1.410   .     S
C1255  H1258   1.104   .     S
C1255  H1257   1.112   .     S
H1256  C975    1.107   1_565 S
H1259  N375    1.026   1_556 S
