data_str_m2_o10_o18_pcu_sym.160
_audit_creation_date              2020-01-03
_audit_creation_method            'Materials Studio'
_symmetry_space_group_name_H-M    'P1'
_symmetry_Int_Tables_number       1
_symmetry_cell_setting            triclinic
loop_
_symmetry_equiv_pos_as_xyz
  x,y,z
_cell_length_a                    22.3078
_cell_length_b                    26.2654
_cell_length_c                    31.7378
_cell_angle_alpha                 92.7799
_cell_angle_beta                  75.2226
_cell_angle_gamma                 101.8563
loop_
_atom_site_label
_atom_site_type_symbol
_atom_site_fract_x
_atom_site_fract_y
_atom_site_fract_z
_atom_site_U_iso_or_equiv
_atom_site_adp_type
_atom_site_occupancy
C1     C     0.18128   0.26650   0.25128   0.00000  Uiso   1.00
C2     C     0.15205   0.06683   0.24875   0.00000  Uiso   1.00
C3     C     0.09332   0.13918   0.04089   0.00000  Uiso   1.00
C4     C     0.23978   0.19939   0.45982   0.00000  Uiso   1.00
C5     C     0.05133   0.12408   0.01520   0.00000  Uiso   1.00
C6     C     0.28162   0.21451   0.48565   0.00000  Uiso   1.00
C7     C     0.18968   0.32208   0.25206   0.00000  Uiso   1.00
C8     C     0.14362   0.01125   0.24801   0.00000  Uiso   1.00
C9     C     0.12766   0.16101   0.33301   0.00000  Uiso   1.00
C10    C     0.20565   0.17257   0.16704   0.00000  Uiso   1.00
C11    C     0.10329   0.15544   0.38091   0.00000  Uiso   1.00
C12    C     0.23009   0.17947   0.11932   0.00000  Uiso   1.00
C13    C     0.02391   0.12049   0.44611   0.00000  Uiso   1.00
C14    C     0.30868   0.21747   0.05498   0.00000  Uiso   1.00
C15    C     0.04176   0.12844   0.40072   0.00000  Uiso   1.00
C16    C     0.29081   0.20855   0.10020   0.00000  Uiso   1.00
C17    C     0.14345   0.17914   0.40721   0.00000  Uiso   1.00
C18    C     0.19050   0.15599   0.09253   0.00000  Uiso   1.00
C19    C     0.13079   0.16351   0.45144   0.00000  Uiso   1.00
C20    C     0.20251   0.17374   0.04893   0.00000  Uiso   1.00
C21    C     0.06902   0.13529   0.47073   0.00000  Uiso   1.00
C22    C     0.26399   0.20265   0.03000   0.00000  Uiso   1.00
C23    C     0.17591   0.17597   0.47761   0.00000  Uiso   1.00
C24    C     0.15716   0.16238   0.02294   0.00000  Uiso   1.00
Cu25   Cu    0.10737   0.16108   0.24516   0.00000  Uiso   1.00
Cu26   Cu    0.22596   0.17225   0.25483   0.00000  Uiso   1.00
H27    H     0.00354   0.10486   0.03106   0.00000  Uiso   1.00
H28    H     0.32947   0.23354   0.46982   0.00000  Uiso   1.00
H29    H     0.07269   0.13376   0.07520   0.00000  Uiso   1.00
H30    H     0.26084   0.20469   0.42558   0.00000  Uiso   1.00
H31    H     0.23453   0.01140   0.25604   0.00000  Uiso   1.00
H32    H     0.09877   0.32193   0.24403   0.00000  Uiso   1.00
H33    H     0.00138   0.20438   0.28392   0.00000  Uiso   1.00
H34    H     0.33195   0.12895   0.21609   0.00000  Uiso   1.00
N35    N     0.31506   0.18068   0.26212   0.00000  Uiso   1.00
N36    N     0.01827   0.15265   0.23788   0.00000  Uiso   1.00
O37    O     0.12815   0.23809   0.24686   0.00000  Uiso   1.00
O38    O     0.20518   0.09524   0.25314   0.00000  Uiso   1.00
O39    O     0.22829   0.24753   0.25502   0.00000  Uiso   1.00
O40    O     0.10504   0.08580   0.24497   0.00000  Uiso   1.00
O41    O     0.08851   0.15930   0.30854   0.00000  Uiso   1.00
O42    O     0.24482   0.17403   0.19145   0.00000  Uiso   1.00
O43    O     0.18866   0.16874   0.31671   0.00000  Uiso   1.00
O44    O     0.14468   0.16460   0.18329   0.00000  Uiso   1.00
O45    O     0.14050   0.11562   0.10942   0.00000  Uiso   1.00
C46    C     0.16356   0.07093   0.11554   0.00000  Uiso   1.00
H47    H     0.19753   0.07847   0.13644   0.00000  Uiso   1.00
H48    H     0.18802   0.05629   0.08373   0.00000  Uiso   1.00
C49    C     0.10812   0.02922   0.13824   0.00000  Uiso   1.00
H50    H     0.07239   0.02040   0.11884   0.00000  Uiso   1.00
H51    H     0.12490   0.32661   0.14248   0.00000  Uiso   1.00
H52    H     0.08523   0.04310   0.17076   0.00000  Uiso   1.00
O53    O     0.19387   0.21866   0.38936   0.00000  Uiso   1.00
C54    C     0.17122   0.26330   0.38260   0.00000  Uiso   1.00
H55    H     0.14439   0.27709   0.41396   0.00000  Uiso   1.00
H56    H     0.13942   0.25592   0.36019   0.00000  Uiso   1.00
C57    C     0.22724   0.30545   0.36173   0.00000  Uiso   1.00
H58    H     0.25231   0.29220   0.32955   0.00000  Uiso   1.00
H59    H     0.21065   0.00799   0.35700   0.00000  Uiso   1.00
H60    H     0.26089   0.31394   0.38270   0.00000  Uiso   1.00
C61    C     0.00244   0.22978   0.12698   0.00000  Uiso   1.00
H62    H     0.32102   0.25283   0.15563   0.00000  Uiso   1.00
O63    O     0.05569   0.22063   0.11789   0.00000  Uiso   1.00
C64    C     0.32780   0.11123   0.37516   0.00000  Uiso   1.00
H65    H     0.28632   0.12853   0.38097   0.00000  Uiso   1.00
O66    O     0.00128   0.07707   0.34790   0.00000  Uiso   1.00
O67    O     0.29401   0.10591   0.46782   0.00000  Uiso   1.00
C68    C     0.27010   0.05279   0.46214   0.00000  Uiso   1.00
H69    H     0.26398   0.03192   0.49304   0.00000  Uiso   1.00
H70    H     0.30097   0.03342   0.43576   0.00000  Uiso   1.00
C71    C     0.20558   0.04800   0.45279   0.00000  Uiso   1.00
H72    H     0.20957   0.06544   0.42094   0.00000  Uiso   1.00
H73    H     0.18299   0.00675   0.45235   0.00000  Uiso   1.00
H74    H     0.17486   0.06810   0.47821   0.00000  Uiso   1.00
O75    O     0.03831   0.23505   0.03424   0.00000  Uiso   1.00
C76    C     0.05451   0.28967   0.03588   0.00000  Uiso   1.00
H77    H     0.02542   0.30716   0.06462   0.00000  Uiso   1.00
H78    H     0.04926   0.30647   0.00586   0.00000  Uiso   1.00
C79    C     0.12335   0.30419   0.03735   0.00000  Uiso   1.00
H80    H     0.15325   0.28592   0.00986   0.00000  Uiso   1.00
H81    H     0.13839   0.01358   0.03576   0.00000  Uiso   1.00
H82    H     0.12987   0.29024   0.06790   0.00000  Uiso   1.00
C83    C     0.51461   0.26650   0.25128   0.00000  Uiso   1.00
C84    C     0.48538   0.06683   0.24875   0.00000  Uiso   1.00
C85    C     0.42666   0.13918   0.04089   0.00000  Uiso   1.00
C86    C     0.57311   0.19939   0.45982   0.00000  Uiso   1.00
C87    C     0.38467   0.12408   0.01520   0.00000  Uiso   1.00
C88    C     0.61495   0.21451   0.48565   0.00000  Uiso   1.00
C89    C     0.52302   0.32208   0.25206   0.00000  Uiso   1.00
C90    C     0.47696   0.01125   0.24801   0.00000  Uiso   1.00
C91    C     0.46100   0.16101   0.33301   0.00000  Uiso   1.00
C92    C     0.53898   0.17257   0.16704   0.00000  Uiso   1.00
C93    C     0.43662   0.15544   0.38091   0.00000  Uiso   1.00
C94    C     0.56342   0.17947   0.11932   0.00000  Uiso   1.00
C95    C     0.35724   0.12049   0.44611   0.00000  Uiso   1.00
C96    C     0.64201   0.21747   0.05498   0.00000  Uiso   1.00
C97    C     0.37509   0.12844   0.40072   0.00000  Uiso   1.00
C98    C     0.62415   0.20855   0.10020   0.00000  Uiso   1.00
C99    C     0.47679   0.17914   0.40721   0.00000  Uiso   1.00
C100   C     0.52383   0.15599   0.09253   0.00000  Uiso   1.00
C101   C     0.46413   0.16351   0.45144   0.00000  Uiso   1.00
C102   C     0.53584   0.17374   0.04893   0.00000  Uiso   1.00
C103   C     0.40236   0.13529   0.47073   0.00000  Uiso   1.00
C104   C     0.59732   0.20265   0.03000   0.00000  Uiso   1.00
C105   C     0.50925   0.17597   0.47761   0.00000  Uiso   1.00
C106   C     0.49049   0.16238   0.02294   0.00000  Uiso   1.00
Cu107  Cu    0.44071   0.16108   0.24516   0.00000  Uiso   1.00
Cu108  Cu    0.55929   0.17225   0.25483   0.00000  Uiso   1.00
H109   H     0.33687   0.10486   0.03106   0.00000  Uiso   1.00
H110   H     0.66280   0.23354   0.46982   0.00000  Uiso   1.00
H111   H     0.40602   0.13376   0.07520   0.00000  Uiso   1.00
H112   H     0.59417   0.20469   0.42558   0.00000  Uiso   1.00
H113   H     0.56787   0.01140   0.25604   0.00000  Uiso   1.00
H114   H     0.43210   0.32193   0.24403   0.00000  Uiso   1.00
H115   H     0.33472   0.20438   0.28392   0.00000  Uiso   1.00
H116   H     0.66528   0.12895   0.21609   0.00000  Uiso   1.00
N117   N     0.64839   0.18068   0.26212   0.00000  Uiso   1.00
N118   N     0.35161   0.15265   0.23788   0.00000  Uiso   1.00
O119   O     0.46148   0.23809   0.24686   0.00000  Uiso   1.00
O120   O     0.53852   0.09524   0.25314   0.00000  Uiso   1.00
O121   O     0.56163   0.24753   0.25502   0.00000  Uiso   1.00
O122   O     0.43837   0.08580   0.24497   0.00000  Uiso   1.00
O123   O     0.42185   0.15930   0.30854   0.00000  Uiso   1.00
O124   O     0.57815   0.17403   0.19145   0.00000  Uiso   1.00
O125   O     0.52199   0.16874   0.31671   0.00000  Uiso   1.00
O126   O     0.47801   0.16460   0.18329   0.00000  Uiso   1.00
O127   O     0.47383   0.11562   0.10942   0.00000  Uiso   1.00
C128   C     0.49690   0.07093   0.11554   0.00000  Uiso   1.00
H129   H     0.53087   0.07847   0.13644   0.00000  Uiso   1.00
H130   H     0.52135   0.05629   0.08373   0.00000  Uiso   1.00
C131   C     0.44145   0.02922   0.13824   0.00000  Uiso   1.00
H132   H     0.40572   0.02040   0.11884   0.00000  Uiso   1.00
H133   H     0.45824   0.32661   0.14248   0.00000  Uiso   1.00
H134   H     0.41857   0.04310   0.17076   0.00000  Uiso   1.00
O135   O     0.52720   0.21866   0.38936   0.00000  Uiso   1.00
C136   C     0.50455   0.26330   0.38260   0.00000  Uiso   1.00
H137   H     0.47772   0.27709   0.41396   0.00000  Uiso   1.00
H138   H     0.47275   0.25592   0.36019   0.00000  Uiso   1.00
C139   C     0.56057   0.30545   0.36173   0.00000  Uiso   1.00
H140   H     0.58564   0.29220   0.32955   0.00000  Uiso   1.00
H141   H     0.54399   0.00799   0.35700   0.00000  Uiso   1.00
H142   H     0.59422   0.31394   0.38270   0.00000  Uiso   1.00
C143   C     0.33577   0.22978   0.12698   0.00000  Uiso   1.00
H144   H     0.65436   0.25283   0.15563   0.00000  Uiso   1.00
O145   O     0.38902   0.22063   0.11789   0.00000  Uiso   1.00
C146   C     0.66113   0.11123   0.37516   0.00000  Uiso   1.00
H147   H     0.61965   0.12853   0.38097   0.00000  Uiso   1.00
O148   O     0.33462   0.07707   0.34790   0.00000  Uiso   1.00
O149   O     0.62734   0.10591   0.46782   0.00000  Uiso   1.00
C150   C     0.60343   0.05279   0.46214   0.00000  Uiso   1.00
H151   H     0.59731   0.03192   0.49304   0.00000  Uiso   1.00
H152   H     0.63430   0.03342   0.43576   0.00000  Uiso   1.00
C153   C     0.53892   0.04800   0.45279   0.00000  Uiso   1.00
H154   H     0.54291   0.06544   0.42094   0.00000  Uiso   1.00
H155   H     0.51632   0.00675   0.45235   0.00000  Uiso   1.00
H156   H     0.50820   0.06810   0.47821   0.00000  Uiso   1.00
O157   O     0.37165   0.23505   0.03424   0.00000  Uiso   1.00
C158   C     0.38784   0.28967   0.03588   0.00000  Uiso   1.00
H159   H     0.35875   0.30716   0.06462   0.00000  Uiso   1.00
H160   H     0.38260   0.30647   0.00586   0.00000  Uiso   1.00
C161   C     0.45668   0.30419   0.03735   0.00000  Uiso   1.00
H162   H     0.48659   0.28592   0.00986   0.00000  Uiso   1.00
H163   H     0.47172   0.01358   0.03576   0.00000  Uiso   1.00
H164   H     0.46321   0.29024   0.06790   0.00000  Uiso   1.00
C165   C     0.84794   0.26650   0.25128   0.00000  Uiso   1.00
C166   C     0.81871   0.06683   0.24875   0.00000  Uiso   1.00
C167   C     0.75999   0.13918   0.04089   0.00000  Uiso   1.00
C168   C     0.90644   0.19939   0.45982   0.00000  Uiso   1.00
C169   C     0.71800   0.12408   0.01520   0.00000  Uiso   1.00
C170   C     0.94828   0.21451   0.48565   0.00000  Uiso   1.00
C171   C     0.85635   0.32208   0.25206   0.00000  Uiso   1.00
C172   C     0.81029   0.01125   0.24801   0.00000  Uiso   1.00
C173   C     0.79433   0.16101   0.33301   0.00000  Uiso   1.00
C174   C     0.87231   0.17257   0.16704   0.00000  Uiso   1.00
C175   C     0.76996   0.15544   0.38091   0.00000  Uiso   1.00
C176   C     0.89675   0.17947   0.11932   0.00000  Uiso   1.00
C177   C     0.69057   0.12049   0.44611   0.00000  Uiso   1.00
C178   C     0.97535   0.21747   0.05498   0.00000  Uiso   1.00
C179   C     0.70842   0.12844   0.40072   0.00000  Uiso   1.00
C180   C     0.95748   0.20855   0.10020   0.00000  Uiso   1.00
C181   C     0.81012   0.17914   0.40721   0.00000  Uiso   1.00
C182   C     0.85716   0.15599   0.09253   0.00000  Uiso   1.00
C183   C     0.79746   0.16351   0.45144   0.00000  Uiso   1.00
C184   C     0.86918   0.17374   0.04893   0.00000  Uiso   1.00
C185   C     0.73569   0.13529   0.47073   0.00000  Uiso   1.00
C186   C     0.93066   0.20265   0.03000   0.00000  Uiso   1.00
C187   C     0.84258   0.17597   0.47761   0.00000  Uiso   1.00
C188   C     0.82383   0.16238   0.02294   0.00000  Uiso   1.00
Cu189  Cu    0.77404   0.16108   0.24516   0.00000  Uiso   1.00
Cu190  Cu    0.89263   0.17225   0.25483   0.00000  Uiso   1.00
H191   H     0.67020   0.10486   0.03106   0.00000  Uiso   1.00
H192   H     0.99613   0.23354   0.46982   0.00000  Uiso   1.00
H193   H     0.73935   0.13376   0.07520   0.00000  Uiso   1.00
H194   H     0.92751   0.20469   0.42558   0.00000  Uiso   1.00
H195   H     0.90120   0.01140   0.25604   0.00000  Uiso   1.00
H196   H     0.76544   0.32193   0.24403   0.00000  Uiso   1.00
H197   H     0.66805   0.20438   0.28392   0.00000  Uiso   1.00
H198   H     0.99861   0.12895   0.21609   0.00000  Uiso   1.00
N199   N     0.98173   0.18068   0.26212   0.00000  Uiso   1.00
N200   N     0.68494   0.15265   0.23788   0.00000  Uiso   1.00
O201   O     0.79482   0.23809   0.24686   0.00000  Uiso   1.00
O202   O     0.87185   0.09524   0.25314   0.00000  Uiso   1.00
O203   O     0.89496   0.24753   0.25502   0.00000  Uiso   1.00
O204   O     0.77171   0.08580   0.24497   0.00000  Uiso   1.00
O205   O     0.75518   0.15930   0.30854   0.00000  Uiso   1.00
O206   O     0.91149   0.17403   0.19145   0.00000  Uiso   1.00
O207   O     0.85532   0.16874   0.31671   0.00000  Uiso   1.00
O208   O     0.81134   0.16460   0.18329   0.00000  Uiso   1.00
O209   O     0.80716   0.11562   0.10942   0.00000  Uiso   1.00
C210   C     0.83023   0.07093   0.11554   0.00000  Uiso   1.00
H211   H     0.86420   0.07847   0.13644   0.00000  Uiso   1.00
H212   H     0.85468   0.05629   0.08373   0.00000  Uiso   1.00
C213   C     0.77478   0.02922   0.13824   0.00000  Uiso   1.00
H214   H     0.73906   0.02040   0.11884   0.00000  Uiso   1.00
H215   H     0.79157   0.32661   0.14248   0.00000  Uiso   1.00
H216   H     0.75190   0.04310   0.17076   0.00000  Uiso   1.00
O217   O     0.86054   0.21866   0.38936   0.00000  Uiso   1.00
C218   C     0.83788   0.26330   0.38260   0.00000  Uiso   1.00
H219   H     0.81105   0.27709   0.41396   0.00000  Uiso   1.00
H220   H     0.80608   0.25592   0.36019   0.00000  Uiso   1.00
C221   C     0.89391   0.30545   0.36173   0.00000  Uiso   1.00
H222   H     0.91897   0.29220   0.32955   0.00000  Uiso   1.00
H223   H     0.87732   0.00799   0.35700   0.00000  Uiso   1.00
H224   H     0.92755   0.31394   0.38270   0.00000  Uiso   1.00
C225   C     0.66911   0.22978   0.12698   0.00000  Uiso   1.00
H226   H     0.98769   0.25283   0.15563   0.00000  Uiso   1.00
O227   O     0.72235   0.22063   0.11789   0.00000  Uiso   1.00
C228   C     0.99446   0.11123   0.37516   0.00000  Uiso   1.00
H229   H     0.95298   0.12853   0.38097   0.00000  Uiso   1.00
O230   O     0.66795   0.07707   0.34790   0.00000  Uiso   1.00
O231   O     0.96068   0.10591   0.46782   0.00000  Uiso   1.00
C232   C     0.93676   0.05279   0.46214   0.00000  Uiso   1.00
H233   H     0.93064   0.03192   0.49304   0.00000  Uiso   1.00
H234   H     0.96764   0.03342   0.43576   0.00000  Uiso   1.00
C235   C     0.87225   0.04800   0.45279   0.00000  Uiso   1.00
H236   H     0.87624   0.06544   0.42094   0.00000  Uiso   1.00
H237   H     0.84966   0.00675   0.45235   0.00000  Uiso   1.00
H238   H     0.84153   0.06810   0.47821   0.00000  Uiso   1.00
O239   O     0.70498   0.23505   0.03424   0.00000  Uiso   1.00
C240   C     0.72118   0.28967   0.03588   0.00000  Uiso   1.00
H241   H     0.69209   0.30716   0.06462   0.00000  Uiso   1.00
H242   H     0.71593   0.30647   0.00586   0.00000  Uiso   1.00
C243   C     0.79002   0.30419   0.03735   0.00000  Uiso   1.00
H244   H     0.81992   0.28592   0.00986   0.00000  Uiso   1.00
H245   H     0.80505   0.01358   0.03576   0.00000  Uiso   1.00
H246   H     0.79654   0.29024   0.06790   0.00000  Uiso   1.00
C247   C     0.18128   0.59983   0.25128   0.00000  Uiso   1.00
C248   C     0.15205   0.40017   0.24875   0.00000  Uiso   1.00
C249   C     0.09332   0.47251   0.04089   0.00000  Uiso   1.00
C250   C     0.23978   0.53272   0.45982   0.00000  Uiso   1.00
C251   C     0.05133   0.45742   0.01520   0.00000  Uiso   1.00
C252   C     0.28162   0.54785   0.48565   0.00000  Uiso   1.00
C253   C     0.18968   0.65541   0.25206   0.00000  Uiso   1.00
C254   C     0.14362   0.34458   0.24801   0.00000  Uiso   1.00
C255   C     0.12766   0.49434   0.33301   0.00000  Uiso   1.00
C256   C     0.20565   0.50590   0.16704   0.00000  Uiso   1.00
C257   C     0.10329   0.48878   0.38091   0.00000  Uiso   1.00
C258   C     0.23009   0.51280   0.11932   0.00000  Uiso   1.00
C259   C     0.02391   0.45382   0.44611   0.00000  Uiso   1.00
C260   C     0.30868   0.55081   0.05498   0.00000  Uiso   1.00
C261   C     0.04176   0.46177   0.40072   0.00000  Uiso   1.00
C262   C     0.29081   0.54189   0.10020   0.00000  Uiso   1.00
C263   C     0.14345   0.51248   0.40721   0.00000  Uiso   1.00
C264   C     0.19050   0.48933   0.09253   0.00000  Uiso   1.00
C265   C     0.13079   0.49685   0.45144   0.00000  Uiso   1.00
C266   C     0.20251   0.50707   0.04893   0.00000  Uiso   1.00
C267   C     0.06902   0.46862   0.47073   0.00000  Uiso   1.00
C268   C     0.26399   0.53598   0.03000   0.00000  Uiso   1.00
C269   C     0.17591   0.50931   0.47761   0.00000  Uiso   1.00
C270   C     0.15716   0.49571   0.02294   0.00000  Uiso   1.00
Cu271  Cu    0.10737   0.49441   0.24516   0.00000  Uiso   1.00
Cu272  Cu    0.22596   0.50559   0.25483   0.00000  Uiso   1.00
H273   H     0.00354   0.43819   0.03106   0.00000  Uiso   1.00
H274   H     0.32947   0.56688   0.46982   0.00000  Uiso   1.00
H275   H     0.07269   0.46709   0.07520   0.00000  Uiso   1.00
H276   H     0.26084   0.53802   0.42558   0.00000  Uiso   1.00
H277   H     0.23453   0.34474   0.25604   0.00000  Uiso   1.00
H278   H     0.09877   0.65526   0.24403   0.00000  Uiso   1.00
H279   H     0.00138   0.53771   0.28392   0.00000  Uiso   1.00
H280   H     0.33195   0.46228   0.21609   0.00000  Uiso   1.00
N281   N     0.31506   0.51401   0.26212   0.00000  Uiso   1.00
N282   N     0.01827   0.48599   0.23788   0.00000  Uiso   1.00
O283   O     0.12815   0.57142   0.24686   0.00000  Uiso   1.00
O284   O     0.20518   0.42858   0.25314   0.00000  Uiso   1.00
O285   O     0.22829   0.58086   0.25502   0.00000  Uiso   1.00
O286   O     0.10504   0.41914   0.24497   0.00000  Uiso   1.00
O287   O     0.08851   0.49263   0.30854   0.00000  Uiso   1.00
O288   O     0.24482   0.50737   0.19145   0.00000  Uiso   1.00
O289   O     0.18866   0.50207   0.31671   0.00000  Uiso   1.00
O290   O     0.14468   0.49793   0.18329   0.00000  Uiso   1.00
O291   O     0.14050   0.44896   0.10942   0.00000  Uiso   1.00
C292   C     0.16356   0.40426   0.11554   0.00000  Uiso   1.00
H293   H     0.19753   0.41180   0.13644   0.00000  Uiso   1.00
H294   H     0.18802   0.38963   0.08373   0.00000  Uiso   1.00
C295   C     0.10812   0.36256   0.13824   0.00000  Uiso   1.00
H296   H     0.07239   0.35374   0.11884   0.00000  Uiso   1.00
H297   H     0.12490   0.65994   0.14248   0.00000  Uiso   1.00
H298   H     0.08523   0.37644   0.17076   0.00000  Uiso   1.00
O299   O     0.19387   0.55199   0.38936   0.00000  Uiso   1.00
C300   C     0.17122   0.59663   0.38260   0.00000  Uiso   1.00
H301   H     0.14439   0.61043   0.41396   0.00000  Uiso   1.00
H302   H     0.13942   0.58926   0.36019   0.00000  Uiso   1.00
C303   C     0.22724   0.63879   0.36173   0.00000  Uiso   1.00
H304   H     0.25231   0.62554   0.32955   0.00000  Uiso   1.00
H305   H     0.21065   0.34133   0.35700   0.00000  Uiso   1.00
H306   H     0.26089   0.64727   0.38270   0.00000  Uiso   1.00
C307   C     0.00244   0.56311   0.12698   0.00000  Uiso   1.00
H308   H     0.32102   0.58616   0.15563   0.00000  Uiso   1.00
O309   O     0.05569   0.55397   0.11789   0.00000  Uiso   1.00
C310   C     0.32780   0.44456   0.37516   0.00000  Uiso   1.00
H311   H     0.28632   0.46186   0.38097   0.00000  Uiso   1.00
O312   O     0.00128   0.41040   0.34790   0.00000  Uiso   1.00
O313   O     0.29401   0.43924   0.46782   0.00000  Uiso   1.00
C314   C     0.27010   0.38613   0.46214   0.00000  Uiso   1.00
H315   H     0.26398   0.36526   0.49304   0.00000  Uiso   1.00
H316   H     0.30097   0.36676   0.43576   0.00000  Uiso   1.00
C317   C     0.20558   0.38134   0.45279   0.00000  Uiso   1.00
H318   H     0.20957   0.39878   0.42094   0.00000  Uiso   1.00
H319   H     0.18299   0.34009   0.45235   0.00000  Uiso   1.00
H320   H     0.17486   0.40144   0.47821   0.00000  Uiso   1.00
O321   O     0.03831   0.56839   0.03424   0.00000  Uiso   1.00
C322   C     0.05451   0.62300   0.03588   0.00000  Uiso   1.00
H323   H     0.02542   0.64049   0.06462   0.00000  Uiso   1.00
H324   H     0.04926   0.63981   0.00586   0.00000  Uiso   1.00
C325   C     0.12335   0.63752   0.03735   0.00000  Uiso   1.00
H326   H     0.15325   0.61926   0.00986   0.00000  Uiso   1.00
H327   H     0.13839   0.34691   0.03576   0.00000  Uiso   1.00
H328   H     0.12987   0.62357   0.06790   0.00000  Uiso   1.00
C329   C     0.51461   0.59983   0.25128   0.00000  Uiso   1.00
C330   C     0.48538   0.40017   0.24875   0.00000  Uiso   1.00
C331   C     0.42666   0.47251   0.04089   0.00000  Uiso   1.00
C332   C     0.57311   0.53272   0.45982   0.00000  Uiso   1.00
C333   C     0.38467   0.45742   0.01520   0.00000  Uiso   1.00
C334   C     0.61495   0.54785   0.48565   0.00000  Uiso   1.00
C335   C     0.52302   0.65541   0.25206   0.00000  Uiso   1.00
C336   C     0.47696   0.34458   0.24801   0.00000  Uiso   1.00
C337   C     0.46100   0.49434   0.33301   0.00000  Uiso   1.00
C338   C     0.53898   0.50590   0.16704   0.00000  Uiso   1.00
C339   C     0.43662   0.48878   0.38091   0.00000  Uiso   1.00
C340   C     0.56342   0.51280   0.11932   0.00000  Uiso   1.00
C341   C     0.35724   0.45382   0.44611   0.00000  Uiso   1.00
C342   C     0.64201   0.55081   0.05498   0.00000  Uiso   1.00
C343   C     0.37509   0.46177   0.40072   0.00000  Uiso   1.00
C344   C     0.62415   0.54189   0.10020   0.00000  Uiso   1.00
C345   C     0.47679   0.51248   0.40721   0.00000  Uiso   1.00
C346   C     0.52383   0.48933   0.09253   0.00000  Uiso   1.00
C347   C     0.46413   0.49685   0.45144   0.00000  Uiso   1.00
C348   C     0.53584   0.50707   0.04893   0.00000  Uiso   1.00
C349   C     0.40236   0.46862   0.47073   0.00000  Uiso   1.00
C350   C     0.59732   0.53598   0.03000   0.00000  Uiso   1.00
C351   C     0.50925   0.50931   0.47761   0.00000  Uiso   1.00
C352   C     0.49049   0.49571   0.02294   0.00000  Uiso   1.00
Cu353  Cu    0.44071   0.49441   0.24516   0.00000  Uiso   1.00
Cu354  Cu    0.55929   0.50559   0.25483   0.00000  Uiso   1.00
H355   H     0.33687   0.43819   0.03106   0.00000  Uiso   1.00
H356   H     0.66280   0.56688   0.46982   0.00000  Uiso   1.00
H357   H     0.40602   0.46709   0.07520   0.00000  Uiso   1.00
H358   H     0.59417   0.53802   0.42558   0.00000  Uiso   1.00
H359   H     0.56787   0.34474   0.25604   0.00000  Uiso   1.00
H360   H     0.43210   0.65526   0.24403   0.00000  Uiso   1.00
H361   H     0.33472   0.53771   0.28392   0.00000  Uiso   1.00
H362   H     0.66528   0.46228   0.21609   0.00000  Uiso   1.00
N363   N     0.64839   0.51401   0.26212   0.00000  Uiso   1.00
N364   N     0.35161   0.48599   0.23788   0.00000  Uiso   1.00
O365   O     0.46148   0.57142   0.24686   0.00000  Uiso   1.00
O366   O     0.53852   0.42858   0.25314   0.00000  Uiso   1.00
O367   O     0.56163   0.58086   0.25502   0.00000  Uiso   1.00
O368   O     0.43837   0.41914   0.24497   0.00000  Uiso   1.00
O369   O     0.42185   0.49263   0.30854   0.00000  Uiso   1.00
O370   O     0.57815   0.50737   0.19145   0.00000  Uiso   1.00
O371   O     0.52199   0.50207   0.31671   0.00000  Uiso   1.00
O372   O     0.47801   0.49793   0.18329   0.00000  Uiso   1.00
O373   O     0.47383   0.44896   0.10942   0.00000  Uiso   1.00
C374   C     0.49690   0.40426   0.11554   0.00000  Uiso   1.00
H375   H     0.53087   0.41180   0.13644   0.00000  Uiso   1.00
H376   H     0.52135   0.38963   0.08373   0.00000  Uiso   1.00
C377   C     0.44145   0.36256   0.13824   0.00000  Uiso   1.00
H378   H     0.40572   0.35374   0.11884   0.00000  Uiso   1.00
H379   H     0.45824   0.65994   0.14248   0.00000  Uiso   1.00
H380   H     0.41857   0.37644   0.17076   0.00000  Uiso   1.00
O381   O     0.52720   0.55199   0.38936   0.00000  Uiso   1.00
C382   C     0.50455   0.59663   0.38260   0.00000  Uiso   1.00
H383   H     0.47772   0.61043   0.41396   0.00000  Uiso   1.00
H384   H     0.47275   0.58926   0.36019   0.00000  Uiso   1.00
C385   C     0.56057   0.63879   0.36173   0.00000  Uiso   1.00
H386   H     0.58564   0.62554   0.32955   0.00000  Uiso   1.00
H387   H     0.54399   0.34133   0.35700   0.00000  Uiso   1.00
H388   H     0.59422   0.64727   0.38270   0.00000  Uiso   1.00
C389   C     0.33577   0.56311   0.12698   0.00000  Uiso   1.00
H390   H     0.65436   0.58616   0.15563   0.00000  Uiso   1.00
O391   O     0.38902   0.55397   0.11789   0.00000  Uiso   1.00
C392   C     0.66113   0.44456   0.37516   0.00000  Uiso   1.00
H393   H     0.61965   0.46186   0.38097   0.00000  Uiso   1.00
O394   O     0.33462   0.41040   0.34790   0.00000  Uiso   1.00
O395   O     0.62734   0.43924   0.46782   0.00000  Uiso   1.00
C396   C     0.60343   0.38613   0.46214   0.00000  Uiso   1.00
H397   H     0.59731   0.36526   0.49304   0.00000  Uiso   1.00
H398   H     0.63430   0.36676   0.43576   0.00000  Uiso   1.00
C399   C     0.53892   0.38134   0.45279   0.00000  Uiso   1.00
H400   H     0.54291   0.39878   0.42094   0.00000  Uiso   1.00
H401   H     0.51632   0.34009   0.45235   0.00000  Uiso   1.00
H402   H     0.50820   0.40144   0.47821   0.00000  Uiso   1.00
O403   O     0.37165   0.56839   0.03424   0.00000  Uiso   1.00
C404   C     0.38784   0.62300   0.03588   0.00000  Uiso   1.00
H405   H     0.35875   0.64049   0.06462   0.00000  Uiso   1.00
H406   H     0.38260   0.63981   0.00586   0.00000  Uiso   1.00
C407   C     0.45668   0.63752   0.03735   0.00000  Uiso   1.00
H408   H     0.48659   0.61926   0.00986   0.00000  Uiso   1.00
H409   H     0.47172   0.34691   0.03576   0.00000  Uiso   1.00
H410   H     0.46321   0.62357   0.06790   0.00000  Uiso   1.00
C411   C     0.84794   0.59983   0.25128   0.00000  Uiso   1.00
C412   C     0.81871   0.40017   0.24875   0.00000  Uiso   1.00
C413   C     0.75999   0.47251   0.04089   0.00000  Uiso   1.00
C414   C     0.90644   0.53272   0.45982   0.00000  Uiso   1.00
C415   C     0.71800   0.45742   0.01520   0.00000  Uiso   1.00
C416   C     0.94828   0.54785   0.48565   0.00000  Uiso   1.00
C417   C     0.85635   0.65541   0.25206   0.00000  Uiso   1.00
C418   C     0.81029   0.34458   0.24801   0.00000  Uiso   1.00
C419   C     0.79433   0.49434   0.33301   0.00000  Uiso   1.00
C420   C     0.87231   0.50590   0.16704   0.00000  Uiso   1.00
C421   C     0.76996   0.48878   0.38091   0.00000  Uiso   1.00
C422   C     0.89675   0.51280   0.11932   0.00000  Uiso   1.00
C423   C     0.69057   0.45382   0.44611   0.00000  Uiso   1.00
C424   C     0.97535   0.55081   0.05498   0.00000  Uiso   1.00
C425   C     0.70842   0.46177   0.40072   0.00000  Uiso   1.00
C426   C     0.95748   0.54189   0.10020   0.00000  Uiso   1.00
C427   C     0.81012   0.51248   0.40721   0.00000  Uiso   1.00
C428   C     0.85716   0.48933   0.09253   0.00000  Uiso   1.00
C429   C     0.79746   0.49685   0.45144   0.00000  Uiso   1.00
C430   C     0.86918   0.50707   0.04893   0.00000  Uiso   1.00
C431   C     0.73569   0.46862   0.47073   0.00000  Uiso   1.00
C432   C     0.93066   0.53598   0.03000   0.00000  Uiso   1.00
C433   C     0.84258   0.50931   0.47761   0.00000  Uiso   1.00
C434   C     0.82383   0.49571   0.02294   0.00000  Uiso   1.00
Cu435  Cu    0.77404   0.49441   0.24516   0.00000  Uiso   1.00
Cu436  Cu    0.89263   0.50559   0.25483   0.00000  Uiso   1.00
H437   H     0.67020   0.43819   0.03106   0.00000  Uiso   1.00
H438   H     0.99613   0.56688   0.46982   0.00000  Uiso   1.00
H439   H     0.73935   0.46709   0.07520   0.00000  Uiso   1.00
H440   H     0.92751   0.53802   0.42558   0.00000  Uiso   1.00
H441   H     0.90120   0.34474   0.25604   0.00000  Uiso   1.00
H442   H     0.76544   0.65526   0.24403   0.00000  Uiso   1.00
H443   H     0.66805   0.53771   0.28392   0.00000  Uiso   1.00
H444   H     0.99861   0.46228   0.21609   0.00000  Uiso   1.00
N445   N     0.98173   0.51401   0.26212   0.00000  Uiso   1.00
N446   N     0.68494   0.48599   0.23788   0.00000  Uiso   1.00
O447   O     0.79482   0.57142   0.24686   0.00000  Uiso   1.00
O448   O     0.87185   0.42858   0.25314   0.00000  Uiso   1.00
O449   O     0.89496   0.58086   0.25502   0.00000  Uiso   1.00
O450   O     0.77171   0.41914   0.24497   0.00000  Uiso   1.00
O451   O     0.75518   0.49263   0.30854   0.00000  Uiso   1.00
O452   O     0.91149   0.50737   0.19145   0.00000  Uiso   1.00
O453   O     0.85532   0.50207   0.31671   0.00000  Uiso   1.00
O454   O     0.81134   0.49793   0.18329   0.00000  Uiso   1.00
O455   O     0.80716   0.44896   0.10942   0.00000  Uiso   1.00
C456   C     0.83023   0.40426   0.11554   0.00000  Uiso   1.00
H457   H     0.86420   0.41180   0.13644   0.00000  Uiso   1.00
H458   H     0.85468   0.38963   0.08373   0.00000  Uiso   1.00
C459   C     0.77478   0.36256   0.13824   0.00000  Uiso   1.00
H460   H     0.73906   0.35374   0.11884   0.00000  Uiso   1.00
H461   H     0.79157   0.65994   0.14248   0.00000  Uiso   1.00
H462   H     0.75190   0.37644   0.17076   0.00000  Uiso   1.00
O463   O     0.86054   0.55199   0.38936   0.00000  Uiso   1.00
C464   C     0.83788   0.59663   0.38260   0.00000  Uiso   1.00
H465   H     0.81105   0.61043   0.41396   0.00000  Uiso   1.00
H466   H     0.80608   0.58926   0.36019   0.00000  Uiso   1.00
C467   C     0.89391   0.63879   0.36173   0.00000  Uiso   1.00
H468   H     0.91897   0.62554   0.32955   0.00000  Uiso   1.00
H469   H     0.87732   0.34133   0.35700   0.00000  Uiso   1.00
H470   H     0.92755   0.64727   0.38270   0.00000  Uiso   1.00
C471   C     0.66911   0.56311   0.12698   0.00000  Uiso   1.00
H472   H     0.98769   0.58616   0.15563   0.00000  Uiso   1.00
O473   O     0.72235   0.55397   0.11789   0.00000  Uiso   1.00
C474   C     0.99446   0.44456   0.37516   0.00000  Uiso   1.00
H475   H     0.95298   0.46186   0.38097   0.00000  Uiso   1.00
O476   O     0.66795   0.41040   0.34790   0.00000  Uiso   1.00
O477   O     0.96068   0.43924   0.46782   0.00000  Uiso   1.00
C478   C     0.93676   0.38613   0.46214   0.00000  Uiso   1.00
H479   H     0.93064   0.36526   0.49304   0.00000  Uiso   1.00
H480   H     0.96764   0.36676   0.43576   0.00000  Uiso   1.00
C481   C     0.87225   0.38134   0.45279   0.00000  Uiso   1.00
H482   H     0.87624   0.39878   0.42094   0.00000  Uiso   1.00
H483   H     0.84966   0.34009   0.45235   0.00000  Uiso   1.00
H484   H     0.84153   0.40144   0.47821   0.00000  Uiso   1.00
O485   O     0.70498   0.56839   0.03424   0.00000  Uiso   1.00
C486   C     0.72118   0.62300   0.03588   0.00000  Uiso   1.00
H487   H     0.69209   0.64049   0.06462   0.00000  Uiso   1.00
H488   H     0.71593   0.63981   0.00586   0.00000  Uiso   1.00
C489   C     0.79002   0.63752   0.03735   0.00000  Uiso   1.00
H490   H     0.81992   0.61926   0.00986   0.00000  Uiso   1.00
H491   H     0.80505   0.34691   0.03576   0.00000  Uiso   1.00
H492   H     0.79654   0.62357   0.06790   0.00000  Uiso   1.00
C493   C     0.18128   0.93317   0.25128   0.00000  Uiso   1.00
C494   C     0.15205   0.73350   0.24875   0.00000  Uiso   1.00
C495   C     0.09332   0.80584   0.04089   0.00000  Uiso   1.00
C496   C     0.23978   0.86605   0.45982   0.00000  Uiso   1.00
C497   C     0.05133   0.79075   0.01520   0.00000  Uiso   1.00
C498   C     0.28162   0.88118   0.48565   0.00000  Uiso   1.00
C499   C     0.18968   0.98875   0.25206   0.00000  Uiso   1.00
C500   C     0.14362   0.67792   0.24801   0.00000  Uiso   1.00
C501   C     0.12766   0.82768   0.33301   0.00000  Uiso   1.00
C502   C     0.20565   0.83924   0.16704   0.00000  Uiso   1.00
C503   C     0.10329   0.82211   0.38091   0.00000  Uiso   1.00
C504   C     0.23009   0.84613   0.11932   0.00000  Uiso   1.00
C505   C     0.02391   0.78716   0.44611   0.00000  Uiso   1.00
C506   C     0.30868   0.88414   0.05498   0.00000  Uiso   1.00
C507   C     0.04176   0.79510   0.40072   0.00000  Uiso   1.00
C508   C     0.29081   0.87522   0.10020   0.00000  Uiso   1.00
C509   C     0.14345   0.84581   0.40721   0.00000  Uiso   1.00
C510   C     0.19050   0.82266   0.09253   0.00000  Uiso   1.00
C511   C     0.13079   0.83018   0.45144   0.00000  Uiso   1.00
C512   C     0.20251   0.84041   0.04893   0.00000  Uiso   1.00
C513   C     0.06902   0.80196   0.47073   0.00000  Uiso   1.00
C514   C     0.26399   0.86932   0.03000   0.00000  Uiso   1.00
C515   C     0.17591   0.84264   0.47761   0.00000  Uiso   1.00
C516   C     0.15716   0.82905   0.02294   0.00000  Uiso   1.00
Cu517  Cu    0.10737   0.82775   0.24516   0.00000  Uiso   1.00
Cu518  Cu    0.22596   0.83892   0.25483   0.00000  Uiso   1.00
H519   H     0.00354   0.77153   0.03106   0.00000  Uiso   1.00
H520   H     0.32947   0.90021   0.46982   0.00000  Uiso   1.00
H521   H     0.07269   0.80043   0.07520   0.00000  Uiso   1.00
H522   H     0.26084   0.87136   0.42558   0.00000  Uiso   1.00
H523   H     0.23453   0.67807   0.25604   0.00000  Uiso   1.00
H524   H     0.09877   0.98859   0.24403   0.00000  Uiso   1.00
H525   H     0.00138   0.87105   0.28392   0.00000  Uiso   1.00
H526   H     0.33195   0.79561   0.21609   0.00000  Uiso   1.00
N527   N     0.31506   0.84735   0.26212   0.00000  Uiso   1.00
N528   N     0.01827   0.81932   0.23788   0.00000  Uiso   1.00
O529   O     0.12815   0.90476   0.24686   0.00000  Uiso   1.00
O530   O     0.20518   0.76191   0.25314   0.00000  Uiso   1.00
O531   O     0.22829   0.91420   0.25502   0.00000  Uiso   1.00
O532   O     0.10504   0.75247   0.24497   0.00000  Uiso   1.00
O533   O     0.08851   0.82597   0.30854   0.00000  Uiso   1.00
O534   O     0.24482   0.84070   0.19145   0.00000  Uiso   1.00
O535   O     0.18866   0.83540   0.31671   0.00000  Uiso   1.00
O536   O     0.14468   0.83126   0.18329   0.00000  Uiso   1.00
O537   O     0.14050   0.78229   0.10942   0.00000  Uiso   1.00
C538   C     0.16356   0.73760   0.11554   0.00000  Uiso   1.00
H539   H     0.19753   0.74514   0.13644   0.00000  Uiso   1.00
H540   H     0.18802   0.72296   0.08373   0.00000  Uiso   1.00
C541   C     0.10812   0.69589   0.13824   0.00000  Uiso   1.00
H542   H     0.07239   0.68707   0.11884   0.00000  Uiso   1.00
H543   H     0.12490   0.99328   0.14248   0.00000  Uiso   1.00
H544   H     0.08523   0.70977   0.17076   0.00000  Uiso   1.00
O545   O     0.19387   0.88533   0.38936   0.00000  Uiso   1.00
C546   C     0.17122   0.92996   0.38260   0.00000  Uiso   1.00
H547   H     0.14439   0.94376   0.41396   0.00000  Uiso   1.00
H548   H     0.13942   0.92259   0.36019   0.00000  Uiso   1.00
C549   C     0.22724   0.97212   0.36173   0.00000  Uiso   1.00
H550   H     0.25231   0.95887   0.32955   0.00000  Uiso   1.00
H551   H     0.21065   0.67466   0.35700   0.00000  Uiso   1.00
H552   H     0.26089   0.98061   0.38270   0.00000  Uiso   1.00
C553   C     0.00244   0.89644   0.12698   0.00000  Uiso   1.00
H554   H     0.32102   0.91949   0.15563   0.00000  Uiso   1.00
O555   O     0.05569   0.88730   0.11789   0.00000  Uiso   1.00
C556   C     0.32780   0.77790   0.37516   0.00000  Uiso   1.00
H557   H     0.28632   0.79519   0.38097   0.00000  Uiso   1.00
O558   O     0.00128   0.74374   0.34790   0.00000  Uiso   1.00
O559   O     0.29401   0.77257   0.46782   0.00000  Uiso   1.00
C560   C     0.27010   0.71946   0.46214   0.00000  Uiso   1.00
H561   H     0.26398   0.69859   0.49304   0.00000  Uiso   1.00
H562   H     0.30097   0.70009   0.43576   0.00000  Uiso   1.00
C563   C     0.20558   0.71467   0.45279   0.00000  Uiso   1.00
H564   H     0.20957   0.73211   0.42094   0.00000  Uiso   1.00
H565   H     0.18299   0.67342   0.45235   0.00000  Uiso   1.00
H566   H     0.17486   0.73477   0.47821   0.00000  Uiso   1.00
O567   O     0.03831   0.90172   0.03424   0.00000  Uiso   1.00
C568   C     0.05451   0.95633   0.03588   0.00000  Uiso   1.00
H569   H     0.02542   0.97382   0.06462   0.00000  Uiso   1.00
H570   H     0.04926   0.97314   0.00586   0.00000  Uiso   1.00
C571   C     0.12335   0.97085   0.03735   0.00000  Uiso   1.00
H572   H     0.15325   0.95259   0.00986   0.00000  Uiso   1.00
H573   H     0.13839   0.68024   0.03576   0.00000  Uiso   1.00
H574   H     0.12987   0.95690   0.06790   0.00000  Uiso   1.00
C575   C     0.51461   0.93317   0.25128   0.00000  Uiso   1.00
C576   C     0.48538   0.73350   0.24875   0.00000  Uiso   1.00
C577   C     0.42666   0.80584   0.04089   0.00000  Uiso   1.00
C578   C     0.57311   0.86605   0.45982   0.00000  Uiso   1.00
C579   C     0.38467   0.79075   0.01520   0.00000  Uiso   1.00
C580   C     0.61495   0.88118   0.48565   0.00000  Uiso   1.00
C581   C     0.52302   0.98875   0.25206   0.00000  Uiso   1.00
C582   C     0.47696   0.67792   0.24801   0.00000  Uiso   1.00
C583   C     0.46100   0.82768   0.33301   0.00000  Uiso   1.00
C584   C     0.53898   0.83924   0.16704   0.00000  Uiso   1.00
C585   C     0.43662   0.82211   0.38091   0.00000  Uiso   1.00
C586   C     0.56342   0.84613   0.11932   0.00000  Uiso   1.00
C587   C     0.35724   0.78716   0.44611   0.00000  Uiso   1.00
C588   C     0.64201   0.88414   0.05498   0.00000  Uiso   1.00
C589   C     0.37509   0.79510   0.40072   0.00000  Uiso   1.00
C590   C     0.62415   0.87522   0.10020   0.00000  Uiso   1.00
C591   C     0.47679   0.84581   0.40721   0.00000  Uiso   1.00
C592   C     0.52383   0.82266   0.09253   0.00000  Uiso   1.00
C593   C     0.46413   0.83018   0.45144   0.00000  Uiso   1.00
C594   C     0.53584   0.84041   0.04893   0.00000  Uiso   1.00
C595   C     0.40236   0.80196   0.47073   0.00000  Uiso   1.00
C596   C     0.59732   0.86932   0.03000   0.00000  Uiso   1.00
C597   C     0.50925   0.84264   0.47761   0.00000  Uiso   1.00
C598   C     0.49049   0.82905   0.02294   0.00000  Uiso   1.00
Cu599  Cu    0.44071   0.82775   0.24516   0.00000  Uiso   1.00
Cu600  Cu    0.55929   0.83892   0.25483   0.00000  Uiso   1.00
H601   H     0.33687   0.77153   0.03106   0.00000  Uiso   1.00
H602   H     0.66280   0.90021   0.46982   0.00000  Uiso   1.00
H603   H     0.40602   0.80043   0.07520   0.00000  Uiso   1.00
H604   H     0.59417   0.87136   0.42558   0.00000  Uiso   1.00
H605   H     0.56787   0.67807   0.25604   0.00000  Uiso   1.00
H606   H     0.43210   0.98859   0.24403   0.00000  Uiso   1.00
H607   H     0.33472   0.87105   0.28392   0.00000  Uiso   1.00
H608   H     0.66528   0.79561   0.21609   0.00000  Uiso   1.00
N609   N     0.64839   0.84735   0.26212   0.00000  Uiso   1.00
N610   N     0.35161   0.81932   0.23788   0.00000  Uiso   1.00
O611   O     0.46148   0.90476   0.24686   0.00000  Uiso   1.00
O612   O     0.53852   0.76191   0.25314   0.00000  Uiso   1.00
O613   O     0.56163   0.91420   0.25502   0.00000  Uiso   1.00
O614   O     0.43837   0.75247   0.24497   0.00000  Uiso   1.00
O615   O     0.42185   0.82597   0.30854   0.00000  Uiso   1.00
O616   O     0.57815   0.84070   0.19145   0.00000  Uiso   1.00
O617   O     0.52199   0.83540   0.31671   0.00000  Uiso   1.00
O618   O     0.47801   0.83126   0.18329   0.00000  Uiso   1.00
O619   O     0.47383   0.78229   0.10942   0.00000  Uiso   1.00
C620   C     0.49690   0.73760   0.11554   0.00000  Uiso   1.00
H621   H     0.53087   0.74514   0.13644   0.00000  Uiso   1.00
H622   H     0.52135   0.72296   0.08373   0.00000  Uiso   1.00
C623   C     0.44145   0.69589   0.13824   0.00000  Uiso   1.00
H624   H     0.40572   0.68707   0.11884   0.00000  Uiso   1.00
H625   H     0.45824   0.99328   0.14248   0.00000  Uiso   1.00
H626   H     0.41857   0.70977   0.17076   0.00000  Uiso   1.00
O627   O     0.52720   0.88533   0.38936   0.00000  Uiso   1.00
C628   C     0.50455   0.92996   0.38260   0.00000  Uiso   1.00
H629   H     0.47772   0.94376   0.41396   0.00000  Uiso   1.00
H630   H     0.47275   0.92259   0.36019   0.00000  Uiso   1.00
C631   C     0.56057   0.97212   0.36173   0.00000  Uiso   1.00
H632   H     0.58564   0.95887   0.32955   0.00000  Uiso   1.00
H633   H     0.54399   0.67466   0.35700   0.00000  Uiso   1.00
H634   H     0.59422   0.98061   0.38270   0.00000  Uiso   1.00
C635   C     0.33577   0.89644   0.12698   0.00000  Uiso   1.00
H636   H     0.65436   0.91949   0.15563   0.00000  Uiso   1.00
O637   O     0.38902   0.88730   0.11789   0.00000  Uiso   1.00
C638   C     0.66113   0.77790   0.37516   0.00000  Uiso   1.00
H639   H     0.61965   0.79519   0.38097   0.00000  Uiso   1.00
O640   O     0.33462   0.74374   0.34790   0.00000  Uiso   1.00
O641   O     0.62734   0.77257   0.46782   0.00000  Uiso   1.00
C642   C     0.60343   0.71946   0.46214   0.00000  Uiso   1.00
H643   H     0.59731   0.69859   0.49304   0.00000  Uiso   1.00
H644   H     0.63430   0.70009   0.43576   0.00000  Uiso   1.00
C645   C     0.53892   0.71467   0.45279   0.00000  Uiso   1.00
H646   H     0.54291   0.73211   0.42094   0.00000  Uiso   1.00
H647   H     0.51632   0.67342   0.45235   0.00000  Uiso   1.00
H648   H     0.50820   0.73477   0.47821   0.00000  Uiso   1.00
O649   O     0.37165   0.90172   0.03424   0.00000  Uiso   1.00
C650   C     0.38784   0.95633   0.03588   0.00000  Uiso   1.00
H651   H     0.35875   0.97382   0.06462   0.00000  Uiso   1.00
H652   H     0.38260   0.97314   0.00586   0.00000  Uiso   1.00
C653   C     0.45668   0.97085   0.03735   0.00000  Uiso   1.00
H654   H     0.48659   0.95259   0.00986   0.00000  Uiso   1.00
H655   H     0.47172   0.68024   0.03576   0.00000  Uiso   1.00
H656   H     0.46321   0.95690   0.06790   0.00000  Uiso   1.00
C657   C     0.84794   0.93317   0.25128   0.00000  Uiso   1.00
C658   C     0.81871   0.73350   0.24875   0.00000  Uiso   1.00
C659   C     0.75999   0.80584   0.04089   0.00000  Uiso   1.00
C660   C     0.90644   0.86605   0.45982   0.00000  Uiso   1.00
C661   C     0.71800   0.79075   0.01520   0.00000  Uiso   1.00
C662   C     0.94828   0.88118   0.48565   0.00000  Uiso   1.00
C663   C     0.85635   0.98875   0.25206   0.00000  Uiso   1.00
C664   C     0.81029   0.67792   0.24801   0.00000  Uiso   1.00
C665   C     0.79433   0.82768   0.33301   0.00000  Uiso   1.00
C666   C     0.87231   0.83924   0.16704   0.00000  Uiso   1.00
C667   C     0.76996   0.82211   0.38091   0.00000  Uiso   1.00
C668   C     0.89675   0.84613   0.11932   0.00000  Uiso   1.00
C669   C     0.69057   0.78716   0.44611   0.00000  Uiso   1.00
C670   C     0.97535   0.88414   0.05498   0.00000  Uiso   1.00
C671   C     0.70842   0.79510   0.40072   0.00000  Uiso   1.00
C672   C     0.95748   0.87522   0.10020   0.00000  Uiso   1.00
C673   C     0.81012   0.84581   0.40721   0.00000  Uiso   1.00
C674   C     0.85716   0.82266   0.09253   0.00000  Uiso   1.00
C675   C     0.79746   0.83018   0.45144   0.00000  Uiso   1.00
C676   C     0.86918   0.84041   0.04893   0.00000  Uiso   1.00
C677   C     0.73569   0.80196   0.47073   0.00000  Uiso   1.00
C678   C     0.93066   0.86932   0.03000   0.00000  Uiso   1.00
C679   C     0.84258   0.84264   0.47761   0.00000  Uiso   1.00
C680   C     0.82383   0.82905   0.02294   0.00000  Uiso   1.00
Cu681  Cu    0.77404   0.82775   0.24516   0.00000  Uiso   1.00
Cu682  Cu    0.89263   0.83892   0.25483   0.00000  Uiso   1.00
H683   H     0.67020   0.77153   0.03106   0.00000  Uiso   1.00
H684   H     0.99613   0.90021   0.46982   0.00000  Uiso   1.00
H685   H     0.73935   0.80043   0.07520   0.00000  Uiso   1.00
H686   H     0.92751   0.87136   0.42558   0.00000  Uiso   1.00
H687   H     0.90120   0.67807   0.25604   0.00000  Uiso   1.00
H688   H     0.76544   0.98859   0.24403   0.00000  Uiso   1.00
H689   H     0.66805   0.87105   0.28392   0.00000  Uiso   1.00
H690   H     0.99861   0.79561   0.21609   0.00000  Uiso   1.00
N691   N     0.98173   0.84735   0.26212   0.00000  Uiso   1.00
N692   N     0.68494   0.81932   0.23788   0.00000  Uiso   1.00
O693   O     0.79482   0.90476   0.24686   0.00000  Uiso   1.00
O694   O     0.87185   0.76191   0.25314   0.00000  Uiso   1.00
O695   O     0.89496   0.91420   0.25502   0.00000  Uiso   1.00
O696   O     0.77171   0.75247   0.24497   0.00000  Uiso   1.00
O697   O     0.75518   0.82597   0.30854   0.00000  Uiso   1.00
O698   O     0.91149   0.84070   0.19145   0.00000  Uiso   1.00
O699   O     0.85532   0.83540   0.31671   0.00000  Uiso   1.00
O700   O     0.81134   0.83126   0.18329   0.00000  Uiso   1.00
O701   O     0.80716   0.78229   0.10942   0.00000  Uiso   1.00
C702   C     0.83023   0.73760   0.11554   0.00000  Uiso   1.00
H703   H     0.86420   0.74514   0.13644   0.00000  Uiso   1.00
H704   H     0.85468   0.72296   0.08373   0.00000  Uiso   1.00
C705   C     0.77478   0.69589   0.13824   0.00000  Uiso   1.00
H706   H     0.73906   0.68707   0.11884   0.00000  Uiso   1.00
H707   H     0.79157   0.99328   0.14248   0.00000  Uiso   1.00
H708   H     0.75190   0.70977   0.17076   0.00000  Uiso   1.00
O709   O     0.86054   0.88533   0.38936   0.00000  Uiso   1.00
C710   C     0.83788   0.92996   0.38260   0.00000  Uiso   1.00
H711   H     0.81105   0.94376   0.41396   0.00000  Uiso   1.00
H712   H     0.80608   0.92259   0.36019   0.00000  Uiso   1.00
C713   C     0.89391   0.97212   0.36173   0.00000  Uiso   1.00
H714   H     0.91897   0.95887   0.32955   0.00000  Uiso   1.00
H715   H     0.87732   0.67466   0.35700   0.00000  Uiso   1.00
H716   H     0.92755   0.98061   0.38270   0.00000  Uiso   1.00
C717   C     0.66911   0.89644   0.12698   0.00000  Uiso   1.00
H718   H     0.98769   0.91949   0.15563   0.00000  Uiso   1.00
O719   O     0.72235   0.88730   0.11789   0.00000  Uiso   1.00
C720   C     0.99446   0.77790   0.37516   0.00000  Uiso   1.00
H721   H     0.95298   0.79519   0.38097   0.00000  Uiso   1.00
O722   O     0.66795   0.74374   0.34790   0.00000  Uiso   1.00
O723   O     0.96068   0.77257   0.46782   0.00000  Uiso   1.00
C724   C     0.93676   0.71946   0.46214   0.00000  Uiso   1.00
H725   H     0.93064   0.69859   0.49304   0.00000  Uiso   1.00
H726   H     0.96764   0.70009   0.43576   0.00000  Uiso   1.00
C727   C     0.87225   0.71467   0.45279   0.00000  Uiso   1.00
H728   H     0.87624   0.73211   0.42094   0.00000  Uiso   1.00
H729   H     0.84966   0.67342   0.45235   0.00000  Uiso   1.00
H730   H     0.84153   0.73477   0.47821   0.00000  Uiso   1.00
O731   O     0.70498   0.90172   0.03424   0.00000  Uiso   1.00
C732   C     0.72118   0.95633   0.03588   0.00000  Uiso   1.00
H733   H     0.69209   0.97382   0.06462   0.00000  Uiso   1.00
H734   H     0.71593   0.97314   0.00586   0.00000  Uiso   1.00
C735   C     0.79002   0.97085   0.03735   0.00000  Uiso   1.00
H736   H     0.81992   0.95259   0.00986   0.00000  Uiso   1.00
H737   H     0.80505   0.68024   0.03576   0.00000  Uiso   1.00
H738   H     0.79654   0.95690   0.06790   0.00000  Uiso   1.00
C739   C     0.18128   0.26650   0.75128   0.00000  Uiso   1.00
C740   C     0.15205   0.06683   0.74875   0.00000  Uiso   1.00
C741   C     0.09332   0.13918   0.54089   0.00000  Uiso   1.00
C742   C     0.23978   0.19939   0.95982   0.00000  Uiso   1.00
C743   C     0.05133   0.12408   0.51520   0.00000  Uiso   1.00
C744   C     0.28162   0.21451   0.98565   0.00000  Uiso   1.00
C745   C     0.18968   0.32208   0.75206   0.00000  Uiso   1.00
C746   C     0.14362   0.01125   0.74801   0.00000  Uiso   1.00
C747   C     0.12766   0.16101   0.83301   0.00000  Uiso   1.00
C748   C     0.20565   0.17257   0.66704   0.00000  Uiso   1.00
C749   C     0.10329   0.15544   0.88091   0.00000  Uiso   1.00
C750   C     0.23009   0.17947   0.61932   0.00000  Uiso   1.00
C751   C     0.02391   0.12049   0.94611   0.00000  Uiso   1.00
C752   C     0.30868   0.21747   0.55498   0.00000  Uiso   1.00
C753   C     0.04176   0.12844   0.90072   0.00000  Uiso   1.00
C754   C     0.29081   0.20855   0.60020   0.00000  Uiso   1.00
C755   C     0.14345   0.17914   0.90721   0.00000  Uiso   1.00
C756   C     0.19050   0.15599   0.59253   0.00000  Uiso   1.00
C757   C     0.13079   0.16351   0.95144   0.00000  Uiso   1.00
C758   C     0.20251   0.17374   0.54893   0.00000  Uiso   1.00
C759   C     0.06902   0.13529   0.97073   0.00000  Uiso   1.00
C760   C     0.26399   0.20265   0.53000   0.00000  Uiso   1.00
C761   C     0.17591   0.17597   0.97761   0.00000  Uiso   1.00
C762   C     0.15716   0.16238   0.52294   0.00000  Uiso   1.00
Cu763  Cu    0.10737   0.16108   0.74516   0.00000  Uiso   1.00
Cu764  Cu    0.22596   0.17225   0.75483   0.00000  Uiso   1.00
H765   H     0.00354   0.10486   0.53106   0.00000  Uiso   1.00
H766   H     0.32947   0.23354   0.96982   0.00000  Uiso   1.00
H767   H     0.07269   0.13376   0.57520   0.00000  Uiso   1.00
H768   H     0.26084   0.20469   0.92558   0.00000  Uiso   1.00
H769   H     0.23453   0.01140   0.75604   0.00000  Uiso   1.00
H770   H     0.09877   0.32193   0.74403   0.00000  Uiso   1.00
H771   H     0.00138   0.20438   0.78392   0.00000  Uiso   1.00
H772   H     0.33195   0.12895   0.71609   0.00000  Uiso   1.00
N773   N     0.31506   0.18068   0.76212   0.00000  Uiso   1.00
N774   N     0.01827   0.15265   0.73788   0.00000  Uiso   1.00
O775   O     0.12815   0.23809   0.74686   0.00000  Uiso   1.00
O776   O     0.20518   0.09524   0.75314   0.00000  Uiso   1.00
O777   O     0.22829   0.24753   0.75502   0.00000  Uiso   1.00
O778   O     0.10504   0.08580   0.74497   0.00000  Uiso   1.00
O779   O     0.08851   0.15930   0.80854   0.00000  Uiso   1.00
O780   O     0.24482   0.17403   0.69145   0.00000  Uiso   1.00
O781   O     0.18866   0.16874   0.81671   0.00000  Uiso   1.00
O782   O     0.14468   0.16460   0.68329   0.00000  Uiso   1.00
O783   O     0.14050   0.11562   0.60942   0.00000  Uiso   1.00
C784   C     0.16356   0.07093   0.61554   0.00000  Uiso   1.00
H785   H     0.19753   0.07847   0.63644   0.00000  Uiso   1.00
H786   H     0.18802   0.05629   0.58373   0.00000  Uiso   1.00
C787   C     0.10812   0.02922   0.63824   0.00000  Uiso   1.00
H788   H     0.07239   0.02040   0.61884   0.00000  Uiso   1.00
H789   H     0.12490   0.32661   0.64248   0.00000  Uiso   1.00
H790   H     0.08523   0.04310   0.67076   0.00000  Uiso   1.00
O791   O     0.19387   0.21866   0.88936   0.00000  Uiso   1.00
C792   C     0.17122   0.26330   0.88260   0.00000  Uiso   1.00
H793   H     0.14439   0.27709   0.91396   0.00000  Uiso   1.00
H794   H     0.13942   0.25592   0.86019   0.00000  Uiso   1.00
C795   C     0.22724   0.30545   0.86173   0.00000  Uiso   1.00
H796   H     0.25231   0.29220   0.82955   0.00000  Uiso   1.00
H797   H     0.21065   0.00799   0.85700   0.00000  Uiso   1.00
H798   H     0.26089   0.31394   0.88270   0.00000  Uiso   1.00
C799   C     0.00244   0.22978   0.62698   0.00000  Uiso   1.00
H800   H     0.32102   0.25283   0.65563   0.00000  Uiso   1.00
O801   O     0.05569   0.22063   0.61789   0.00000  Uiso   1.00
C802   C     0.32780   0.11123   0.87516   0.00000  Uiso   1.00
H803   H     0.28632   0.12853   0.88097   0.00000  Uiso   1.00
O804   O     0.00128   0.07707   0.84790   0.00000  Uiso   1.00
O805   O     0.29401   0.10591   0.96782   0.00000  Uiso   1.00
C806   C     0.27010   0.05279   0.96214   0.00000  Uiso   1.00
H807   H     0.26398   0.03192   0.99304   0.00000  Uiso   1.00
H808   H     0.30097   0.03342   0.93576   0.00000  Uiso   1.00
C809   C     0.20558   0.04800   0.95279   0.00000  Uiso   1.00
H810   H     0.20957   0.06544   0.92094   0.00000  Uiso   1.00
H811   H     0.18299   0.00675   0.95235   0.00000  Uiso   1.00
H812   H     0.17486   0.06810   0.97821   0.00000  Uiso   1.00
O813   O     0.03831   0.23505   0.53424   0.00000  Uiso   1.00
C814   C     0.05451   0.28967   0.53588   0.00000  Uiso   1.00
H815   H     0.02542   0.30716   0.56462   0.00000  Uiso   1.00
H816   H     0.04926   0.30647   0.50586   0.00000  Uiso   1.00
C817   C     0.12335   0.30419   0.53735   0.00000  Uiso   1.00
H818   H     0.15325   0.28592   0.50986   0.00000  Uiso   1.00
H819   H     0.13839   0.01358   0.53576   0.00000  Uiso   1.00
H820   H     0.12987   0.29024   0.56790   0.00000  Uiso   1.00
C821   C     0.51461   0.26650   0.75128   0.00000  Uiso   1.00
C822   C     0.48538   0.06683   0.74875   0.00000  Uiso   1.00
C823   C     0.42666   0.13918   0.54089   0.00000  Uiso   1.00
C824   C     0.57311   0.19939   0.95982   0.00000  Uiso   1.00
C825   C     0.38467   0.12408   0.51520   0.00000  Uiso   1.00
C826   C     0.61495   0.21451   0.98565   0.00000  Uiso   1.00
C827   C     0.52302   0.32208   0.75206   0.00000  Uiso   1.00
C828   C     0.47696   0.01125   0.74801   0.00000  Uiso   1.00
C829   C     0.46100   0.16101   0.83301   0.00000  Uiso   1.00
C830   C     0.53898   0.17257   0.66704   0.00000  Uiso   1.00
C831   C     0.43662   0.15544   0.88091   0.00000  Uiso   1.00
C832   C     0.56342   0.17947   0.61932   0.00000  Uiso   1.00
C833   C     0.35724   0.12049   0.94611   0.00000  Uiso   1.00
C834   C     0.64201   0.21747   0.55498   0.00000  Uiso   1.00
C835   C     0.37509   0.12844   0.90072   0.00000  Uiso   1.00
C836   C     0.62415   0.20855   0.60020   0.00000  Uiso   1.00
C837   C     0.47679   0.17914   0.90721   0.00000  Uiso   1.00
C838   C     0.52383   0.15599   0.59253   0.00000  Uiso   1.00
C839   C     0.46413   0.16351   0.95144   0.00000  Uiso   1.00
C840   C     0.53584   0.17374   0.54893   0.00000  Uiso   1.00
C841   C     0.40236   0.13529   0.97073   0.00000  Uiso   1.00
C842   C     0.59732   0.20265   0.53000   0.00000  Uiso   1.00
C843   C     0.50925   0.17597   0.97761   0.00000  Uiso   1.00
C844   C     0.49049   0.16238   0.52294   0.00000  Uiso   1.00
Cu845  Cu    0.44071   0.16108   0.74516   0.00000  Uiso   1.00
Cu846  Cu    0.55929   0.17225   0.75483   0.00000  Uiso   1.00
H847   H     0.33687   0.10486   0.53106   0.00000  Uiso   1.00
H848   H     0.66280   0.23354   0.96982   0.00000  Uiso   1.00
H849   H     0.40602   0.13376   0.57520   0.00000  Uiso   1.00
H850   H     0.59417   0.20469   0.92558   0.00000  Uiso   1.00
H851   H     0.56787   0.01140   0.75604   0.00000  Uiso   1.00
H852   H     0.43210   0.32193   0.74403   0.00000  Uiso   1.00
H853   H     0.33472   0.20438   0.78392   0.00000  Uiso   1.00
H854   H     0.66528   0.12895   0.71609   0.00000  Uiso   1.00
N855   N     0.64839   0.18068   0.76212   0.00000  Uiso   1.00
N856   N     0.35161   0.15265   0.73788   0.00000  Uiso   1.00
O857   O     0.46148   0.23809   0.74686   0.00000  Uiso   1.00
O858   O     0.53852   0.09524   0.75314   0.00000  Uiso   1.00
O859   O     0.56163   0.24753   0.75502   0.00000  Uiso   1.00
O860   O     0.43837   0.08580   0.74497   0.00000  Uiso   1.00
O861   O     0.42185   0.15930   0.80854   0.00000  Uiso   1.00
O862   O     0.57815   0.17403   0.69145   0.00000  Uiso   1.00
O863   O     0.52199   0.16874   0.81671   0.00000  Uiso   1.00
O864   O     0.47801   0.16460   0.68329   0.00000  Uiso   1.00
O865   O     0.47383   0.11562   0.60942   0.00000  Uiso   1.00
C866   C     0.49690   0.07093   0.61554   0.00000  Uiso   1.00
H867   H     0.53087   0.07847   0.63644   0.00000  Uiso   1.00
H868   H     0.52135   0.05629   0.58373   0.00000  Uiso   1.00
C869   C     0.44145   0.02922   0.63824   0.00000  Uiso   1.00
H870   H     0.40572   0.02040   0.61884   0.00000  Uiso   1.00
H871   H     0.45824   0.32661   0.64248   0.00000  Uiso   1.00
H872   H     0.41857   0.04310   0.67076   0.00000  Uiso   1.00
O873   O     0.52720   0.21866   0.88936   0.00000  Uiso   1.00
C874   C     0.50455   0.26330   0.88260   0.00000  Uiso   1.00
H875   H     0.47772   0.27709   0.91396   0.00000  Uiso   1.00
H876   H     0.47275   0.25592   0.86019   0.00000  Uiso   1.00
C877   C     0.56057   0.30545   0.86173   0.00000  Uiso   1.00
H878   H     0.58564   0.29220   0.82955   0.00000  Uiso   1.00
H879   H     0.54399   0.00799   0.85700   0.00000  Uiso   1.00
H880   H     0.59422   0.31394   0.88270   0.00000  Uiso   1.00
C881   C     0.33577   0.22978   0.62698   0.00000  Uiso   1.00
H882   H     0.65436   0.25283   0.65563   0.00000  Uiso   1.00
O883   O     0.38902   0.22063   0.61789   0.00000  Uiso   1.00
C884   C     0.66113   0.11123   0.87516   0.00000  Uiso   1.00
H885   H     0.61965   0.12853   0.88097   0.00000  Uiso   1.00
O886   O     0.33462   0.07707   0.84790   0.00000  Uiso   1.00
O887   O     0.62734   0.10591   0.96782   0.00000  Uiso   1.00
C888   C     0.60343   0.05279   0.96214   0.00000  Uiso   1.00
H889   H     0.59731   0.03192   0.99304   0.00000  Uiso   1.00
H890   H     0.63430   0.03342   0.93576   0.00000  Uiso   1.00
C891   C     0.53892   0.04800   0.95279   0.00000  Uiso   1.00
H892   H     0.54291   0.06544   0.92094   0.00000  Uiso   1.00
H893   H     0.51632   0.00675   0.95235   0.00000  Uiso   1.00
H894   H     0.50820   0.06810   0.97821   0.00000  Uiso   1.00
O895   O     0.37165   0.23505   0.53424   0.00000  Uiso   1.00
C896   C     0.38784   0.28967   0.53588   0.00000  Uiso   1.00
H897   H     0.35875   0.30716   0.56462   0.00000  Uiso   1.00
H898   H     0.38260   0.30647   0.50586   0.00000  Uiso   1.00
C899   C     0.45668   0.30419   0.53735   0.00000  Uiso   1.00
H900   H     0.48659   0.28592   0.50986   0.00000  Uiso   1.00
H901   H     0.47172   0.01358   0.53576   0.00000  Uiso   1.00
H902   H     0.46321   0.29024   0.56790   0.00000  Uiso   1.00
C903   C     0.84794   0.26650   0.75128   0.00000  Uiso   1.00
C904   C     0.81871   0.06683   0.74875   0.00000  Uiso   1.00
C905   C     0.75999   0.13918   0.54089   0.00000  Uiso   1.00
C906   C     0.90644   0.19939   0.95982   0.00000  Uiso   1.00
C907   C     0.71800   0.12408   0.51520   0.00000  Uiso   1.00
C908   C     0.94828   0.21451   0.98565   0.00000  Uiso   1.00
C909   C     0.85635   0.32208   0.75206   0.00000  Uiso   1.00
C910   C     0.81029   0.01125   0.74801   0.00000  Uiso   1.00
C911   C     0.79433   0.16101   0.83301   0.00000  Uiso   1.00
C912   C     0.87231   0.17257   0.66704   0.00000  Uiso   1.00
C913   C     0.76996   0.15544   0.88091   0.00000  Uiso   1.00
C914   C     0.89675   0.17947   0.61932   0.00000  Uiso   1.00
C915   C     0.69057   0.12049   0.94611   0.00000  Uiso   1.00
C916   C     0.97535   0.21747   0.55498   0.00000  Uiso   1.00
C917   C     0.70842   0.12844   0.90072   0.00000  Uiso   1.00
C918   C     0.95748   0.20855   0.60020   0.00000  Uiso   1.00
C919   C     0.81012   0.17914   0.90721   0.00000  Uiso   1.00
C920   C     0.85716   0.15599   0.59253   0.00000  Uiso   1.00
C921   C     0.79746   0.16351   0.95144   0.00000  Uiso   1.00
C922   C     0.86918   0.17374   0.54893   0.00000  Uiso   1.00
C923   C     0.73569   0.13529   0.97073   0.00000  Uiso   1.00
C924   C     0.93066   0.20265   0.53000   0.00000  Uiso   1.00
C925   C     0.84258   0.17597   0.97761   0.00000  Uiso   1.00
C926   C     0.82383   0.16238   0.52294   0.00000  Uiso   1.00
Cu927  Cu    0.77404   0.16108   0.74516   0.00000  Uiso   1.00
Cu928  Cu    0.89263   0.17225   0.75483   0.00000  Uiso   1.00
H929   H     0.67020   0.10486   0.53106   0.00000  Uiso   1.00
H930   H     0.99613   0.23354   0.96982   0.00000  Uiso   1.00
H931   H     0.73935   0.13376   0.57520   0.00000  Uiso   1.00
H932   H     0.92751   0.20469   0.92558   0.00000  Uiso   1.00
H933   H     0.90120   0.01140   0.75604   0.00000  Uiso   1.00
H934   H     0.76544   0.32193   0.74403   0.00000  Uiso   1.00
H935   H     0.66805   0.20438   0.78392   0.00000  Uiso   1.00
H936   H     0.99861   0.12895   0.71609   0.00000  Uiso   1.00
N937   N     0.98173   0.18068   0.76212   0.00000  Uiso   1.00
N938   N     0.68494   0.15265   0.73788   0.00000  Uiso   1.00
O939   O     0.79482   0.23809   0.74686   0.00000  Uiso   1.00
O940   O     0.87185   0.09524   0.75314   0.00000  Uiso   1.00
O941   O     0.89496   0.24753   0.75502   0.00000  Uiso   1.00
O942   O     0.77171   0.08580   0.74497   0.00000  Uiso   1.00
O943   O     0.75518   0.15930   0.80854   0.00000  Uiso   1.00
O944   O     0.91149   0.17403   0.69145   0.00000  Uiso   1.00
O945   O     0.85532   0.16874   0.81671   0.00000  Uiso   1.00
O946   O     0.81134   0.16460   0.68329   0.00000  Uiso   1.00
O947   O     0.80716   0.11562   0.60942   0.00000  Uiso   1.00
C948   C     0.83023   0.07093   0.61554   0.00000  Uiso   1.00
H949   H     0.86420   0.07847   0.63644   0.00000  Uiso   1.00
H950   H     0.85468   0.05629   0.58373   0.00000  Uiso   1.00
C951   C     0.77478   0.02922   0.63824   0.00000  Uiso   1.00
H952   H     0.73906   0.02040   0.61884   0.00000  Uiso   1.00
H953   H     0.79157   0.32661   0.64248   0.00000  Uiso   1.00
H954   H     0.75190   0.04310   0.67076   0.00000  Uiso   1.00
O955   O     0.86054   0.21866   0.88936   0.00000  Uiso   1.00
C956   C     0.83788   0.26330   0.88260   0.00000  Uiso   1.00
H957   H     0.81105   0.27709   0.91396   0.00000  Uiso   1.00
H958   H     0.80608   0.25592   0.86019   0.00000  Uiso   1.00
C959   C     0.89391   0.30545   0.86173   0.00000  Uiso   1.00
H960   H     0.91897   0.29220   0.82955   0.00000  Uiso   1.00
H961   H     0.87732   0.00799   0.85700   0.00000  Uiso   1.00
H962   H     0.92755   0.31394   0.88270   0.00000  Uiso   1.00
C963   C     0.66911   0.22978   0.62698   0.00000  Uiso   1.00
H964   H     0.98769   0.25283   0.65563   0.00000  Uiso   1.00
O965   O     0.72235   0.22063   0.61789   0.00000  Uiso   1.00
C966   C     0.99446   0.11123   0.87516   0.00000  Uiso   1.00
H967   H     0.95298   0.12853   0.88097   0.00000  Uiso   1.00
O968   O     0.66795   0.07707   0.84790   0.00000  Uiso   1.00
O969   O     0.96068   0.10591   0.96782   0.00000  Uiso   1.00
C970   C     0.93676   0.05279   0.96214   0.00000  Uiso   1.00
H971   H     0.93064   0.03192   0.99304   0.00000  Uiso   1.00
H972   H     0.96764   0.03342   0.93576   0.00000  Uiso   1.00
C973   C     0.87225   0.04800   0.95279   0.00000  Uiso   1.00
H974   H     0.87624   0.06544   0.92094   0.00000  Uiso   1.00
H975   H     0.84966   0.00675   0.95235   0.00000  Uiso   1.00
H976   H     0.84153   0.06810   0.97821   0.00000  Uiso   1.00
O977   O     0.70498   0.23505   0.53424   0.00000  Uiso   1.00
C978   C     0.72118   0.28967   0.53588   0.00000  Uiso   1.00
H979   H     0.69209   0.30716   0.56462   0.00000  Uiso   1.00
H980   H     0.71593   0.30647   0.50586   0.00000  Uiso   1.00
C981   C     0.79002   0.30419   0.53735   0.00000  Uiso   1.00
H982   H     0.81992   0.28592   0.50986   0.00000  Uiso   1.00
H983   H     0.80505   0.01358   0.53576   0.00000  Uiso   1.00
H984   H     0.79654   0.29024   0.56790   0.00000  Uiso   1.00
C985   C     0.18128   0.59983   0.75128   0.00000  Uiso   1.00
C986   C     0.15205   0.40017   0.74875   0.00000  Uiso   1.00
C987   C     0.09332   0.47251   0.54089   0.00000  Uiso   1.00
C988   C     0.23978   0.53272   0.95982   0.00000  Uiso   1.00
C989   C     0.05133   0.45742   0.51520   0.00000  Uiso   1.00
C990   C     0.28162   0.54785   0.98565   0.00000  Uiso   1.00
C991   C     0.18968   0.65541   0.75206   0.00000  Uiso   1.00
C992   C     0.14362   0.34458   0.74801   0.00000  Uiso   1.00
C993   C     0.12766   0.49434   0.83301   0.00000  Uiso   1.00
C994   C     0.20565   0.50590   0.66704   0.00000  Uiso   1.00
C995   C     0.10329   0.48878   0.88091   0.00000  Uiso   1.00
C996   C     0.23009   0.51280   0.61932   0.00000  Uiso   1.00
C997   C     0.02391   0.45382   0.94611   0.00000  Uiso   1.00
C998   C     0.30868   0.55081   0.55498   0.00000  Uiso   1.00
C999   C     0.04176   0.46177   0.90072   0.00000  Uiso   1.00
C1000  C     0.29081   0.54189   0.60020   0.00000  Uiso   1.00
C1001  C     0.14345   0.51248   0.90721   0.00000  Uiso   1.00
C1002  C     0.19050   0.48933   0.59253   0.00000  Uiso   1.00
C1003  C     0.13079   0.49685   0.95144   0.00000  Uiso   1.00
C1004  C     0.20251   0.50707   0.54893   0.00000  Uiso   1.00
C1005  C     0.06902   0.46862   0.97073   0.00000  Uiso   1.00
C1006  C     0.26399   0.53598   0.53000   0.00000  Uiso   1.00
C1007  C     0.17591   0.50931   0.97761   0.00000  Uiso   1.00
C1008  C     0.15716   0.49571   0.52294   0.00000  Uiso   1.00
Cu1009 Cu    0.10737   0.49441   0.74516   0.00000  Uiso   1.00
Cu1010 Cu    0.22596   0.50559   0.75483   0.00000  Uiso   1.00
H1011  H     0.00354   0.43819   0.53106   0.00000  Uiso   1.00
H1012  H     0.32947   0.56688   0.96982   0.00000  Uiso   1.00
H1013  H     0.07269   0.46709   0.57520   0.00000  Uiso   1.00
H1014  H     0.26084   0.53802   0.92558   0.00000  Uiso   1.00
H1015  H     0.23453   0.34474   0.75604   0.00000  Uiso   1.00
H1016  H     0.09877   0.65526   0.74403   0.00000  Uiso   1.00
H1017  H     0.00138   0.53771   0.78392   0.00000  Uiso   1.00
H1018  H     0.33195   0.46228   0.71609   0.00000  Uiso   1.00
N1019  N     0.31506   0.51401   0.76212   0.00000  Uiso   1.00
N1020  N     0.01827   0.48599   0.73788   0.00000  Uiso   1.00
O1021  O     0.12815   0.57142   0.74686   0.00000  Uiso   1.00
O1022  O     0.20518   0.42858   0.75314   0.00000  Uiso   1.00
O1023  O     0.22829   0.58086   0.75502   0.00000  Uiso   1.00
O1024  O     0.10504   0.41914   0.74497   0.00000  Uiso   1.00
O1025  O     0.08851   0.49263   0.80854   0.00000  Uiso   1.00
O1026  O     0.24482   0.50737   0.69145   0.00000  Uiso   1.00
O1027  O     0.18866   0.50207   0.81671   0.00000  Uiso   1.00
O1028  O     0.14468   0.49793   0.68329   0.00000  Uiso   1.00
O1029  O     0.14050   0.44896   0.60942   0.00000  Uiso   1.00
C1030  C     0.16356   0.40426   0.61554   0.00000  Uiso   1.00
H1031  H     0.19753   0.41180   0.63644   0.00000  Uiso   1.00
H1032  H     0.18802   0.38963   0.58373   0.00000  Uiso   1.00
C1033  C     0.10812   0.36256   0.63824   0.00000  Uiso   1.00
H1034  H     0.07239   0.35374   0.61884   0.00000  Uiso   1.00
H1035  H     0.12490   0.65994   0.64248   0.00000  Uiso   1.00
H1036  H     0.08523   0.37644   0.67076   0.00000  Uiso   1.00
O1037  O     0.19387   0.55199   0.88936   0.00000  Uiso   1.00
C1038  C     0.17122   0.59663   0.88260   0.00000  Uiso   1.00
H1039  H     0.14439   0.61043   0.91396   0.00000  Uiso   1.00
H1040  H     0.13942   0.58926   0.86019   0.00000  Uiso   1.00
C1041  C     0.22724   0.63879   0.86173   0.00000  Uiso   1.00
H1042  H     0.25231   0.62554   0.82955   0.00000  Uiso   1.00
H1043  H     0.21065   0.34133   0.85700   0.00000  Uiso   1.00
H1044  H     0.26089   0.64727   0.88270   0.00000  Uiso   1.00
C1045  C     0.00244   0.56311   0.62698   0.00000  Uiso   1.00
H1046  H     0.32102   0.58616   0.65563   0.00000  Uiso   1.00
O1047  O     0.05569   0.55397   0.61789   0.00000  Uiso   1.00
C1048  C     0.32780   0.44456   0.87516   0.00000  Uiso   1.00
H1049  H     0.28632   0.46186   0.88097   0.00000  Uiso   1.00
O1050  O     0.00128   0.41040   0.84790   0.00000  Uiso   1.00
O1051  O     0.29401   0.43924   0.96782   0.00000  Uiso   1.00
C1052  C     0.27010   0.38613   0.96214   0.00000  Uiso   1.00
H1053  H     0.26398   0.36526   0.99304   0.00000  Uiso   1.00
H1054  H     0.30097   0.36676   0.93576   0.00000  Uiso   1.00
C1055  C     0.20558   0.38134   0.95279   0.00000  Uiso   1.00
H1056  H     0.20957   0.39878   0.92094   0.00000  Uiso   1.00
H1057  H     0.18299   0.34009   0.95235   0.00000  Uiso   1.00
H1058  H     0.17486   0.40144   0.97821   0.00000  Uiso   1.00
O1059  O     0.03831   0.56839   0.53424   0.00000  Uiso   1.00
C1060  C     0.05451   0.62300   0.53588   0.00000  Uiso   1.00
H1061  H     0.02542   0.64049   0.56462   0.00000  Uiso   1.00
H1062  H     0.04926   0.63981   0.50586   0.00000  Uiso   1.00
C1063  C     0.12335   0.63752   0.53735   0.00000  Uiso   1.00
H1064  H     0.15325   0.61926   0.50986   0.00000  Uiso   1.00
H1065  H     0.13839   0.34691   0.53576   0.00000  Uiso   1.00
H1066  H     0.12987   0.62357   0.56790   0.00000  Uiso   1.00
C1067  C     0.51461   0.59983   0.75128   0.00000  Uiso   1.00
C1068  C     0.48538   0.40017   0.74875   0.00000  Uiso   1.00
C1069  C     0.42666   0.47251   0.54089   0.00000  Uiso   1.00
C1070  C     0.57311   0.53272   0.95982   0.00000  Uiso   1.00
C1071  C     0.38467   0.45742   0.51520   0.00000  Uiso   1.00
C1072  C     0.61495   0.54785   0.98565   0.00000  Uiso   1.00
C1073  C     0.52302   0.65541   0.75206   0.00000  Uiso   1.00
C1074  C     0.47696   0.34458   0.74801   0.00000  Uiso   1.00
C1075  C     0.46100   0.49434   0.83301   0.00000  Uiso   1.00
C1076  C     0.53898   0.50590   0.66704   0.00000  Uiso   1.00
C1077  C     0.43662   0.48878   0.88091   0.00000  Uiso   1.00
C1078  C     0.56342   0.51280   0.61932   0.00000  Uiso   1.00
C1079  C     0.35724   0.45382   0.94611   0.00000  Uiso   1.00
C1080  C     0.64201   0.55081   0.55498   0.00000  Uiso   1.00
C1081  C     0.37509   0.46177   0.90072   0.00000  Uiso   1.00
C1082  C     0.62415   0.54189   0.60020   0.00000  Uiso   1.00
C1083  C     0.47679   0.51248   0.90721   0.00000  Uiso   1.00
C1084  C     0.52383   0.48933   0.59253   0.00000  Uiso   1.00
C1085  C     0.46413   0.49685   0.95144   0.00000  Uiso   1.00
C1086  C     0.53584   0.50707   0.54893   0.00000  Uiso   1.00
C1087  C     0.40236   0.46862   0.97073   0.00000  Uiso   1.00
C1088  C     0.59732   0.53598   0.53000   0.00000  Uiso   1.00
C1089  C     0.50925   0.50931   0.97761   0.00000  Uiso   1.00
C1090  C     0.49049   0.49571   0.52294   0.00000  Uiso   1.00
Cu1091 Cu    0.44071   0.49441   0.74516   0.00000  Uiso   1.00
Cu1092 Cu    0.55929   0.50559   0.75483   0.00000  Uiso   1.00
H1093  H     0.33687   0.43819   0.53106   0.00000  Uiso   1.00
H1094  H     0.66280   0.56688   0.96982   0.00000  Uiso   1.00
H1095  H     0.40602   0.46709   0.57520   0.00000  Uiso   1.00
H1096  H     0.59417   0.53802   0.92558   0.00000  Uiso   1.00
H1097  H     0.56787   0.34474   0.75604   0.00000  Uiso   1.00
H1098  H     0.43210   0.65526   0.74403   0.00000  Uiso   1.00
H1099  H     0.33472   0.53771   0.78392   0.00000  Uiso   1.00
H1100  H     0.66528   0.46228   0.71609   0.00000  Uiso   1.00
N1101  N     0.64839   0.51401   0.76212   0.00000  Uiso   1.00
N1102  N     0.35161   0.48599   0.73788   0.00000  Uiso   1.00
O1103  O     0.46148   0.57142   0.74686   0.00000  Uiso   1.00
O1104  O     0.53852   0.42858   0.75314   0.00000  Uiso   1.00
O1105  O     0.56163   0.58086   0.75502   0.00000  Uiso   1.00
O1106  O     0.43837   0.41914   0.74497   0.00000  Uiso   1.00
O1107  O     0.42185   0.49263   0.80854   0.00000  Uiso   1.00
O1108  O     0.57815   0.50737   0.69145   0.00000  Uiso   1.00
O1109  O     0.52199   0.50207   0.81671   0.00000  Uiso   1.00
O1110  O     0.47801   0.49793   0.68329   0.00000  Uiso   1.00
O1111  O     0.47383   0.44896   0.60942   0.00000  Uiso   1.00
C1112  C     0.49690   0.40426   0.61554   0.00000  Uiso   1.00
H1113  H     0.53087   0.41180   0.63644   0.00000  Uiso   1.00
H1114  H     0.52135   0.38963   0.58373   0.00000  Uiso   1.00
C1115  C     0.44145   0.36256   0.63824   0.00000  Uiso   1.00
H1116  H     0.40572   0.35374   0.61884   0.00000  Uiso   1.00
H1117  H     0.45824   0.65994   0.64248   0.00000  Uiso   1.00
H1118  H     0.41857   0.37644   0.67076   0.00000  Uiso   1.00
O1119  O     0.52720   0.55199   0.88936   0.00000  Uiso   1.00
C1120  C     0.50455   0.59663   0.88260   0.00000  Uiso   1.00
H1121  H     0.47772   0.61043   0.91396   0.00000  Uiso   1.00
H1122  H     0.47275   0.58926   0.86019   0.00000  Uiso   1.00
C1123  C     0.56057   0.63879   0.86173   0.00000  Uiso   1.00
H1124  H     0.58564   0.62554   0.82955   0.00000  Uiso   1.00
H1125  H     0.54399   0.34133   0.85700   0.00000  Uiso   1.00
H1126  H     0.59422   0.64727   0.88270   0.00000  Uiso   1.00
C1127  C     0.33577   0.56311   0.62698   0.00000  Uiso   1.00
H1128  H     0.65436   0.58616   0.65563   0.00000  Uiso   1.00
O1129  O     0.38902   0.55397   0.61789   0.00000  Uiso   1.00
C1130  C     0.66113   0.44456   0.87516   0.00000  Uiso   1.00
H1131  H     0.61965   0.46186   0.88097   0.00000  Uiso   1.00
O1132  O     0.33462   0.41040   0.84790   0.00000  Uiso   1.00
O1133  O     0.62734   0.43924   0.96782   0.00000  Uiso   1.00
C1134  C     0.60343   0.38613   0.96214   0.00000  Uiso   1.00
H1135  H     0.59731   0.36526   0.99304   0.00000  Uiso   1.00
H1136  H     0.63430   0.36676   0.93576   0.00000  Uiso   1.00
C1137  C     0.53892   0.38134   0.95279   0.00000  Uiso   1.00
H1138  H     0.54291   0.39878   0.92094   0.00000  Uiso   1.00
H1139  H     0.51632   0.34009   0.95235   0.00000  Uiso   1.00
H1140  H     0.50820   0.40144   0.97821   0.00000  Uiso   1.00
O1141  O     0.37165   0.56839   0.53424   0.00000  Uiso   1.00
C1142  C     0.38784   0.62300   0.53588   0.00000  Uiso   1.00
H1143  H     0.35875   0.64049   0.56462   0.00000  Uiso   1.00
H1144  H     0.38260   0.63981   0.50586   0.00000  Uiso   1.00
C1145  C     0.45668   0.63752   0.53735   0.00000  Uiso   1.00
H1146  H     0.48659   0.61926   0.50986   0.00000  Uiso   1.00
H1147  H     0.47172   0.34691   0.53576   0.00000  Uiso   1.00
H1148  H     0.46321   0.62357   0.56790   0.00000  Uiso   1.00
C1149  C     0.84794   0.59983   0.75128   0.00000  Uiso   1.00
C1150  C     0.81871   0.40017   0.74875   0.00000  Uiso   1.00
C1151  C     0.75999   0.47251   0.54089   0.00000  Uiso   1.00
C1152  C     0.90644   0.53272   0.95982   0.00000  Uiso   1.00
C1153  C     0.71800   0.45742   0.51520   0.00000  Uiso   1.00
C1154  C     0.94828   0.54785   0.98565   0.00000  Uiso   1.00
C1155  C     0.85635   0.65541   0.75206   0.00000  Uiso   1.00
C1156  C     0.81029   0.34458   0.74801   0.00000  Uiso   1.00
C1157  C     0.79433   0.49434   0.83301   0.00000  Uiso   1.00
C1158  C     0.87231   0.50590   0.66704   0.00000  Uiso   1.00
C1159  C     0.76996   0.48878   0.88091   0.00000  Uiso   1.00
C1160  C     0.89675   0.51280   0.61932   0.00000  Uiso   1.00
C1161  C     0.69057   0.45382   0.94611   0.00000  Uiso   1.00
C1162  C     0.97535   0.55081   0.55498   0.00000  Uiso   1.00
C1163  C     0.70842   0.46177   0.90072   0.00000  Uiso   1.00
C1164  C     0.95748   0.54189   0.60020   0.00000  Uiso   1.00
C1165  C     0.81012   0.51248   0.90721   0.00000  Uiso   1.00
C1166  C     0.85716   0.48933   0.59253   0.00000  Uiso   1.00
C1167  C     0.79746   0.49685   0.95144   0.00000  Uiso   1.00
C1168  C     0.86918   0.50707   0.54893   0.00000  Uiso   1.00
C1169  C     0.73569   0.46862   0.97073   0.00000  Uiso   1.00
C1170  C     0.93066   0.53598   0.53000   0.00000  Uiso   1.00
C1171  C     0.84258   0.50931   0.97761   0.00000  Uiso   1.00
C1172  C     0.82383   0.49571   0.52294   0.00000  Uiso   1.00
Cu1173 Cu    0.77404   0.49441   0.74516   0.00000  Uiso   1.00
Cu1174 Cu    0.89263   0.50559   0.75483   0.00000  Uiso   1.00
H1175  H     0.67020   0.43819   0.53106   0.00000  Uiso   1.00
H1176  H     0.99613   0.56688   0.96982   0.00000  Uiso   1.00
H1177  H     0.73935   0.46709   0.57520   0.00000  Uiso   1.00
H1178  H     0.92751   0.53802   0.92558   0.00000  Uiso   1.00
H1179  H     0.90120   0.34474   0.75604   0.00000  Uiso   1.00
H1180  H     0.76544   0.65526   0.74403   0.00000  Uiso   1.00
H1181  H     0.66805   0.53771   0.78392   0.00000  Uiso   1.00
H1182  H     0.99861   0.46228   0.71609   0.00000  Uiso   1.00
N1183  N     0.98173   0.51401   0.76212   0.00000  Uiso   1.00
N1184  N     0.68494   0.48599   0.73788   0.00000  Uiso   1.00
O1185  O     0.79482   0.57142   0.74686   0.00000  Uiso   1.00
O1186  O     0.87185   0.42858   0.75314   0.00000  Uiso   1.00
O1187  O     0.89496   0.58086   0.75502   0.00000  Uiso   1.00
O1188  O     0.77171   0.41914   0.74497   0.00000  Uiso   1.00
O1189  O     0.75518   0.49263   0.80854   0.00000  Uiso   1.00
O1190  O     0.91149   0.50737   0.69145   0.00000  Uiso   1.00
O1191  O     0.85532   0.50207   0.81671   0.00000  Uiso   1.00
O1192  O     0.81134   0.49793   0.68329   0.00000  Uiso   1.00
O1193  O     0.80716   0.44896   0.60942   0.00000  Uiso   1.00
C1194  C     0.83023   0.40426   0.61554   0.00000  Uiso   1.00
H1195  H     0.86420   0.41180   0.63644   0.00000  Uiso   1.00
H1196  H     0.85468   0.38963   0.58373   0.00000  Uiso   1.00
C1197  C     0.77478   0.36256   0.63824   0.00000  Uiso   1.00
H1198  H     0.73906   0.35374   0.61884   0.00000  Uiso   1.00
H1199  H     0.79157   0.65994   0.64248   0.00000  Uiso   1.00
H1200  H     0.75190   0.37644   0.67076   0.00000  Uiso   1.00
O1201  O     0.86054   0.55199   0.88936   0.00000  Uiso   1.00
C1202  C     0.83788   0.59663   0.88260   0.00000  Uiso   1.00
H1203  H     0.81105   0.61043   0.91396   0.00000  Uiso   1.00
H1204  H     0.80608   0.58926   0.86019   0.00000  Uiso   1.00
C1205  C     0.89391   0.63879   0.86173   0.00000  Uiso   1.00
H1206  H     0.91897   0.62554   0.82955   0.00000  Uiso   1.00
H1207  H     0.87732   0.34133   0.85700   0.00000  Uiso   1.00
H1208  H     0.92755   0.64727   0.88270   0.00000  Uiso   1.00
C1209  C     0.66911   0.56311   0.62698   0.00000  Uiso   1.00
H1210  H     0.98769   0.58616   0.65563   0.00000  Uiso   1.00
O1211  O     0.72235   0.55397   0.61789   0.00000  Uiso   1.00
C1212  C     0.99446   0.44456   0.87516   0.00000  Uiso   1.00
H1213  H     0.95298   0.46186   0.88097   0.00000  Uiso   1.00
O1214  O     0.66795   0.41040   0.84790   0.00000  Uiso   1.00
O1215  O     0.96068   0.43924   0.96782   0.00000  Uiso   1.00
C1216  C     0.93676   0.38613   0.96214   0.00000  Uiso   1.00
H1217  H     0.93064   0.36526   0.99304   0.00000  Uiso   1.00
H1218  H     0.96764   0.36676   0.93576   0.00000  Uiso   1.00
C1219  C     0.87225   0.38134   0.95279   0.00000  Uiso   1.00
H1220  H     0.87624   0.39878   0.92094   0.00000  Uiso   1.00
H1221  H     0.84966   0.34009   0.95235   0.00000  Uiso   1.00
H1222  H     0.84153   0.40144   0.97821   0.00000  Uiso   1.00
O1223  O     0.70498   0.56839   0.53424   0.00000  Uiso   1.00
C1224  C     0.72118   0.62300   0.53588   0.00000  Uiso   1.00
H1225  H     0.69209   0.64049   0.56462   0.00000  Uiso   1.00
H1226  H     0.71593   0.63981   0.50586   0.00000  Uiso   1.00
C1227  C     0.79002   0.63752   0.53735   0.00000  Uiso   1.00
H1228  H     0.81992   0.61926   0.50986   0.00000  Uiso   1.00
H1229  H     0.80505   0.34691   0.53576   0.00000  Uiso   1.00
H1230  H     0.79654   0.62357   0.56790   0.00000  Uiso   1.00
C1231  C     0.18128   0.93317   0.75128   0.00000  Uiso   1.00
C1232  C     0.15205   0.73350   0.74875   0.00000  Uiso   1.00
C1233  C     0.09332   0.80584   0.54089   0.00000  Uiso   1.00
C1234  C     0.23978   0.86605   0.95982   0.00000  Uiso   1.00
C1235  C     0.05133   0.79075   0.51520   0.00000  Uiso   1.00
C1236  C     0.28162   0.88118   0.98565   0.00000  Uiso   1.00
C1237  C     0.18968   0.98875   0.75206   0.00000  Uiso   1.00
C1238  C     0.14362   0.67792   0.74801   0.00000  Uiso   1.00
C1239  C     0.12766   0.82768   0.83301   0.00000  Uiso   1.00
C1240  C     0.20565   0.83924   0.66704   0.00000  Uiso   1.00
C1241  C     0.10329   0.82211   0.88091   0.00000  Uiso   1.00
C1242  C     0.23009   0.84613   0.61932   0.00000  Uiso   1.00
C1243  C     0.02391   0.78716   0.94611   0.00000  Uiso   1.00
C1244  C     0.30868   0.88414   0.55498   0.00000  Uiso   1.00
C1245  C     0.04176   0.79510   0.90072   0.00000  Uiso   1.00
C1246  C     0.29081   0.87522   0.60020   0.00000  Uiso   1.00
C1247  C     0.14345   0.84581   0.90721   0.00000  Uiso   1.00
C1248  C     0.19050   0.82266   0.59253   0.00000  Uiso   1.00
C1249  C     0.13079   0.83018   0.95144   0.00000  Uiso   1.00
C1250  C     0.20251   0.84041   0.54893   0.00000  Uiso   1.00
C1251  C     0.06902   0.80196   0.97073   0.00000  Uiso   1.00
C1252  C     0.26399   0.86932   0.53000   0.00000  Uiso   1.00
C1253  C     0.17591   0.84264   0.97761   0.00000  Uiso   1.00
C1254  C     0.15716   0.82905   0.52294   0.00000  Uiso   1.00
Cu1255 Cu    0.10737   0.82775   0.74516   0.00000  Uiso   1.00
Cu1256 Cu    0.22596   0.83892   0.75483   0.00000  Uiso   1.00
H1257  H     0.00354   0.77153   0.53106   0.00000  Uiso   1.00
H1258  H     0.32947   0.90021   0.96982   0.00000  Uiso   1.00
H1259  H     0.07269   0.80043   0.57520   0.00000  Uiso   1.00
H1260  H     0.26084   0.87136   0.92558   0.00000  Uiso   1.00
H1261  H     0.23453   0.67807   0.75604   0.00000  Uiso   1.00
H1262  H     0.09877   0.98859   0.74403   0.00000  Uiso   1.00
H1263  H     0.00138   0.87105   0.78392   0.00000  Uiso   1.00
H1264  H     0.33195   0.79561   0.71609   0.00000  Uiso   1.00
N1265  N     0.31506   0.84735   0.76212   0.00000  Uiso   1.00
N1266  N     0.01827   0.81932   0.73788   0.00000  Uiso   1.00
O1267  O     0.12815   0.90476   0.74686   0.00000  Uiso   1.00
O1268  O     0.20518   0.76191   0.75314   0.00000  Uiso   1.00
O1269  O     0.22829   0.91420   0.75502   0.00000  Uiso   1.00
O1270  O     0.10504   0.75247   0.74497   0.00000  Uiso   1.00
O1271  O     0.08851   0.82597   0.80854   0.00000  Uiso   1.00
O1272  O     0.24482   0.84070   0.69145   0.00000  Uiso   1.00
O1273  O     0.18866   0.83540   0.81671   0.00000  Uiso   1.00
O1274  O     0.14468   0.83126   0.68329   0.00000  Uiso   1.00
O1275  O     0.14050   0.78229   0.60942   0.00000  Uiso   1.00
C1276  C     0.16356   0.73760   0.61554   0.00000  Uiso   1.00
H1277  H     0.19753   0.74514   0.63644   0.00000  Uiso   1.00
H1278  H     0.18802   0.72296   0.58373   0.00000  Uiso   1.00
C1279  C     0.10812   0.69589   0.63824   0.00000  Uiso   1.00
H1280  H     0.07239   0.68707   0.61884   0.00000  Uiso   1.00
H1281  H     0.12490   0.99328   0.64248   0.00000  Uiso   1.00
H1282  H     0.08523   0.70977   0.67076   0.00000  Uiso   1.00
O1283  O     0.19387   0.88533   0.88936   0.00000  Uiso   1.00
C1284  C     0.17122   0.92996   0.88260   0.00000  Uiso   1.00
H1285  H     0.14439   0.94376   0.91396   0.00000  Uiso   1.00
H1286  H     0.13942   0.92259   0.86019   0.00000  Uiso   1.00
C1287  C     0.22724   0.97212   0.86173   0.00000  Uiso   1.00
H1288  H     0.25231   0.95887   0.82955   0.00000  Uiso   1.00
H1289  H     0.21065   0.67466   0.85700   0.00000  Uiso   1.00
H1290  H     0.26089   0.98061   0.88270   0.00000  Uiso   1.00
C1291  C     0.00244   0.89644   0.62698   0.00000  Uiso   1.00
H1292  H     0.32102   0.91949   0.65563   0.00000  Uiso   1.00
O1293  O     0.05569   0.88730   0.61789   0.00000  Uiso   1.00
C1294  C     0.32780   0.77790   0.87516   0.00000  Uiso   1.00
H1295  H     0.28632   0.79519   0.88097   0.00000  Uiso   1.00
O1296  O     0.00128   0.74374   0.84790   0.00000  Uiso   1.00
O1297  O     0.29401   0.77257   0.96782   0.00000  Uiso   1.00
C1298  C     0.27010   0.71946   0.96214   0.00000  Uiso   1.00
H1299  H     0.26398   0.69859   0.99304   0.00000  Uiso   1.00
H1300  H     0.30097   0.70009   0.93576   0.00000  Uiso   1.00
C1301  C     0.20558   0.71467   0.95279   0.00000  Uiso   1.00
H1302  H     0.20957   0.73211   0.92094   0.00000  Uiso   1.00
H1303  H     0.18299   0.67342   0.95235   0.00000  Uiso   1.00
H1304  H     0.17486   0.73477   0.97821   0.00000  Uiso   1.00
O1305  O     0.03831   0.90172   0.53424   0.00000  Uiso   1.00
C1306  C     0.05451   0.95633   0.53588   0.00000  Uiso   1.00
H1307  H     0.02542   0.97382   0.56462   0.00000  Uiso   1.00
H1308  H     0.04926   0.97314   0.50586   0.00000  Uiso   1.00
C1309  C     0.12335   0.97085   0.53735   0.00000  Uiso   1.00
H1310  H     0.15325   0.95259   0.50986   0.00000  Uiso   1.00
H1311  H     0.13839   0.68024   0.53576   0.00000  Uiso   1.00
H1312  H     0.12987   0.95690   0.56790   0.00000  Uiso   1.00
C1313  C     0.51461   0.93317   0.75128   0.00000  Uiso   1.00
C1314  C     0.48538   0.73350   0.74875   0.00000  Uiso   1.00
C1315  C     0.42666   0.80584   0.54089   0.00000  Uiso   1.00
C1316  C     0.57311   0.86605   0.95982   0.00000  Uiso   1.00
C1317  C     0.38467   0.79075   0.51520   0.00000  Uiso   1.00
C1318  C     0.61495   0.88118   0.98565   0.00000  Uiso   1.00
C1319  C     0.52302   0.98875   0.75206   0.00000  Uiso   1.00
C1320  C     0.47696   0.67792   0.74801   0.00000  Uiso   1.00
C1321  C     0.46100   0.82768   0.83301   0.00000  Uiso   1.00
C1322  C     0.53898   0.83924   0.66704   0.00000  Uiso   1.00
C1323  C     0.43662   0.82211   0.88091   0.00000  Uiso   1.00
C1324  C     0.56342   0.84613   0.61932   0.00000  Uiso   1.00
C1325  C     0.35724   0.78716   0.94611   0.00000  Uiso   1.00
C1326  C     0.64201   0.88414   0.55498   0.00000  Uiso   1.00
C1327  C     0.37509   0.79510   0.90072   0.00000  Uiso   1.00
C1328  C     0.62415   0.87522   0.60020   0.00000  Uiso   1.00
C1329  C     0.47679   0.84581   0.90721   0.00000  Uiso   1.00
C1330  C     0.52383   0.82266   0.59253   0.00000  Uiso   1.00
C1331  C     0.46413   0.83018   0.95144   0.00000  Uiso   1.00
C1332  C     0.53584   0.84041   0.54893   0.00000  Uiso   1.00
C1333  C     0.40236   0.80196   0.97073   0.00000  Uiso   1.00
C1334  C     0.59732   0.86932   0.53000   0.00000  Uiso   1.00
C1335  C     0.50925   0.84264   0.97761   0.00000  Uiso   1.00
C1336  C     0.49049   0.82905   0.52294   0.00000  Uiso   1.00
Cu1337 Cu    0.44071   0.82775   0.74516   0.00000  Uiso   1.00
Cu1338 Cu    0.55929   0.83892   0.75483   0.00000  Uiso   1.00
H1339  H     0.33687   0.77153   0.53106   0.00000  Uiso   1.00
H1340  H     0.66280   0.90021   0.96982   0.00000  Uiso   1.00
H1341  H     0.40602   0.80043   0.57520   0.00000  Uiso   1.00
H1342  H     0.59417   0.87136   0.92558   0.00000  Uiso   1.00
H1343  H     0.56787   0.67807   0.75604   0.00000  Uiso   1.00
H1344  H     0.43210   0.98859   0.74403   0.00000  Uiso   1.00
H1345  H     0.33472   0.87105   0.78392   0.00000  Uiso   1.00
H1346  H     0.66528   0.79561   0.71609   0.00000  Uiso   1.00
N1347  N     0.64839   0.84735   0.76212   0.00000  Uiso   1.00
N1348  N     0.35161   0.81932   0.73788   0.00000  Uiso   1.00
O1349  O     0.46148   0.90476   0.74686   0.00000  Uiso   1.00
O1350  O     0.53852   0.76191   0.75314   0.00000  Uiso   1.00
O1351  O     0.56163   0.91420   0.75502   0.00000  Uiso   1.00
O1352  O     0.43837   0.75247   0.74497   0.00000  Uiso   1.00
O1353  O     0.42185   0.82597   0.80854   0.00000  Uiso   1.00
O1354  O     0.57815   0.84070   0.69145   0.00000  Uiso   1.00
O1355  O     0.52199   0.83540   0.81671   0.00000  Uiso   1.00
O1356  O     0.47801   0.83126   0.68329   0.00000  Uiso   1.00
O1357  O     0.47383   0.78229   0.60942   0.00000  Uiso   1.00
C1358  C     0.49690   0.73760   0.61554   0.00000  Uiso   1.00
H1359  H     0.53087   0.74514   0.63644   0.00000  Uiso   1.00
H1360  H     0.52135   0.72296   0.58373   0.00000  Uiso   1.00
C1361  C     0.44145   0.69589   0.63824   0.00000  Uiso   1.00
H1362  H     0.40572   0.68707   0.61884   0.00000  Uiso   1.00
H1363  H     0.45824   0.99328   0.64248   0.00000  Uiso   1.00
H1364  H     0.41857   0.70977   0.67076   0.00000  Uiso   1.00
O1365  O     0.52720   0.88533   0.88936   0.00000  Uiso   1.00
C1366  C     0.50455   0.92996   0.88260   0.00000  Uiso   1.00
H1367  H     0.47772   0.94376   0.91396   0.00000  Uiso   1.00
H1368  H     0.47275   0.92259   0.86019   0.00000  Uiso   1.00
C1369  C     0.56057   0.97212   0.86173   0.00000  Uiso   1.00
H1370  H     0.58564   0.95887   0.82955   0.00000  Uiso   1.00
H1371  H     0.54399   0.67466   0.85700   0.00000  Uiso   1.00
H1372  H     0.59422   0.98061   0.88270   0.00000  Uiso   1.00
C1373  C     0.33577   0.89644   0.62698   0.00000  Uiso   1.00
H1374  H     0.65436   0.91949   0.65563   0.00000  Uiso   1.00
O1375  O     0.38902   0.88730   0.61789   0.00000  Uiso   1.00
C1376  C     0.66113   0.77790   0.87516   0.00000  Uiso   1.00
H1377  H     0.61965   0.79519   0.88097   0.00000  Uiso   1.00
O1378  O     0.33462   0.74374   0.84790   0.00000  Uiso   1.00
O1379  O     0.62734   0.77257   0.96782   0.00000  Uiso   1.00
C1380  C     0.60343   0.71946   0.96214   0.00000  Uiso   1.00
H1381  H     0.59731   0.69859   0.99304   0.00000  Uiso   1.00
H1382  H     0.63430   0.70009   0.93576   0.00000  Uiso   1.00
C1383  C     0.53892   0.71467   0.95279   0.00000  Uiso   1.00
H1384  H     0.54291   0.73211   0.92094   0.00000  Uiso   1.00
H1385  H     0.51632   0.67342   0.95235   0.00000  Uiso   1.00
H1386  H     0.50820   0.73477   0.97821   0.00000  Uiso   1.00
O1387  O     0.37165   0.90172   0.53424   0.00000  Uiso   1.00
C1388  C     0.38784   0.95633   0.53588   0.00000  Uiso   1.00
H1389  H     0.35875   0.97382   0.56462   0.00000  Uiso   1.00
H1390  H     0.38260   0.97314   0.50586   0.00000  Uiso   1.00
C1391  C     0.45668   0.97085   0.53735   0.00000  Uiso   1.00
H1392  H     0.48659   0.95259   0.50986   0.00000  Uiso   1.00
H1393  H     0.47172   0.68024   0.53576   0.00000  Uiso   1.00
H1394  H     0.46321   0.95690   0.56790   0.00000  Uiso   1.00
C1395  C     0.84794   0.93317   0.75128   0.00000  Uiso   1.00
C1396  C     0.81871   0.73350   0.74875   0.00000  Uiso   1.00
C1397  C     0.75999   0.80584   0.54089   0.00000  Uiso   1.00
C1398  C     0.90644   0.86605   0.95982   0.00000  Uiso   1.00
C1399  C     0.71800   0.79075   0.51520   0.00000  Uiso   1.00
C1400  C     0.94828   0.88118   0.98565   0.00000  Uiso   1.00
C1401  C     0.85635   0.98875   0.75206   0.00000  Uiso   1.00
C1402  C     0.81029   0.67792   0.74801   0.00000  Uiso   1.00
C1403  C     0.79433   0.82768   0.83301   0.00000  Uiso   1.00
C1404  C     0.87231   0.83924   0.66704   0.00000  Uiso   1.00
C1405  C     0.76996   0.82211   0.88091   0.00000  Uiso   1.00
C1406  C     0.89675   0.84613   0.61932   0.00000  Uiso   1.00
C1407  C     0.69057   0.78716   0.94611   0.00000  Uiso   1.00
C1408  C     0.97535   0.88414   0.55498   0.00000  Uiso   1.00
C1409  C     0.70842   0.79510   0.90072   0.00000  Uiso   1.00
C1410  C     0.95748   0.87522   0.60020   0.00000  Uiso   1.00
C1411  C     0.81012   0.84581   0.90721   0.00000  Uiso   1.00
C1412  C     0.85716   0.82266   0.59253   0.00000  Uiso   1.00
C1413  C     0.79746   0.83018   0.95144   0.00000  Uiso   1.00
C1414  C     0.86918   0.84041   0.54893   0.00000  Uiso   1.00
C1415  C     0.73569   0.80196   0.97073   0.00000  Uiso   1.00
C1416  C     0.93066   0.86932   0.53000   0.00000  Uiso   1.00
C1417  C     0.84258   0.84264   0.97761   0.00000  Uiso   1.00
C1418  C     0.82383   0.82905   0.52294   0.00000  Uiso   1.00
Cu1419 Cu    0.77404   0.82775   0.74516   0.00000  Uiso   1.00
Cu1420 Cu    0.89263   0.83892   0.75483   0.00000  Uiso   1.00
H1421  H     0.67020   0.77153   0.53106   0.00000  Uiso   1.00
H1422  H     0.99613   0.90021   0.96982   0.00000  Uiso   1.00
H1423  H     0.73935   0.80043   0.57520   0.00000  Uiso   1.00
H1424  H     0.92751   0.87136   0.92558   0.00000  Uiso   1.00
H1425  H     0.90120   0.67807   0.75604   0.00000  Uiso   1.00
H1426  H     0.76544   0.98859   0.74403   0.00000  Uiso   1.00
H1427  H     0.66805   0.87105   0.78392   0.00000  Uiso   1.00
H1428  H     0.99861   0.79561   0.71609   0.00000  Uiso   1.00
N1429  N     0.98173   0.84735   0.76212   0.00000  Uiso   1.00
N1430  N     0.68494   0.81932   0.73788   0.00000  Uiso   1.00
O1431  O     0.79482   0.90476   0.74686   0.00000  Uiso   1.00
O1432  O     0.87185   0.76191   0.75314   0.00000  Uiso   1.00
O1433  O     0.89496   0.91420   0.75502   0.00000  Uiso   1.00
O1434  O     0.77171   0.75247   0.74497   0.00000  Uiso   1.00
O1435  O     0.75518   0.82597   0.80854   0.00000  Uiso   1.00
O1436  O     0.91149   0.84070   0.69145   0.00000  Uiso   1.00
O1437  O     0.85532   0.83540   0.81671   0.00000  Uiso   1.00
O1438  O     0.81134   0.83126   0.68329   0.00000  Uiso   1.00
O1439  O     0.80716   0.78229   0.60942   0.00000  Uiso   1.00
C1440  C     0.83023   0.73760   0.61554   0.00000  Uiso   1.00
H1441  H     0.86420   0.74514   0.63644   0.00000  Uiso   1.00
H1442  H     0.85468   0.72296   0.58373   0.00000  Uiso   1.00
C1443  C     0.77478   0.69589   0.63824   0.00000  Uiso   1.00
H1444  H     0.73906   0.68707   0.61884   0.00000  Uiso   1.00
H1445  H     0.79157   0.99328   0.64248   0.00000  Uiso   1.00
H1446  H     0.75190   0.70977   0.67076   0.00000  Uiso   1.00
O1447  O     0.86054   0.88533   0.88936   0.00000  Uiso   1.00
C1448  C     0.83788   0.92996   0.88260   0.00000  Uiso   1.00
H1449  H     0.81105   0.94376   0.91396   0.00000  Uiso   1.00
H1450  H     0.80608   0.92259   0.86019   0.00000  Uiso   1.00
C1451  C     0.89391   0.97212   0.86173   0.00000  Uiso   1.00
H1452  H     0.91897   0.95887   0.82955   0.00000  Uiso   1.00
H1453  H     0.87732   0.67466   0.85700   0.00000  Uiso   1.00
H1454  H     0.92755   0.98061   0.88270   0.00000  Uiso   1.00
C1455  C     0.66911   0.89644   0.62698   0.00000  Uiso   1.00
H1456  H     0.98769   0.91949   0.65563   0.00000  Uiso   1.00
O1457  O     0.72235   0.88730   0.61789   0.00000  Uiso   1.00
C1458  C     0.99446   0.77790   0.87516   0.00000  Uiso   1.00
H1459  H     0.95298   0.79519   0.88097   0.00000  Uiso   1.00
O1460  O     0.66795   0.74374   0.84790   0.00000  Uiso   1.00
O1461  O     0.96068   0.77257   0.96782   0.00000  Uiso   1.00
C1462  C     0.93676   0.71946   0.96214   0.00000  Uiso   1.00
H1463  H     0.93064   0.69859   0.99304   0.00000  Uiso   1.00
H1464  H     0.96764   0.70009   0.93576   0.00000  Uiso   1.00
C1465  C     0.87225   0.71467   0.95279   0.00000  Uiso   1.00
H1466  H     0.87624   0.73211   0.92094   0.00000  Uiso   1.00
H1467  H     0.84966   0.67342   0.95235   0.00000  Uiso   1.00
H1468  H     0.84153   0.73477   0.97821   0.00000  Uiso   1.00
O1469  O     0.70498   0.90172   0.53424   0.00000  Uiso   1.00
C1470  C     0.72118   0.95633   0.53588   0.00000  Uiso   1.00
H1471  H     0.69209   0.97382   0.56462   0.00000  Uiso   1.00
H1472  H     0.71593   0.97314   0.50586   0.00000  Uiso   1.00
C1473  C     0.79002   0.97085   0.53735   0.00000  Uiso   1.00
H1474  H     0.81992   0.95259   0.50986   0.00000  Uiso   1.00
H1475  H     0.80505   0.68024   0.53576   0.00000  Uiso   1.00
H1476  H     0.79654   0.95690   0.56790   0.00000  Uiso   1.00
loop_
_geom_bond_atom_site_label_1
_geom_bond_atom_site_label_2
_geom_bond_distance
_geom_bond_site_symmetry_2
_ccdc_geom_bond_type
C1     O37     1.301   .     A
C1     C7      1.433   .     S
C1     O39     1.283   .     A
C2     O38     1.301   .     A
C2     C8      1.433   .     S
C2     O40     1.283   .     A
C3     H29     1.073   .     S
C3     C24     1.410   .     A
C3     C5      1.380   .     A
C4     C6      1.381   .     A
C4     C23     1.411   .     A
C4     H30     1.072   .     S
C5     H27     1.084   .     S
C5     C759    1.394   1_554 S
C6     H28     1.083   .     S
C6     C760    1.394   .     S
C7     C254    1.321   .     S
C7     H277    1.088   .     S
C8     C499    1.321   1_545 S
C8     H524    1.088   1_545 S
C9     O43     1.303   .     A
C9     C11     1.482   .     S
C9     O41     1.302   .     A
C10    O42     1.302   .     A
C10    O44     1.302   .     A
C10    C12     1.480   .     S
C11    C15     1.409   .     A
C11    C17     1.410   .     A
C12    C16     1.410   .     A
C12    C18     1.411   .     A
C13    C21     1.409   .     A
C13    C15     1.407   .     A
C13    O231    1.385   1_455 S
C14    C16     1.406   .     A
C14    C22     1.410   .     A
C14    O157    1.382   .     S
C15    C228    1.477   1_455 S
C16    C143    1.482   .     S
C17    O53     1.384   .     S
C17    C19     1.423   .     A
C18    C20     1.423   .     A
C18    O45     1.386   .     S
C19    C21     1.420   .     A
C19    C23     1.440   .     A
C20    C24     1.439   .     A
C20    C22     1.419   .     A
C21    C743    1.394   .     S
C22    C744    1.394   1_554 S
C23    C762    1.433   .     S
C24    C761    1.433   1_554 S
Cu25   O40     1.967   .     S
Cu25   O37     1.981   .     S
Cu25   O44     1.926   .     S
Cu25   O41     1.948   .     S
Cu25   Cu26    2.695   .     S
Cu25   N36     2.025   .     S
Cu26   O39     1.967   .     S
Cu26   O43     1.926   .     S
Cu26   O38     1.981   .     S
Cu26   O42     1.948   .     S
Cu26   N35     2.025   .     S
H31    C499    1.088   1_545 S
H32    C254    1.088   .     S
H33    N199    1.029   1_455 S
H34    N118    1.029   .     S
N35    H115    1.029   .     S
N35    N118    1.292   .     S
N36    H198    1.029   1_455 S
N36    N199    1.292   1_455 S
O45    C46     1.415   .     S
C46    C49     1.521   .     S
C46    H48     1.110   .     S
C46    H47     1.111   .     S
C49    H52     1.109   .     S
C49    H50     1.108   .     S
C49    H543    1.110   1_545 S
H51    C295    1.110   .     S
O53    C54     1.414   .     S
C54    H55     1.109   .     S
C54    H56     1.111   .     S
C54    C57     1.519   .     S
C57    H60     1.108   .     S
C57    H58     1.110   .     S
C57    H305    1.110   .     S
H59    C549    1.110   1_545 S
C61    O63     1.220   .     D
C61    C180    1.482   1_455 S
C61    H226    1.085   1_455 S
H62    C143    1.085   .     S
C64    H65     1.084   .     S
C64    C97     1.477   .     S
C64    O148    1.221   .     S
O66    C228    1.221   1_455 S
O67    C68     1.408   .     S
O67    C95     1.385   .     S
C68    H69     1.111   .     S
C68    C71     1.521   .     S
C68    H70     1.115   .     S
C71    H74     1.107   .     S
C71    H73     1.098   .     S
C71    H72     1.105   .     S
O75    C76     1.407   .     S
O75    C178    1.382   1_455 S
C76    C79     1.517   .     S
C76    H78     1.111   .     S
C76    H77     1.115   .     S
C79    H82     1.106   .     S
C79    H80     1.109   .     S
C79    H327    1.103   .     S
H81    C571    1.103   1_545 S
C83    O119    1.301   .     A
C83    C89     1.433   .     S
C83    O121    1.283   .     A
C84    O120    1.301   .     A
C84    C90     1.433   .     S
C84    O122    1.283   .     A
C85    H111    1.073   .     S
C85    C106    1.410   .     A
C85    C87     1.380   .     A
C86    C88     1.381   .     A
C86    C105    1.411   .     A
C86    H112    1.072   .     S
C87    H109    1.084   .     S
C87    C841    1.394   1_554 S
C88    H110    1.083   .     S
C88    C842    1.394   .     S
C89    C336    1.321   .     S
C89    H359    1.088   .     S
C90    C581    1.321   1_545 S
C90    H606    1.088   1_545 S
C91    O125    1.303   .     A
C91    C93     1.482   .     S
C91    O123    1.302   .     A
C92    O124    1.302   .     A
C92    O126    1.302   .     A
C92    C94     1.480   .     S
C93    C97     1.409   .     A
C93    C99     1.410   .     A
C94    C98     1.410   .     A
C94    C100    1.411   .     A
C95    C103    1.409   .     A
C95    C97     1.407   .     A
C96    C98     1.406   .     A
C96    C104    1.410   .     A
C96    O239    1.382   .     S
C98    C225    1.482   .     S
C99    O135    1.384   .     S
C99    C101    1.423   .     A
C100   C102    1.423   .     A
C100   O127    1.386   .     S
C101   C103    1.420   .     A
C101   C105    1.440   .     A
C102   C106    1.439   .     A
C102   C104    1.419   .     A
C103   C825    1.394   .     S
C104   C826    1.394   1_554 S
C105   C844    1.433   .     S
C106   C843    1.433   1_554 S
Cu107  O122    1.967   .     S
Cu107  O119    1.981   .     S
Cu107  O126    1.926   .     S
Cu107  O123    1.948   .     S
Cu107  Cu108   2.695   .     S
Cu107  N118    2.025   .     S
Cu108  O121    1.967   .     S
Cu108  O125    1.926   .     S
Cu108  O120    1.981   .     S
Cu108  O124    1.948   .     S
Cu108  N117    2.025   .     S
H113   C581    1.088   1_545 S
H114   C336    1.088   .     S
H116   N200    1.029   .     S
N117   H197    1.029   .     S
N117   N200    1.292   .     S
O127   C128    1.415   .     S
C128   C131    1.521   .     S
C128   H130    1.110   .     S
C128   H129    1.111   .     S
C131   H134    1.109   .     S
C131   H132    1.108   .     S
C131   H625    1.110   1_545 S
H133   C377    1.110   .     S
O135   C136    1.414   .     S
C136   H137    1.109   .     S
C136   H138    1.111   .     S
C136   C139    1.519   .     S
C139   H142    1.108   .     S
C139   H140    1.110   .     S
C139   H387    1.110   .     S
H141   C631    1.110   1_545 S
C143   O145    1.220   .     D
H144   C225    1.085   .     S
C146   H147    1.084   .     S
C146   C179    1.477   .     S
C146   O230    1.221   .     S
O149   C150    1.408   .     S
O149   C177    1.385   .     S
C150   H151    1.111   .     S
C150   C153    1.521   .     S
C150   H152    1.115   .     S
C153   H156    1.107   .     S
C153   H155    1.098   .     S
C153   H154    1.105   .     S
O157   C158    1.407   .     S
C158   C161    1.517   .     S
C158   H160    1.111   .     S
C158   H159    1.115   .     S
C161   H164    1.106   .     S
C161   H162    1.109   .     S
C161   H409    1.103   .     S
H163   C653    1.103   1_545 S
C165   O201    1.301   .     A
C165   C171    1.433   .     S
C165   O203    1.283   .     A
C166   O202    1.301   .     A
C166   C172    1.433   .     S
C166   O204    1.283   .     A
C167   H193    1.073   .     S
C167   C188    1.410   .     A
C167   C169    1.380   .     A
C168   C170    1.381   .     A
C168   C187    1.411   .     A
C168   H194    1.072   .     S
C169   H191    1.084   .     S
C169   C923    1.394   1_554 S
C170   H192    1.083   .     S
C170   C924    1.394   .     S
C171   C418    1.321   .     S
C171   H441    1.088   .     S
C172   C663    1.321   1_545 S
C172   H688    1.088   1_545 S
C173   O207    1.303   .     A
C173   C175    1.482   .     S
C173   O205    1.302   .     A
C174   O206    1.302   .     A
C174   O208    1.302   .     A
C174   C176    1.480   .     S
C175   C179    1.409   .     A
C175   C181    1.410   .     A
C176   C180    1.410   .     A
C176   C182    1.411   .     A
C177   C185    1.409   .     A
C177   C179    1.407   .     A
C178   C180    1.406   .     A
C178   C186    1.410   .     A
C178   O75     1.382   1_655 S
C180   C61     1.482   1_655 S
C181   O217    1.384   .     S
C181   C183    1.423   .     A
C182   C184    1.423   .     A
C182   O209    1.386   .     S
C183   C185    1.420   .     A
C183   C187    1.440   .     A
C184   C188    1.439   .     A
C184   C186    1.419   .     A
C185   C907    1.394   .     S
C186   C908    1.394   1_554 S
C187   C926    1.433   .     S
C188   C925    1.433   1_554 S
Cu189  O204    1.967   .     S
Cu189  O201    1.981   .     S
Cu189  O208    1.926   .     S
Cu189  O205    1.948   .     S
Cu189  Cu190   2.695   .     S
Cu189  N200    2.025   .     S
Cu190  O203    1.967   .     S
Cu190  O207    1.926   .     S
Cu190  O202    1.981   .     S
Cu190  O206    1.948   .     S
Cu190  N199    2.025   .     S
H195   C663    1.088   1_545 S
H196   C418    1.088   .     S
H198   N36     1.029   1_655 S
N199   H33     1.029   1_655 S
N199   N36     1.292   1_655 S
O209   C210    1.415   .     S
C210   C213    1.521   .     S
C210   H212    1.110   .     S
C210   H211    1.111   .     S
C213   H216    1.109   .     S
C213   H214    1.108   .     S
C213   H707    1.110   1_545 S
H215   C459    1.110   .     S
O217   C218    1.414   .     S
C218   H219    1.109   .     S
C218   H220    1.111   .     S
C218   C221    1.519   .     S
C221   H224    1.108   .     S
C221   H222    1.110   .     S
C221   H469    1.110   .     S
H223   C713    1.110   1_545 S
C225   O227    1.220   .     D
H226   C61     1.085   1_655 S
C228   H229    1.084   .     S
C228   C15     1.477   1_655 S
C228   O66     1.221   1_655 S
O231   C232    1.408   .     S
O231   C13     1.385   1_655 S
C232   H233    1.111   .     S
C232   C235    1.521   .     S
C232   H234    1.115   .     S
C235   H238    1.107   .     S
C235   H237    1.098   .     S
C235   H236    1.105   .     S
O239   C240    1.407   .     S
C240   C243    1.517   .     S
C240   H242    1.111   .     S
C240   H241    1.115   .     S
C243   H246    1.106   .     S
C243   H244    1.109   .     S
C243   H491    1.103   .     S
H245   C735    1.103   1_545 S
C247   O283    1.301   .     A
C247   C253    1.433   .     S
C247   O285    1.283   .     A
C248   O284    1.301   .     A
C248   C254    1.433   .     S
C248   O286    1.283   .     A
C249   H275    1.073   .     S
C249   C270    1.410   .     A
C249   C251    1.380   .     A
C250   C252    1.381   .     A
C250   C269    1.411   .     A
C250   H276    1.072   .     S
C251   H273    1.084   .     S
C251   C1005   1.394   1_554 S
C252   H274    1.083   .     S
C252   C1006   1.394   .     S
C253   C500    1.321   .     S
C253   H523    1.088   .     S
C255   O289    1.303   .     A
C255   C257    1.482   .     S
C255   O287    1.302   .     A
C256   O288    1.302   .     A
C256   O290    1.302   .     A
C256   C258    1.480   .     S
C257   C261    1.409   .     A
C257   C263    1.410   .     A
C258   C262    1.410   .     A
C258   C264    1.411   .     A
C259   C267    1.409   .     A
C259   C261    1.407   .     A
C259   O477    1.385   1_455 S
C260   C262    1.406   .     A
C260   C268    1.410   .     A
C260   O403    1.382   .     S
C261   C474    1.477   1_455 S
C262   C389    1.482   .     S
C263   O299    1.384   .     S
C263   C265    1.423   .     A
C264   C266    1.423   .     A
C264   O291    1.386   .     S
C265   C267    1.420   .     A
C265   C269    1.440   .     A
C266   C270    1.439   .     A
C266   C268    1.419   .     A
C267   C989    1.394   .     S
C268   C990    1.394   1_554 S
C269   C1008   1.433   .     S
C270   C1007   1.433   1_554 S
Cu271  O286    1.967   .     S
Cu271  O283    1.981   .     S
Cu271  O290    1.926   .     S
Cu271  O287    1.948   .     S
Cu271  Cu272   2.695   .     S
Cu271  N282    2.025   .     S
Cu272  O285    1.967   .     S
Cu272  O289    1.926   .     S
Cu272  O284    1.981   .     S
Cu272  O288    1.948   .     S
Cu272  N281    2.025   .     S
H278   C500    1.088   .     S
H279   N445    1.029   1_455 S
H280   N364    1.029   .     S
N281   H361    1.029   .     S
N281   N364    1.292   .     S
N282   H444    1.029   1_455 S
N282   N445    1.292   1_455 S
O291   C292    1.415   .     S
C292   C295    1.521   .     S
C292   H294    1.110   .     S
C292   H293    1.111   .     S
C295   H298    1.109   .     S
C295   H296    1.108   .     S
H297   C541    1.110   .     S
O299   C300    1.414   .     S
C300   H301    1.109   .     S
C300   H302    1.111   .     S
C300   C303    1.519   .     S
C303   H306    1.108   .     S
C303   H304    1.110   .     S
C303   H551    1.110   .     S
C307   O309    1.220   .     D
C307   C426    1.482   1_455 S
C307   H472    1.085   1_455 S
H308   C389    1.085   .     S
C310   H311    1.084   .     S
C310   C343    1.477   .     S
C310   O394    1.221   .     S
O312   C474    1.221   1_455 S
O313   C314    1.408   .     S
O313   C341    1.385   .     S
C314   H315    1.111   .     S
C314   C317    1.521   .     S
C314   H316    1.115   .     S
C317   H320    1.107   .     S
C317   H319    1.098   .     S
C317   H318    1.105   .     S
O321   C322    1.407   .     S
O321   C424    1.382   1_455 S
C322   C325    1.517   .     S
C322   H324    1.111   .     S
C322   H323    1.115   .     S
C325   H328    1.106   .     S
C325   H326    1.109   .     S
C325   H573    1.103   .     S
C329   O365    1.301   .     A
C329   C335    1.433   .     S
C329   O367    1.283   .     A
C330   O366    1.301   .     A
C330   C336    1.433   .     S
C330   O368    1.283   .     A
C331   H357    1.073   .     S
C331   C352    1.410   .     A
C331   C333    1.380   .     A
C332   C334    1.381   .     A
C332   C351    1.411   .     A
C332   H358    1.072   .     S
C333   H355    1.084   .     S
C333   C1087   1.394   1_554 S
C334   H356    1.083   .     S
C334   C1088   1.394   .     S
C335   C582    1.321   .     S
C335   H605    1.088   .     S
C337   O371    1.303   .     A
C337   C339    1.482   .     S
C337   O369    1.302   .     A
C338   O370    1.302   .     A
C338   O372    1.302   .     A
C338   C340    1.480   .     S
C339   C343    1.409   .     A
C339   C345    1.410   .     A
C340   C344    1.410   .     A
C340   C346    1.411   .     A
C341   C349    1.409   .     A
C341   C343    1.407   .     A
C342   C344    1.406   .     A
C342   C350    1.410   .     A
C342   O485    1.382   .     S
C344   C471    1.482   .     S
C345   O381    1.384   .     S
C345   C347    1.423   .     A
C346   C348    1.423   .     A
C346   O373    1.386   .     S
C347   C349    1.420   .     A
C347   C351    1.440   .     A
C348   C352    1.439   .     A
C348   C350    1.419   .     A
C349   C1071   1.394   .     S
C350   C1072   1.394   1_554 S
C351   C1090   1.433   .     S
C352   C1089   1.433   1_554 S
Cu353  O368    1.967   .     S
Cu353  O365    1.981   .     S
Cu353  O372    1.926   .     S
Cu353  O369    1.948   .     S
Cu353  Cu354   2.695   .     S
Cu353  N364    2.025   .     S
Cu354  O367    1.967   .     S
Cu354  O371    1.926   .     S
Cu354  O366    1.981   .     S
Cu354  O370    1.948   .     S
Cu354  N363    2.025   .     S
H360   C582    1.088   .     S
H362   N446    1.029   .     S
N363   H443    1.029   .     S
N363   N446    1.292   .     S
O373   C374    1.415   .     S
C374   C377    1.521   .     S
C374   H376    1.110   .     S
C374   H375    1.111   .     S
C377   H380    1.109   .     S
C377   H378    1.108   .     S
H379   C623    1.110   .     S
O381   C382    1.414   .     S
C382   H383    1.109   .     S
C382   H384    1.111   .     S
C382   C385    1.519   .     S
C385   H388    1.108   .     S
C385   H386    1.110   .     S
C385   H633    1.110   .     S
C389   O391    1.220   .     D
H390   C471    1.085   .     S
C392   H393    1.084   .     S
C392   C425    1.477   .     S
C392   O476    1.221   .     S
O395   C396    1.408   .     S
O395   C423    1.385   .     S
C396   H397    1.111   .     S
C396   C399    1.521   .     S
C396   H398    1.115   .     S
C399   H402    1.107   .     S
C399   H401    1.098   .     S
C399   H400    1.105   .     S
O403   C404    1.407   .     S
C404   C407    1.517   .     S
C404   H406    1.111   .     S
C404   H405    1.115   .     S
C407   H410    1.106   .     S
C407   H408    1.109   .     S
C407   H655    1.103   .     S
C411   O447    1.301   .     A
C411   C417    1.433   .     S
C411   O449    1.283   .     A
C412   O448    1.301   .     A
C412   C418    1.433   .     S
C412   O450    1.283   .     A
C413   H439    1.073   .     S
C413   C434    1.410   .     A
C413   C415    1.380   .     A
C414   C416    1.381   .     A
C414   C433    1.411   .     A
C414   H440    1.072   .     S
C415   H437    1.084   .     S
C415   C1169   1.394   1_554 S
C416   H438    1.083   .     S
C416   C1170   1.394   .     S
C417   C664    1.321   .     S
C417   H687    1.088   .     S
C419   O453    1.303   .     A
C419   C421    1.482   .     S
C419   O451    1.302   .     A
C420   O452    1.302   .     A
C420   O454    1.302   .     A
C420   C422    1.480   .     S
C421   C425    1.409   .     A
C421   C427    1.410   .     A
C422   C426    1.410   .     A
C422   C428    1.411   .     A
C423   C431    1.409   .     A
C423   C425    1.407   .     A
C424   C426    1.406   .     A
C424   C432    1.410   .     A
C424   O321    1.382   1_655 S
C426   C307    1.482   1_655 S
C427   O463    1.384   .     S
C427   C429    1.423   .     A
C428   C430    1.423   .     A
C428   O455    1.386   .     S
C429   C431    1.420   .     A
C429   C433    1.440   .     A
C430   C434    1.439   .     A
C430   C432    1.419   .     A
C431   C1153   1.394   .     S
C432   C1154   1.394   1_554 S
C433   C1172   1.433   .     S
C434   C1171   1.433   1_554 S
Cu435  O450    1.967   .     S
Cu435  O447    1.981   .     S
Cu435  O454    1.926   .     S
Cu435  O451    1.948   .     S
Cu435  Cu436   2.695   .     S
Cu435  N446    2.025   .     S
Cu436  O449    1.967   .     S
Cu436  O453    1.926   .     S
Cu436  O448    1.981   .     S
Cu436  O452    1.948   .     S
Cu436  N445    2.025   .     S
H442   C664    1.088   .     S
H444   N282    1.029   1_655 S
N445   H279    1.029   1_655 S
N445   N282    1.292   1_655 S
O455   C456    1.415   .     S
C456   C459    1.521   .     S
C456   H458    1.110   .     S
C456   H457    1.111   .     S
C459   H462    1.109   .     S
C459   H460    1.108   .     S
H461   C705    1.110   .     S
O463   C464    1.414   .     S
C464   H465    1.109   .     S
C464   H466    1.111   .     S
C464   C467    1.519   .     S
C467   H470    1.108   .     S
C467   H468    1.110   .     S
C467   H715    1.110   .     S
C471   O473    1.220   .     D
H472   C307    1.085   1_655 S
C474   H475    1.084   .     S
C474   C261    1.477   1_655 S
C474   O312    1.221   1_655 S
O477   C478    1.408   .     S
O477   C259    1.385   1_655 S
C478   H479    1.111   .     S
C478   C481    1.521   .     S
C478   H480    1.115   .     S
C481   H484    1.107   .     S
C481   H483    1.098   .     S
C481   H482    1.105   .     S
O485   C486    1.407   .     S
C486   C489    1.517   .     S
C486   H488    1.111   .     S
C486   H487    1.115   .     S
C489   H492    1.106   .     S
C489   H490    1.109   .     S
C489   H737    1.103   .     S
C493   O529    1.301   .     A
C493   C499    1.433   .     S
C493   O531    1.283   .     A
C494   O530    1.301   .     A
C494   C500    1.433   .     S
C494   O532    1.283   .     A
C495   H521    1.073   .     S
C495   C516    1.410   .     A
C495   C497    1.380   .     A
C496   C498    1.381   .     A
C496   C515    1.411   .     A
C496   H522    1.072   .     S
C497   H519    1.084   .     S
C497   C1251   1.394   1_554 S
C498   H520    1.083   .     S
C498   C1252   1.394   .     S
C499   C8      1.321   1_565 S
C499   H31     1.088   1_565 S
C501   O535    1.303   .     A
C501   C503    1.482   .     S
C501   O533    1.302   .     A
C502   O534    1.302   .     A
C502   O536    1.302   .     A
C502   C504    1.480   .     S
C503   C507    1.409   .     A
C503   C509    1.410   .     A
C504   C508    1.410   .     A
C504   C510    1.411   .     A
C505   C513    1.409   .     A
C505   C507    1.407   .     A
C505   O723    1.385   1_455 S
C506   C508    1.406   .     A
C506   C514    1.410   .     A
C506   O649    1.382   .     S
C507   C720    1.477   1_455 S
C508   C635    1.482   .     S
C509   O545    1.384   .     S
C509   C511    1.423   .     A
C510   C512    1.423   .     A
C510   O537    1.386   .     S
C511   C513    1.420   .     A
C511   C515    1.440   .     A
C512   C516    1.439   .     A
C512   C514    1.419   .     A
C513   C1235   1.394   .     S
C514   C1236   1.394   1_554 S
C515   C1254   1.433   .     S
C516   C1253   1.433   1_554 S
Cu517  O532    1.967   .     S
Cu517  O529    1.981   .     S
Cu517  O536    1.926   .     S
Cu517  O533    1.948   .     S
Cu517  Cu518   2.695   .     S
Cu517  N528    2.025   .     S
Cu518  O531    1.967   .     S
Cu518  O535    1.926   .     S
Cu518  O530    1.981   .     S
Cu518  O534    1.948   .     S
Cu518  N527    2.025   .     S
H524   C8      1.088   1_565 S
H525   N691    1.029   1_455 S
H526   N610    1.029   .     S
N527   H607    1.029   .     S
N527   N610    1.292   .     S
N528   H690    1.029   1_455 S
N528   N691    1.292   1_455 S
O537   C538    1.415   .     S
C538   C541    1.521   .     S
C538   H540    1.110   .     S
C538   H539    1.111   .     S
C541   H544    1.109   .     S
C541   H542    1.108   .     S
H543   C49     1.110   1_565 S
O545   C546    1.414   .     S
C546   H547    1.109   .     S
C546   H548    1.111   .     S
C546   C549    1.519   .     S
C549   H552    1.108   .     S
C549   H550    1.110   .     S
C549   H59     1.110   1_565 S
C553   O555    1.220   .     D
C553   C672    1.482   1_455 S
C553   H718    1.085   1_455 S
H554   C635    1.085   .     S
C556   H557    1.084   .     S
C556   C589    1.477   .     S
C556   O640    1.221   .     S
O558   C720    1.221   1_455 S
O559   C560    1.408   .     S
O559   C587    1.385   .     S
C560   H561    1.111   .     S
C560   C563    1.521   .     S
C560   H562    1.115   .     S
C563   H566    1.107   .     S
C563   H565    1.098   .     S
C563   H564    1.105   .     S
O567   C568    1.407   .     S
O567   C670    1.382   1_455 S
C568   C571    1.517   .     S
C568   H570    1.111   .     S
C568   H569    1.115   .     S
C571   H574    1.106   .     S
C571   H572    1.109   .     S
C571   H81     1.103   1_565 S
C575   O611    1.301   .     A
C575   C581    1.433   .     S
C575   O613    1.283   .     A
C576   O612    1.301   .     A
C576   C582    1.433   .     S
C576   O614    1.283   .     A
C577   H603    1.073   .     S
C577   C598    1.410   .     A
C577   C579    1.380   .     A
C578   C580    1.381   .     A
C578   C597    1.411   .     A
C578   H604    1.072   .     S
C579   H601    1.084   .     S
C579   C1333   1.394   1_554 S
C580   H602    1.083   .     S
C580   C1334   1.394   .     S
C581   C90     1.321   1_565 S
C581   H113    1.088   1_565 S
C583   O617    1.303   .     A
C583   C585    1.482   .     S
C583   O615    1.302   .     A
C584   O616    1.302   .     A
C584   O618    1.302   .     A
C584   C586    1.480   .     S
C585   C589    1.409   .     A
C585   C591    1.410   .     A
C586   C590    1.410   .     A
C586   C592    1.411   .     A
C587   C595    1.409   .     A
C587   C589    1.407   .     A
C588   C590    1.406   .     A
C588   C596    1.410   .     A
C588   O731    1.382   .     S
C590   C717    1.482   .     S
C591   O627    1.384   .     S
C591   C593    1.423   .     A
C592   C594    1.423   .     A
C592   O619    1.386   .     S
C593   C595    1.420   .     A
C593   C597    1.440   .     A
C594   C598    1.439   .     A
C594   C596    1.419   .     A
C595   C1317   1.394   .     S
C596   C1318   1.394   1_554 S
C597   C1336   1.433   .     S
C598   C1335   1.433   1_554 S
Cu599  O614    1.967   .     S
Cu599  O611    1.981   .     S
Cu599  O618    1.926   .     S
Cu599  O615    1.948   .     S
Cu599  Cu600   2.695   .     S
Cu599  N610    2.025   .     S
Cu600  O613    1.967   .     S
Cu600  O617    1.926   .     S
Cu600  O612    1.981   .     S
Cu600  O616    1.948   .     S
Cu600  N609    2.025   .     S
H606   C90     1.088   1_565 S
H608   N692    1.029   .     S
N609   H689    1.029   .     S
N609   N692    1.292   .     S
O619   C620    1.415   .     S
C620   C623    1.521   .     S
C620   H622    1.110   .     S
C620   H621    1.111   .     S
C623   H626    1.109   .     S
C623   H624    1.108   .     S
H625   C131    1.110   1_565 S
O627   C628    1.414   .     S
C628   H629    1.109   .     S
C628   H630    1.111   .     S
C628   C631    1.519   .     S
C631   H634    1.108   .     S
C631   H632    1.110   .     S
C631   H141    1.110   1_565 S
C635   O637    1.220   .     D
H636   C717    1.085   .     S
C638   H639    1.084   .     S
C638   C671    1.477   .     S
C638   O722    1.221   .     S
O641   C642    1.408   .     S
O641   C669    1.385   .     S
C642   H643    1.111   .     S
C642   C645    1.521   .     S
C642   H644    1.115   .     S
C645   H648    1.107   .     S
C645   H647    1.098   .     S
C645   H646    1.105   .     S
O649   C650    1.407   .     S
C650   C653    1.517   .     S
C650   H652    1.111   .     S
C650   H651    1.115   .     S
C653   H656    1.106   .     S
C653   H654    1.109   .     S
C653   H163    1.103   1_565 S
C657   O693    1.301   .     A
C657   C663    1.433   .     S
C657   O695    1.283   .     A
C658   O694    1.301   .     A
C658   C664    1.433   .     S
C658   O696    1.283   .     A
C659   H685    1.073   .     S
C659   C680    1.410   .     A
C659   C661    1.380   .     A
C660   C662    1.381   .     A
C660   C679    1.411   .     A
C660   H686    1.072   .     S
C661   H683    1.084   .     S
C661   C1415   1.394   1_554 S
C662   H684    1.083   .     S
C662   C1416   1.394   .     S
C663   C172    1.321   1_565 S
C663   H195    1.088   1_565 S
C665   O699    1.303   .     A
C665   C667    1.482   .     S
C665   O697    1.302   .     A
C666   O698    1.302   .     A
C666   O700    1.302   .     A
C666   C668    1.480   .     S
C667   C671    1.409   .     A
C667   C673    1.410   .     A
C668   C672    1.410   .     A
C668   C674    1.411   .     A
C669   C677    1.409   .     A
C669   C671    1.407   .     A
C670   C672    1.406   .     A
C670   C678    1.410   .     A
C670   O567    1.382   1_655 S
C672   C553    1.482   1_655 S
C673   O709    1.384   .     S
C673   C675    1.423   .     A
C674   C676    1.423   .     A
C674   O701    1.386   .     S
C675   C677    1.420   .     A
C675   C679    1.440   .     A
C676   C680    1.439   .     A
C676   C678    1.419   .     A
C677   C1399   1.394   .     S
C678   C1400   1.394   1_554 S
C679   C1418   1.433   .     S
C680   C1417   1.433   1_554 S
Cu681  O696    1.967   .     S
Cu681  O693    1.981   .     S
Cu681  O700    1.926   .     S
Cu681  O697    1.948   .     S
Cu681  Cu682   2.695   .     S
Cu681  N692    2.025   .     S
Cu682  O695    1.967   .     S
Cu682  O699    1.926   .     S
Cu682  O694    1.981   .     S
Cu682  O698    1.948   .     S
Cu682  N691    2.025   .     S
H688   C172    1.088   1_565 S
H690   N528    1.029   1_655 S
N691   H525    1.029   1_655 S
N691   N528    1.292   1_655 S
O701   C702    1.415   .     S
C702   C705    1.521   .     S
C702   H704    1.110   .     S
C702   H703    1.111   .     S
C705   H708    1.109   .     S
C705   H706    1.108   .     S
H707   C213    1.110   1_565 S
O709   C710    1.414   .     S
C710   H711    1.109   .     S
C710   H712    1.111   .     S
C710   C713    1.519   .     S
C713   H716    1.108   .     S
C713   H714    1.110   .     S
C713   H223    1.110   1_565 S
C717   O719    1.220   .     D
H718   C553    1.085   1_655 S
C720   H721    1.084   .     S
C720   C507    1.477   1_655 S
C720   O558    1.221   1_655 S
O723   C724    1.408   .     S
O723   C505    1.385   1_655 S
C724   H725    1.111   .     S
C724   C727    1.521   .     S
C724   H726    1.115   .     S
C727   H730    1.107   .     S
C727   H729    1.098   .     S
C727   H728    1.105   .     S
O731   C732    1.407   .     S
C732   C735    1.517   .     S
C732   H734    1.111   .     S
C732   H733    1.115   .     S
C735   H738    1.106   .     S
C735   H736    1.109   .     S
C735   H245    1.103   1_565 S
C739   O775    1.301   .     A
C739   C745    1.433   .     S
C739   O777    1.283   .     A
C740   O776    1.301   .     A
C740   C746    1.433   .     S
C740   O778    1.283   .     A
C741   H767    1.073   .     S
C741   C762    1.410   .     A
C741   C743    1.380   .     A
C742   C744    1.381   .     A
C742   C761    1.411   .     A
C742   H768    1.072   .     S
C743   H765    1.084   .     S
C744   H766    1.083   .     S
C744   C22     1.394   1_556 S
C745   C992    1.321   .     S
C745   H1015   1.088   .     S
C746   C1237   1.321   1_545 S
C746   H1262   1.088   1_545 S
C747   O781    1.303   .     A
C747   C749    1.482   .     S
C747   O779    1.302   .     A
C748   O780    1.302   .     A
C748   O782    1.302   .     A
C748   C750    1.480   .     S
C749   C753    1.409   .     A
C749   C755    1.410   .     A
C750   C754    1.410   .     A
C750   C756    1.411   .     A
C751   C759    1.409   .     A
C751   C753    1.407   .     A
C751   O969    1.385   1_455 S
C752   C754    1.406   .     A
C752   C760    1.410   .     A
C752   O895    1.382   .     S
C753   C966    1.477   1_455 S
C754   C881    1.482   .     S
C755   O791    1.384   .     S
C755   C757    1.423   .     A
C756   C758    1.423   .     A
C756   O783    1.386   .     S
C757   C759    1.420   .     A
C757   C761    1.440   .     A
C758   C762    1.439   .     A
C758   C760    1.419   .     A
C759   C5      1.394   1_556 S
C761   C24     1.433   1_556 S
Cu763  O778    1.967   .     S
Cu763  O775    1.981   .     S
Cu763  O782    1.926   .     S
Cu763  O779    1.948   .     S
Cu763  Cu764   2.695   .     S
Cu763  N774    2.025   .     S
Cu764  O777    1.967   .     S
Cu764  O781    1.926   .     S
Cu764  O776    1.981   .     S
Cu764  O780    1.948   .     S
Cu764  N773    2.025   .     S
H769   C1237   1.088   1_545 S
H770   C992    1.088   .     S
H771   N937    1.029   1_455 S
H772   N856    1.029   .     S
N773   H853    1.029   .     S
N773   N856    1.292   .     S
N774   H936    1.029   1_455 S
N774   N937    1.292   1_455 S
O783   C784    1.415   .     S
C784   C787    1.521   .     S
C784   H786    1.110   .     S
C784   H785    1.111   .     S
C787   H790    1.109   .     S
C787   H788    1.108   .     S
C787   H1281   1.110   1_545 S
H789   C1033   1.110   .     S
O791   C792    1.414   .     S
C792   H793    1.109   .     S
C792   H794    1.111   .     S
C792   C795    1.519   .     S
C795   H798    1.108   .     S
C795   H796    1.110   .     S
C795   H1043   1.110   .     S
H797   C1287   1.110   1_545 S
C799   O801    1.220   .     D
C799   C918    1.482   1_455 S
C799   H964    1.085   1_455 S
H800   C881    1.085   .     S
C802   H803    1.084   .     S
C802   C835    1.477   .     S
C802   O886    1.221   .     S
O804   C966    1.221   1_455 S
O805   C806    1.408   .     S
O805   C833    1.385   .     S
C806   H807    1.111   .     S
C806   C809    1.521   .     S
C806   H808    1.115   .     S
C809   H812    1.107   .     S
C809   H811    1.098   .     S
C809   H810    1.105   .     S
O813   C814    1.407   .     S
O813   C916    1.382   1_455 S
C814   C817    1.517   .     S
C814   H816    1.111   .     S
C814   H815    1.115   .     S
C817   H820    1.106   .     S
C817   H818    1.109   .     S
C817   H1065   1.103   .     S
H819   C1309   1.103   1_545 S
C821   O857    1.301   .     A
C821   C827    1.433   .     S
C821   O859    1.283   .     A
C822   O858    1.301   .     A
C822   C828    1.433   .     S
C822   O860    1.283   .     A
C823   H849    1.073   .     S
C823   C844    1.410   .     A
C823   C825    1.380   .     A
C824   C826    1.381   .     A
C824   C843    1.411   .     A
C824   H850    1.072   .     S
C825   H847    1.084   .     S
C826   H848    1.083   .     S
C826   C104    1.394   1_556 S
C827   C1074   1.321   .     S
C827   H1097   1.088   .     S
C828   C1319   1.321   1_545 S
C828   H1344   1.088   1_545 S
C829   O863    1.303   .     A
C829   C831    1.482   .     S
C829   O861    1.302   .     A
C830   O862    1.302   .     A
C830   O864    1.302   .     A
C830   C832    1.480   .     S
C831   C835    1.409   .     A
C831   C837    1.410   .     A
C832   C836    1.410   .     A
C832   C838    1.411   .     A
C833   C841    1.409   .     A
C833   C835    1.407   .     A
C834   C836    1.406   .     A
C834   C842    1.410   .     A
C834   O977    1.382   .     S
C836   C963    1.482   .     S
C837   O873    1.384   .     S
C837   C839    1.423   .     A
C838   C840    1.423   .     A
C838   O865    1.386   .     S
C839   C841    1.420   .     A
C839   C843    1.440   .     A
C840   C844    1.439   .     A
C840   C842    1.419   .     A
C841   C87     1.394   1_556 S
C843   C106    1.433   1_556 S
Cu845  O860    1.967   .     S
Cu845  O857    1.981   .     S
Cu845  O864    1.926   .     S
Cu845  O861    1.948   .     S
Cu845  Cu846   2.695   .     S
Cu845  N856    2.025   .     S
Cu846  O859    1.967   .     S
Cu846  O863    1.926   .     S
Cu846  O858    1.981   .     S
Cu846  O862    1.948   .     S
Cu846  N855    2.025   .     S
H851   C1319   1.088   1_545 S
H852   C1074   1.088   .     S
H854   N938    1.029   .     S
N855   H935    1.029   .     S
N855   N938    1.292   .     S
O865   C866    1.415   .     S
C866   C869    1.521   .     S
C866   H868    1.110   .     S
C866   H867    1.111   .     S
C869   H872    1.109   .     S
C869   H870    1.108   .     S
C869   H1363   1.110   1_545 S
H871   C1115   1.110   .     S
O873   C874    1.414   .     S
C874   H875    1.109   .     S
C874   H876    1.111   .     S
C874   C877    1.519   .     S
C877   H880    1.108   .     S
C877   H878    1.110   .     S
C877   H1125   1.110   .     S
H879   C1369   1.110   1_545 S
C881   O883    1.220   .     D
H882   C963    1.085   .     S
C884   H885    1.084   .     S
C884   C917    1.477   .     S
C884   O968    1.221   .     S
O887   C888    1.408   .     S
O887   C915    1.385   .     S
C888   H889    1.111   .     S
C888   C891    1.521   .     S
C888   H890    1.115   .     S
C891   H894    1.107   .     S
C891   H893    1.098   .     S
C891   H892    1.105   .     S
O895   C896    1.407   .     S
C896   C899    1.517   .     S
C896   H898    1.111   .     S
C896   H897    1.115   .     S
C899   H902    1.106   .     S
C899   H900    1.109   .     S
C899   H1147   1.103   .     S
H901   C1391   1.103   1_545 S
C903   O939    1.301   .     A
C903   C909    1.433   .     S
C903   O941    1.283   .     A
C904   O940    1.301   .     A
C904   C910    1.433   .     S
C904   O942    1.283   .     A
C905   H931    1.073   .     S
C905   C926    1.410   .     A
C905   C907    1.380   .     A
C906   C908    1.381   .     A
C906   C925    1.411   .     A
C906   H932    1.072   .     S
C907   H929    1.084   .     S
C908   H930    1.083   .     S
C908   C186    1.394   1_556 S
C909   C1156   1.321   .     S
C909   H1179   1.088   .     S
C910   C1401   1.321   1_545 S
C910   H1426   1.088   1_545 S
C911   O945    1.303   .     A
C911   C913    1.482   .     S
C911   O943    1.302   .     A
C912   O944    1.302   .     A
C912   O946    1.302   .     A
C912   C914    1.480   .     S
C913   C917    1.409   .     A
C913   C919    1.410   .     A
C914   C918    1.410   .     A
C914   C920    1.411   .     A
C915   C923    1.409   .     A
C915   C917    1.407   .     A
C916   C918    1.406   .     A
C916   C924    1.410   .     A
C916   O813    1.382   1_655 S
C918   C799    1.482   1_655 S
C919   O955    1.384   .     S
C919   C921    1.423   .     A
C920   C922    1.423   .     A
C920   O947    1.386   .     S
C921   C923    1.420   .     A
C921   C925    1.440   .     A
C922   C926    1.439   .     A
C922   C924    1.419   .     A
C923   C169    1.394   1_556 S
C925   C188    1.433   1_556 S
Cu927  O942    1.967   .     S
Cu927  O939    1.981   .     S
Cu927  O946    1.926   .     S
Cu927  O943    1.948   .     S
Cu927  Cu928   2.695   .     S
Cu927  N938    2.025   .     S
Cu928  O941    1.967   .     S
Cu928  O945    1.926   .     S
Cu928  O940    1.981   .     S
Cu928  O944    1.948   .     S
Cu928  N937    2.025   .     S
H933   C1401   1.088   1_545 S
H934   C1156   1.088   .     S
H936   N774    1.029   1_655 S
N937   H771    1.029   1_655 S
N937   N774    1.292   1_655 S
O947   C948    1.415   .     S
C948   C951    1.521   .     S
C948   H950    1.110   .     S
C948   H949    1.111   .     S
C951   H954    1.109   .     S
C951   H952    1.108   .     S
C951   H1445   1.110   1_545 S
H953   C1197   1.110   .     S
O955   C956    1.414   .     S
C956   H957    1.109   .     S
C956   H958    1.111   .     S
C956   C959    1.519   .     S
C959   H962    1.108   .     S
C959   H960    1.110   .     S
C959   H1207   1.110   .     S
H961   C1451   1.110   1_545 S
C963   O965    1.220   .     D
H964   C799    1.085   1_655 S
C966   H967    1.084   .     S
C966   C753    1.477   1_655 S
C966   O804    1.221   1_655 S
O969   C970    1.408   .     S
O969   C751    1.385   1_655 S
C970   H971    1.111   .     S
C970   C973    1.521   .     S
C970   H972    1.115   .     S
C973   H976    1.107   .     S
C973   H975    1.098   .     S
C973   H974    1.105   .     S
O977   C978    1.407   .     S
C978   C981    1.517   .     S
C978   H980    1.111   .     S
C978   H979    1.115   .     S
C981   H984    1.106   .     S
C981   H982    1.109   .     S
C981   H1229   1.103   .     S
H983   C1473   1.103   1_545 S
C985   O1021   1.301   .     A
C985   C991    1.433   .     S
C985   O1023   1.283   .     A
C986   O1022   1.301   .     A
C986   C992    1.433   .     S
C986   O1024   1.283   .     A
C987   H1013   1.073   .     S
C987   C1008   1.410   .     A
C987   C989    1.380   .     A
C988   C990    1.381   .     A
C988   C1007   1.411   .     A
C988   H1014   1.072   .     S
C989   H1011   1.084   .     S
C990   H1012   1.083   .     S
C990   C268    1.394   1_556 S
C991   C1238   1.321   .     S
C991   H1261   1.088   .     S
C993   O1027   1.303   .     A
C993   C995    1.482   .     S
C993   O1025   1.302   .     A
C994   O1026   1.302   .     A
C994   O1028   1.302   .     A
C994   C996    1.480   .     S
C995   C999    1.409   .     A
C995   C1001   1.410   .     A
C996   C1000   1.410   .     A
C996   C1002   1.411   .     A
C997   C1005   1.409   .     A
C997   C999    1.407   .     A
C997   O1215   1.385   1_455 S
C998   C1000   1.406   .     A
C998   C1006   1.410   .     A
C998   O1141   1.382   .     S
C999   C1212   1.477   1_455 S
C1000  C1127   1.482   .     S
C1001  O1037   1.384   .     S
C1001  C1003   1.423   .     A
C1002  C1004   1.423   .     A
C1002  O1029   1.386   .     S
C1003  C1005   1.420   .     A
C1003  C1007   1.440   .     A
C1004  C1008   1.439   .     A
C1004  C1006   1.419   .     A
C1005  C251    1.394   1_556 S
C1007  C270    1.433   1_556 S
Cu1009 O1024   1.967   .     S
Cu1009 O1021   1.981   .     S
Cu1009 O1028   1.926   .     S
Cu1009 O1025   1.948   .     S
Cu1009 Cu1010  2.695   .     S
Cu1009 N1020   2.025   .     S
Cu1010 O1023   1.967   .     S
Cu1010 O1027   1.926   .     S
Cu1010 O1022   1.981   .     S
Cu1010 O1026   1.948   .     S
Cu1010 N1019   2.025   .     S
H1016  C1238   1.088   .     S
H1017  N1183   1.029   1_455 S
H1018  N1102   1.029   .     S
N1019  H1099   1.029   .     S
N1019  N1102   1.292   .     S
N1020  H1182   1.029   1_455 S
N1020  N1183   1.292   1_455 S
O1029  C1030   1.415   .     S
C1030  C1033   1.521   .     S
C1030  H1032   1.110   .     S
C1030  H1031   1.111   .     S
C1033  H1036   1.109   .     S
C1033  H1034   1.108   .     S
H1035  C1279   1.110   .     S
O1037  C1038   1.414   .     S
C1038  H1039   1.109   .     S
C1038  H1040   1.111   .     S
C1038  C1041   1.519   .     S
C1041  H1044   1.108   .     S
C1041  H1042   1.110   .     S
C1041  H1289   1.110   .     S
C1045  O1047   1.220   .     D
C1045  C1164   1.482   1_455 S
C1045  H1210   1.085   1_455 S
H1046  C1127   1.085   .     S
C1048  H1049   1.084   .     S
C1048  C1081   1.477   .     S
C1048  O1132   1.221   .     S
O1050  C1212   1.221   1_455 S
O1051  C1052   1.408   .     S
O1051  C1079   1.385   .     S
C1052  H1053   1.111   .     S
C1052  C1055   1.521   .     S
C1052  H1054   1.115   .     S
C1055  H1058   1.107   .     S
C1055  H1057   1.098   .     S
C1055  H1056   1.105   .     S
O1059  C1060   1.407   .     S
O1059  C1162   1.382   1_455 S
C1060  C1063   1.517   .     S
C1060  H1062   1.111   .     S
C1060  H1061   1.115   .     S
C1063  H1066   1.106   .     S
C1063  H1064   1.109   .     S
C1063  H1311   1.103   .     S
C1067  O1103   1.301   .     A
C1067  C1073   1.433   .     S
C1067  O1105   1.283   .     A
C1068  O1104   1.301   .     A
C1068  C1074   1.433   .     S
C1068  O1106   1.283   .     A
C1069  H1095   1.073   .     S
C1069  C1090   1.410   .     A
C1069  C1071   1.380   .     A
C1070  C1072   1.381   .     A
C1070  C1089   1.411   .     A
C1070  H1096   1.072   .     S
C1071  H1093   1.084   .     S
C1072  H1094   1.083   .     S
C1072  C350    1.394   1_556 S
C1073  C1320   1.321   .     S
C1073  H1343   1.088   .     S
C1075  O1109   1.303   .     A
C1075  C1077   1.482   .     S
C1075  O1107   1.302   .     A
C1076  O1108   1.302   .     A
C1076  O1110   1.302   .     A
C1076  C1078   1.480   .     S
C1077  C1081   1.409   .     A
C1077  C1083   1.410   .     A
C1078  C1082   1.410   .     A
C1078  C1084   1.411   .     A
C1079  C1087   1.409   .     A
C1079  C1081   1.407   .     A
C1080  C1082   1.406   .     A
C1080  C1088   1.410   .     A
C1080  O1223   1.382   .     S
C1082  C1209   1.482   .     S
C1083  O1119   1.384   .     S
C1083  C1085   1.423   .     A
C1084  C1086   1.423   .     A
C1084  O1111   1.386   .     S
C1085  C1087   1.420   .     A
C1085  C1089   1.440   .     A
C1086  C1090   1.439   .     A
C1086  C1088   1.419   .     A
C1087  C333    1.394   1_556 S
C1089  C352    1.433   1_556 S
Cu1091 O1106   1.967   .     S
Cu1091 O1103   1.981   .     S
Cu1091 O1110   1.926   .     S
Cu1091 O1107   1.948   .     S
Cu1091 Cu1092  2.695   .     S
Cu1091 N1102   2.025   .     S
Cu1092 O1105   1.967   .     S
Cu1092 O1109   1.926   .     S
Cu1092 O1104   1.981   .     S
Cu1092 O1108   1.948   .     S
Cu1092 N1101   2.025   .     S
H1098  C1320   1.088   .     S
H1100  N1184   1.029   .     S
N1101  H1181   1.029   .     S
N1101  N1184   1.292   .     S
O1111  C1112   1.415   .     S
C1112  C1115   1.521   .     S
C1112  H1114   1.110   .     S
C1112  H1113   1.111   .     S
C1115  H1118   1.109   .     S
C1115  H1116   1.108   .     S
H1117  C1361   1.110   .     S
O1119  C1120   1.414   .     S
C1120  H1121   1.109   .     S
C1120  H1122   1.111   .     S
C1120  C1123   1.519   .     S
C1123  H1126   1.108   .     S
C1123  H1124   1.110   .     S
C1123  H1371   1.110   .     S
C1127  O1129   1.220   .     D
H1128  C1209   1.085   .     S
C1130  H1131   1.084   .     S
C1130  C1163   1.477   .     S
C1130  O1214   1.221   .     S
O1133  C1134   1.408   .     S
O1133  C1161   1.385   .     S
C1134  H1135   1.111   .     S
C1134  C1137   1.521   .     S
C1134  H1136   1.115   .     S
C1137  H1140   1.107   .     S
C1137  H1139   1.098   .     S
C1137  H1138   1.105   .     S
O1141  C1142   1.407   .     S
C1142  C1145   1.517   .     S
C1142  H1144   1.111   .     S
C1142  H1143   1.115   .     S
C1145  H1148   1.106   .     S
C1145  H1146   1.109   .     S
C1145  H1393   1.103   .     S
C1149  O1185   1.301   .     A
C1149  C1155   1.433   .     S
C1149  O1187   1.283   .     A
C1150  O1186   1.301   .     A
C1150  C1156   1.433   .     S
C1150  O1188   1.283   .     A
C1151  H1177   1.073   .     S
C1151  C1172   1.410   .     A
C1151  C1153   1.380   .     A
C1152  C1154   1.381   .     A
C1152  C1171   1.411   .     A
C1152  H1178   1.072   .     S
C1153  H1175   1.084   .     S
C1154  H1176   1.083   .     S
C1154  C432    1.394   1_556 S
C1155  C1402   1.321   .     S
C1155  H1425   1.088   .     S
C1157  O1191   1.303   .     A
C1157  C1159   1.482   .     S
C1157  O1189   1.302   .     A
C1158  O1190   1.302   .     A
C1158  O1192   1.302   .     A
C1158  C1160   1.480   .     S
C1159  C1163   1.409   .     A
C1159  C1165   1.410   .     A
C1160  C1164   1.410   .     A
C1160  C1166   1.411   .     A
C1161  C1169   1.409   .     A
C1161  C1163   1.407   .     A
C1162  C1164   1.406   .     A
C1162  C1170   1.410   .     A
C1162  O1059   1.382   1_655 S
C1164  C1045   1.482   1_655 S
C1165  O1201   1.384   .     S
C1165  C1167   1.423   .     A
C1166  C1168   1.423   .     A
C1166  O1193   1.386   .     S
C1167  C1169   1.420   .     A
C1167  C1171   1.440   .     A
C1168  C1172   1.439   .     A
C1168  C1170   1.419   .     A
C1169  C415    1.394   1_556 S
C1171  C434    1.433   1_556 S
Cu1173 O1188   1.967   .     S
Cu1173 O1185   1.981   .     S
Cu1173 O1192   1.926   .     S
Cu1173 O1189   1.948   .     S
Cu1173 Cu1174  2.695   .     S
Cu1173 N1184   2.025   .     S
Cu1174 O1187   1.967   .     S
Cu1174 O1191   1.926   .     S
Cu1174 O1186   1.981   .     S
Cu1174 O1190   1.948   .     S
Cu1174 N1183   2.025   .     S
H1180  C1402   1.088   .     S
H1182  N1020   1.029   1_655 S
N1183  H1017   1.029   1_655 S
N1183  N1020   1.292   1_655 S
O1193  C1194   1.415   .     S
C1194  C1197   1.521   .     S
C1194  H1196   1.110   .     S
C1194  H1195   1.111   .     S
C1197  H1200   1.109   .     S
C1197  H1198   1.108   .     S
H1199  C1443   1.110   .     S
O1201  C1202   1.414   .     S
C1202  H1203   1.109   .     S
C1202  H1204   1.111   .     S
C1202  C1205   1.519   .     S
C1205  H1208   1.108   .     S
C1205  H1206   1.110   .     S
C1205  H1453   1.110   .     S
C1209  O1211   1.220   .     D
H1210  C1045   1.085   1_655 S
C1212  H1213   1.084   .     S
C1212  C999    1.477   1_655 S
C1212  O1050   1.221   1_655 S
O1215  C1216   1.408   .     S
O1215  C997    1.385   1_655 S
C1216  H1217   1.111   .     S
C1216  C1219   1.521   .     S
C1216  H1218   1.115   .     S
C1219  H1222   1.107   .     S
C1219  H1221   1.098   .     S
C1219  H1220   1.105   .     S
O1223  C1224   1.407   .     S
C1224  C1227   1.517   .     S
C1224  H1226   1.111   .     S
C1224  H1225   1.115   .     S
C1227  H1230   1.106   .     S
C1227  H1228   1.109   .     S
C1227  H1475   1.103   .     S
C1231  O1267   1.301   .     A
C1231  C1237   1.433   .     S
C1231  O1269   1.283   .     A
C1232  O1268   1.301   .     A
C1232  C1238   1.433   .     S
C1232  O1270   1.283   .     A
C1233  H1259   1.073   .     S
C1233  C1254   1.410   .     A
C1233  C1235   1.380   .     A
C1234  C1236   1.381   .     A
C1234  C1253   1.411   .     A
C1234  H1260   1.072   .     S
C1235  H1257   1.084   .     S
C1236  H1258   1.083   .     S
C1236  C514    1.394   1_556 S
C1237  C746    1.321   1_565 S
C1237  H769    1.088   1_565 S
C1239  O1273   1.303   .     A
C1239  C1241   1.482   .     S
C1239  O1271   1.302   .     A
C1240  O1272   1.302   .     A
C1240  O1274   1.302   .     A
C1240  C1242   1.480   .     S
C1241  C1245   1.409   .     A
C1241  C1247   1.410   .     A
C1242  C1246   1.410   .     A
C1242  C1248   1.411   .     A
C1243  C1251   1.409   .     A
C1243  C1245   1.407   .     A
C1243  O1461   1.385   1_455 S
C1244  C1246   1.406   .     A
C1244  C1252   1.410   .     A
C1244  O1387   1.382   .     S
C1245  C1458   1.477   1_455 S
C1246  C1373   1.482   .     S
C1247  O1283   1.384   .     S
C1247  C1249   1.423   .     A
C1248  C1250   1.423   .     A
C1248  O1275   1.386   .     S
C1249  C1251   1.420   .     A
C1249  C1253   1.440   .     A
C1250  C1254   1.439   .     A
C1250  C1252   1.419   .     A
C1251  C497    1.394   1_556 S
C1253  C516    1.433   1_556 S
Cu1255 O1270   1.967   .     S
Cu1255 O1267   1.981   .     S
Cu1255 O1274   1.926   .     S
Cu1255 O1271   1.948   .     S
Cu1255 Cu1256  2.695   .     S
Cu1255 N1266   2.025   .     S
Cu1256 O1269   1.967   .     S
Cu1256 O1273   1.926   .     S
Cu1256 O1268   1.981   .     S
Cu1256 O1272   1.948   .     S
Cu1256 N1265   2.025   .     S
H1262  C746    1.088   1_565 S
H1263  N1429   1.029   1_455 S
H1264  N1348   1.029   .     S
N1265  H1345   1.029   .     S
N1265  N1348   1.292   .     S
N1266  H1428   1.029   1_455 S
N1266  N1429   1.292   1_455 S
O1275  C1276   1.415   .     S
C1276  C1279   1.521   .     S
C1276  H1278   1.110   .     S
C1276  H1277   1.111   .     S
C1279  H1282   1.109   .     S
C1279  H1280   1.108   .     S
H1281  C787    1.110   1_565 S
O1283  C1284   1.414   .     S
C1284  H1285   1.109   .     S
C1284  H1286   1.111   .     S
C1284  C1287   1.519   .     S
C1287  H1290   1.108   .     S
C1287  H1288   1.110   .     S
C1287  H797    1.110   1_565 S
C1291  O1293   1.220   .     D
C1291  C1410   1.482   1_455 S
C1291  H1456   1.085   1_455 S
H1292  C1373   1.085   .     S
C1294  H1295   1.084   .     S
C1294  C1327   1.477   .     S
C1294  O1378   1.221   .     S
O1296  C1458   1.221   1_455 S
O1297  C1298   1.408   .     S
O1297  C1325   1.385   .     S
C1298  H1299   1.111   .     S
C1298  C1301   1.521   .     S
C1298  H1300   1.115   .     S
C1301  H1304   1.107   .     S
C1301  H1303   1.098   .     S
C1301  H1302   1.105   .     S
O1305  C1306   1.407   .     S
O1305  C1408   1.382   1_455 S
C1306  C1309   1.517   .     S
C1306  H1308   1.111   .     S
C1306  H1307   1.115   .     S
C1309  H1312   1.106   .     S
C1309  H1310   1.109   .     S
C1309  H819    1.103   1_565 S
C1313  O1349   1.301   .     A
C1313  C1319   1.433   .     S
C1313  O1351   1.283   .     A
C1314  O1350   1.301   .     A
C1314  C1320   1.433   .     S
C1314  O1352   1.283   .     A
C1315  H1341   1.073   .     S
C1315  C1336   1.410   .     A
C1315  C1317   1.380   .     A
C1316  C1318   1.381   .     A
C1316  C1335   1.411   .     A
C1316  H1342   1.072   .     S
C1317  H1339   1.084   .     S
C1318  H1340   1.083   .     S
C1318  C596    1.394   1_556 S
C1319  C828    1.321   1_565 S
C1319  H851    1.088   1_565 S
C1321  O1355   1.303   .     A
C1321  C1323   1.482   .     S
C1321  O1353   1.302   .     A
C1322  O1354   1.302   .     A
C1322  O1356   1.302   .     A
C1322  C1324   1.480   .     S
C1323  C1327   1.409   .     A
C1323  C1329   1.410   .     A
C1324  C1328   1.410   .     A
C1324  C1330   1.411   .     A
C1325  C1333   1.409   .     A
C1325  C1327   1.407   .     A
C1326  C1328   1.406   .     A
C1326  C1334   1.410   .     A
C1326  O1469   1.382   .     S
C1328  C1455   1.482   .     S
C1329  O1365   1.384   .     S
C1329  C1331   1.423   .     A
C1330  C1332   1.423   .     A
C1330  O1357   1.386   .     S
C1331  C1333   1.420   .     A
C1331  C1335   1.440   .     A
C1332  C1336   1.439   .     A
C1332  C1334   1.419   .     A
C1333  C579    1.394   1_556 S
C1335  C598    1.433   1_556 S
Cu1337 O1352   1.967   .     S
Cu1337 O1349   1.981   .     S
Cu1337 O1356   1.926   .     S
Cu1337 O1353   1.948   .     S
Cu1337 Cu1338  2.695   .     S
Cu1337 N1348   2.025   .     S
Cu1338 O1351   1.967   .     S
Cu1338 O1355   1.926   .     S
Cu1338 O1350   1.981   .     S
Cu1338 O1354   1.948   .     S
Cu1338 N1347   2.025   .     S
H1344  C828    1.088   1_565 S
H1346  N1430   1.029   .     S
N1347  H1427   1.029   .     S
N1347  N1430   1.292   .     S
O1357  C1358   1.415   .     S
C1358  C1361   1.521   .     S
C1358  H1360   1.110   .     S
C1358  H1359   1.111   .     S
C1361  H1364   1.109   .     S
C1361  H1362   1.108   .     S
H1363  C869    1.110   1_565 S
O1365  C1366   1.414   .     S
C1366  H1367   1.109   .     S
C1366  H1368   1.111   .     S
C1366  C1369   1.519   .     S
C1369  H1372   1.108   .     S
C1369  H1370   1.110   .     S
C1369  H879    1.110   1_565 S
C1373  O1375   1.220   .     D
H1374  C1455   1.085   .     S
C1376  H1377   1.084   .     S
C1376  C1409   1.477   .     S
C1376  O1460   1.221   .     S
O1379  C1380   1.408   .     S
O1379  C1407   1.385   .     S
C1380  H1381   1.111   .     S
C1380  C1383   1.521   .     S
C1380  H1382   1.115   .     S
C1383  H1386   1.107   .     S
C1383  H1385   1.098   .     S
C1383  H1384   1.105   .     S
O1387  C1388   1.407   .     S
C1388  C1391   1.517   .     S
C1388  H1390   1.111   .     S
C1388  H1389   1.115   .     S
C1391  H1394   1.106   .     S
C1391  H1392   1.109   .     S
C1391  H901    1.103   1_565 S
C1395  O1431   1.301   .     A
C1395  C1401   1.433   .     S
C1395  O1433   1.283   .     A
C1396  O1432   1.301   .     A
C1396  C1402   1.433   .     S
C1396  O1434   1.283   .     A
C1397  H1423   1.073   .     S
C1397  C1418   1.410   .     A
C1397  C1399   1.380   .     A
C1398  C1400   1.381   .     A
C1398  C1417   1.411   .     A
C1398  H1424   1.072   .     S
C1399  H1421   1.084   .     S
C1400  H1422   1.083   .     S
C1400  C678    1.394   1_556 S
C1401  C910    1.321   1_565 S
C1401  H933    1.088   1_565 S
C1403  O1437   1.303   .     A
C1403  C1405   1.482   .     S
C1403  O1435   1.302   .     A
C1404  O1436   1.302   .     A
C1404  O1438   1.302   .     A
C1404  C1406   1.480   .     S
C1405  C1409   1.409   .     A
C1405  C1411   1.410   .     A
C1406  C1410   1.410   .     A
C1406  C1412   1.411   .     A
C1407  C1415   1.409   .     A
C1407  C1409   1.407   .     A
C1408  C1410   1.406   .     A
C1408  C1416   1.410   .     A
C1408  O1305   1.382   1_655 S
C1410  C1291   1.482   1_655 S
C1411  O1447   1.384   .     S
C1411  C1413   1.423   .     A
C1412  C1414   1.423   .     A
C1412  O1439   1.386   .     S
C1413  C1415   1.420   .     A
C1413  C1417   1.440   .     A
C1414  C1418   1.439   .     A
C1414  C1416   1.419   .     A
C1415  C661    1.394   1_556 S
C1417  C680    1.433   1_556 S
Cu1419 O1434   1.967   .     S
Cu1419 O1431   1.981   .     S
Cu1419 O1438   1.926   .     S
Cu1419 O1435   1.948   .     S
Cu1419 Cu1420  2.695   .     S
Cu1419 N1430   2.025   .     S
Cu1420 O1433   1.967   .     S
Cu1420 O1437   1.926   .     S
Cu1420 O1432   1.981   .     S
Cu1420 O1436   1.948   .     S
Cu1420 N1429   2.025   .     S
H1426  C910    1.088   1_565 S
H1428  N1266   1.029   1_655 S
N1429  H1263   1.029   1_655 S
N1429  N1266   1.292   1_655 S
O1439  C1440   1.415   .     S
C1440  C1443   1.521   .     S
C1440  H1442   1.110   .     S
C1440  H1441   1.111   .     S
C1443  H1446   1.109   .     S
C1443  H1444   1.108   .     S
H1445  C951    1.110   1_565 S
O1447  C1448   1.414   .     S
C1448  H1449   1.109   .     S
C1448  H1450   1.111   .     S
C1448  C1451   1.519   .     S
C1451  H1454   1.108   .     S
C1451  H1452   1.110   .     S
C1451  H961    1.110   1_565 S
C1455  O1457   1.220   .     D
H1456  C1291   1.085   1_655 S
C1458  H1459   1.084   .     S
C1458  C1245   1.477   1_655 S
C1458  O1296   1.221   1_655 S
O1461  C1462   1.408   .     S
O1461  C1243   1.385   1_655 S
C1462  H1463   1.111   .     S
C1462  C1465   1.521   .     S
C1462  H1464   1.115   .     S
C1465  H1468   1.107   .     S
C1465  H1467   1.098   .     S
C1465  H1466   1.105   .     S
O1469  C1470   1.407   .     S
C1470  C1473   1.517   .     S
C1470  H1472   1.111   .     S
C1470  H1471   1.115   .     S
C1473  H1476   1.106   .     S
C1473  H1474   1.109   .     S
C1473  H983    1.103   1_565 S
