data_str_m2_o1_o16_pcu_sym.47
_audit_creation_date              2020-01-03
_audit_creation_method            'Materials Studio'
_symmetry_space_group_name_H-M    'P1'
_symmetry_Int_Tables_number       1
_symmetry_cell_setting            triclinic
loop_
_symmetry_equiv_pos_as_xyz
  x,y,z
_cell_length_a                    28.5252
_cell_length_b                    32.5183
_cell_length_c                    27.0036
_cell_angle_alpha                 90.2483
_cell_angle_beta                  72.5683
_cell_angle_gamma                 90.3266
loop_
_atom_site_label
_atom_site_type_symbol
_atom_site_fract_x
_atom_site_fract_y
_atom_site_fract_z
_atom_site_U_iso_or_equiv
_atom_site_adp_type
_atom_site_occupancy
C1     C     0.16671   0.24593   0.25030   0.00000  Uiso   1.00
C2     C     0.12463   0.16583   0.40722   0.00000  Uiso   1.00
C3     C     0.21084   0.31231   0.23836   0.00000  Uiso   1.00
C4     C     0.14042   0.16806   0.35009   0.00000  Uiso   1.00
C5     C     0.21031   0.02150   0.23869   0.00000  Uiso   1.00
C6     C     0.16549   0.04258   0.25125   0.00000  Uiso   1.00
C7     C     0.12061   0.02062   0.26357   0.00000  Uiso   1.00
C8     C     0.12170   0.31117   0.26432   0.00000  Uiso   1.00
C9     C     0.16655   0.29043   0.25092   0.00000  Uiso   1.00
C10    C     0.29985   0.19288   0.28143   0.00000  Uiso   1.00
C11    C     0.01603   0.19265   0.28173   0.00000  Uiso   1.00
C12    C     0.14720   0.16052   0.48792   0.00000  Uiso   1.00
C13    C     0.03374   0.14096   0.21787   0.00000  Uiso   1.00
C14    C     0.31738   0.14081   0.21807   0.00000  Uiso   1.00
C15    C     0.16626   0.08731   0.25062   0.00000  Uiso   1.00
C16    C     0.19286   0.16696   0.15007   0.00000  Uiso   1.00
C17    C     0.26557   0.19066   0.01243   0.00000  Uiso   1.00
C18    C     0.20775   0.16954   0.09344   0.00000  Uiso   1.00
C19    C     0.07899   0.14780   0.43194   0.00000  Uiso   1.00
C20    C     0.06839   0.13380   0.48244   0.00000  Uiso   1.00
C21    C     0.10323   0.13689   0.00920   0.00000  Uiso   1.00
C22    C     0.04958   0.03403   0.24410   0.00000  Uiso   1.00
C23    C     0.15725   0.17538   0.43631   0.00000  Uiso   1.00
C24    C     0.11626   0.07622   0.04374   0.00000  Uiso   1.00
C25    C     0.18243   0.16889   0.01480   0.00000  Uiso   1.00
C26    C     0.22884   0.18624   0.48789   0.00000  Uiso   1.00
C27    C     0.23675   0.20183   0.43823   0.00000  Uiso   1.00
C28    C     0.20002   0.19907   0.41454   0.00000  Uiso   1.00
C29    C     0.17194   0.16347   0.06834   0.00000  Uiso   1.00
C30    C     0.25536   0.18142   0.06489   0.00000  Uiso   1.00
Cu31   Cu    0.11978   0.16666   0.25000   0.00000  Uiso   1.00
Cu32   Cu    0.21355   0.16667   0.25000   0.00000  Uiso   1.00
H33    H     0.28355   0.18627   0.08372   0.00000  Uiso   1.00
H34    H     0.13494   0.15767   0.09204   0.00000  Uiso   1.00
H35    H     0.05286   0.14136   0.41089   0.00000  Uiso   1.00
H36    H     0.03427   0.11738   0.49963   0.00000  Uiso   1.00
H37    H     0.20557   0.21589   0.37888   0.00000  Uiso   1.00
H38    H     0.24586   0.29661   0.22800   0.00000  Uiso   1.00
H39    H     0.07204   0.04157   0.20372   0.00000  Uiso   1.00
H40    H     0.01708   0.05448   0.25423   0.00000  Uiso   1.00
H41    H     0.03562   0.00192   0.24620   0.00000  Uiso   1.00
H42    H     0.15682   0.07908   0.02664   0.00000  Uiso   1.00
H43    H     0.10043   0.05809   0.01748   0.00000  Uiso   1.00
H44    H     0.24507   0.03786   0.22861   0.00000  Uiso   1.00
H45    H     0.10915   0.05888   0.08058   0.00000  Uiso   1.00
H46    H     0.08739   0.29419   0.27626   0.00000  Uiso   1.00
H47    H     0.27442   0.21422   0.30612   0.00000  Uiso   1.00
H48    H     0.02771   0.21347   0.30713   0.00000  Uiso   1.00
H49    H     0.05963   0.12044   0.19205   0.00000  Uiso   1.00
H50    H     0.30574   0.12008   0.19255   0.00000  Uiso   1.00
H51    H     0.27048   0.21807   0.41868   0.00000  Uiso   1.00
H52    H     0.30153   0.20272   0.49153   0.00000  Uiso   1.00
N53    N     0.04931   0.16666   0.24998   0.00000  Uiso   1.00
N54    N     0.28402   0.16669   0.24999   0.00000  Uiso   1.00
O55    O     0.12708   0.22678   0.25000   0.00000  Uiso   1.00
O56    O     0.09378   0.11507   0.05492   0.00000  Uiso   1.00
O57    O     0.20627   0.22679   0.25000   0.00000  Uiso   1.00
O58    O     0.10775   0.16665   0.32549   0.00000  Uiso   1.00
O59    O     0.18694   0.16666   0.32549   0.00000  Uiso   1.00
O60    O     0.12706   0.10654   0.24999   0.00000  Uiso   1.00
O61    O     0.20625   0.10655   0.24999   0.00000  Uiso   1.00
O62    O     0.14640   0.16667   0.17451   0.00000  Uiso   1.00
O63    O     0.22559   0.16668   0.17451   0.00000  Uiso   1.00
O64    O     0.07601   0.04095   0.28001   0.00000  Uiso   1.00
C65    C     0.50004   0.24593   0.25030   0.00000  Uiso   1.00
C66    C     0.45796   0.16583   0.40722   0.00000  Uiso   1.00
C67    C     0.54418   0.31231   0.23836   0.00000  Uiso   1.00
C68    C     0.47375   0.16806   0.35009   0.00000  Uiso   1.00
C69    C     0.54364   0.02150   0.23869   0.00000  Uiso   1.00
C70    C     0.49883   0.04258   0.25125   0.00000  Uiso   1.00
C71    C     0.45394   0.02062   0.26357   0.00000  Uiso   1.00
C72    C     0.45504   0.31117   0.26432   0.00000  Uiso   1.00
C73    C     0.49988   0.29043   0.25092   0.00000  Uiso   1.00
C74    C     0.63318   0.19288   0.28143   0.00000  Uiso   1.00
C75    C     0.34937   0.19265   0.28173   0.00000  Uiso   1.00
C76    C     0.48054   0.16052   0.48792   0.00000  Uiso   1.00
C77    C     0.36707   0.14096   0.21787   0.00000  Uiso   1.00
C78    C     0.65071   0.14081   0.21807   0.00000  Uiso   1.00
C79    C     0.49959   0.08731   0.25062   0.00000  Uiso   1.00
C80    C     0.52620   0.16696   0.15007   0.00000  Uiso   1.00
C81    C     0.59890   0.19066   0.01243   0.00000  Uiso   1.00
C82    C     0.54109   0.16954   0.09344   0.00000  Uiso   1.00
C83    C     0.41232   0.14780   0.43194   0.00000  Uiso   1.00
C84    C     0.40173   0.13380   0.48244   0.00000  Uiso   1.00
C85    C     0.43656   0.13689   0.00920   0.00000  Uiso   1.00
C86    C     0.38291   0.03403   0.24410   0.00000  Uiso   1.00
C87    C     0.49058   0.17538   0.43631   0.00000  Uiso   1.00
C88    C     0.44959   0.07622   0.04374   0.00000  Uiso   1.00
C89    C     0.51576   0.16889   0.01480   0.00000  Uiso   1.00
C90    C     0.56218   0.18624   0.48789   0.00000  Uiso   1.00
C91    C     0.57008   0.20183   0.43823   0.00000  Uiso   1.00
C92    C     0.53335   0.19907   0.41454   0.00000  Uiso   1.00
C93    C     0.50527   0.16347   0.06834   0.00000  Uiso   1.00
C94    C     0.58869   0.18142   0.06489   0.00000  Uiso   1.00
Cu95   Cu    0.45311   0.16666   0.25000   0.00000  Uiso   1.00
Cu96   Cu    0.54689   0.16667   0.25000   0.00000  Uiso   1.00
H97    H     0.61689   0.18627   0.08372   0.00000  Uiso   1.00
H98    H     0.46827   0.15767   0.09204   0.00000  Uiso   1.00
H99    H     0.38619   0.14136   0.41089   0.00000  Uiso   1.00
H100   H     0.36761   0.11738   0.49963   0.00000  Uiso   1.00
H101   H     0.53890   0.21589   0.37888   0.00000  Uiso   1.00
H102   H     0.57919   0.29661   0.22800   0.00000  Uiso   1.00
H103   H     0.40538   0.04157   0.20372   0.00000  Uiso   1.00
H104   H     0.35041   0.05448   0.25423   0.00000  Uiso   1.00
H105   H     0.36896   0.00192   0.24620   0.00000  Uiso   1.00
H106   H     0.49015   0.07908   0.02664   0.00000  Uiso   1.00
H107   H     0.43376   0.05809   0.01748   0.00000  Uiso   1.00
H108   H     0.57841   0.03786   0.22861   0.00000  Uiso   1.00
H109   H     0.44248   0.05888   0.08058   0.00000  Uiso   1.00
H110   H     0.42072   0.29419   0.27626   0.00000  Uiso   1.00
H111   H     0.60775   0.21422   0.30612   0.00000  Uiso   1.00
H112   H     0.36104   0.21347   0.30713   0.00000  Uiso   1.00
H113   H     0.39297   0.12044   0.19205   0.00000  Uiso   1.00
H114   H     0.63907   0.12008   0.19255   0.00000  Uiso   1.00
H115   H     0.60381   0.21807   0.41868   0.00000  Uiso   1.00
H116   H     0.63487   0.20272   0.49153   0.00000  Uiso   1.00
N117   N     0.38265   0.16666   0.24998   0.00000  Uiso   1.00
N118   N     0.61735   0.16669   0.24999   0.00000  Uiso   1.00
O119   O     0.46042   0.22678   0.25000   0.00000  Uiso   1.00
O120   O     0.42711   0.11507   0.05492   0.00000  Uiso   1.00
O121   O     0.53961   0.22679   0.25000   0.00000  Uiso   1.00
O122   O     0.44108   0.16665   0.32549   0.00000  Uiso   1.00
O123   O     0.52027   0.16666   0.32549   0.00000  Uiso   1.00
O124   O     0.46039   0.10654   0.24999   0.00000  Uiso   1.00
O125   O     0.53958   0.10655   0.24999   0.00000  Uiso   1.00
O126   O     0.47973   0.16667   0.17451   0.00000  Uiso   1.00
O127   O     0.55892   0.16668   0.17451   0.00000  Uiso   1.00
O128   O     0.40934   0.04095   0.28001   0.00000  Uiso   1.00
C129   C     0.83338   0.24593   0.25030   0.00000  Uiso   1.00
C130   C     0.79130   0.16583   0.40722   0.00000  Uiso   1.00
C131   C     0.87751   0.31231   0.23836   0.00000  Uiso   1.00
C132   C     0.80709   0.16806   0.35009   0.00000  Uiso   1.00
C133   C     0.87697   0.02150   0.23869   0.00000  Uiso   1.00
C134   C     0.83216   0.04258   0.25125   0.00000  Uiso   1.00
C135   C     0.78728   0.02062   0.26357   0.00000  Uiso   1.00
C136   C     0.78837   0.31117   0.26432   0.00000  Uiso   1.00
C137   C     0.83322   0.29043   0.25092   0.00000  Uiso   1.00
C138   C     0.96652   0.19288   0.28143   0.00000  Uiso   1.00
C139   C     0.68270   0.19265   0.28173   0.00000  Uiso   1.00
C140   C     0.81387   0.16052   0.48792   0.00000  Uiso   1.00
C141   C     0.70040   0.14096   0.21787   0.00000  Uiso   1.00
C142   C     0.98404   0.14081   0.21807   0.00000  Uiso   1.00
C143   C     0.83292   0.08731   0.25062   0.00000  Uiso   1.00
C144   C     0.85953   0.16696   0.15007   0.00000  Uiso   1.00
C145   C     0.93224   0.19066   0.01243   0.00000  Uiso   1.00
C146   C     0.87442   0.16954   0.09344   0.00000  Uiso   1.00
C147   C     0.74566   0.14780   0.43194   0.00000  Uiso   1.00
C148   C     0.73506   0.13380   0.48244   0.00000  Uiso   1.00
C149   C     0.76990   0.13689   0.00920   0.00000  Uiso   1.00
C150   C     0.71625   0.03403   0.24410   0.00000  Uiso   1.00
C151   C     0.82392   0.17538   0.43631   0.00000  Uiso   1.00
C152   C     0.78292   0.07622   0.04374   0.00000  Uiso   1.00
C153   C     0.84910   0.16889   0.01480   0.00000  Uiso   1.00
C154   C     0.89551   0.18624   0.48789   0.00000  Uiso   1.00
C155   C     0.90342   0.20183   0.43823   0.00000  Uiso   1.00
C156   C     0.86669   0.19907   0.41454   0.00000  Uiso   1.00
C157   C     0.83861   0.16347   0.06834   0.00000  Uiso   1.00
C158   C     0.92203   0.18142   0.06489   0.00000  Uiso   1.00
Cu159  Cu    0.78645   0.16666   0.25000   0.00000  Uiso   1.00
Cu160  Cu    0.88022   0.16667   0.25000   0.00000  Uiso   1.00
H161   H     0.95022   0.18627   0.08372   0.00000  Uiso   1.00
H162   H     0.80161   0.15767   0.09204   0.00000  Uiso   1.00
H163   H     0.71953   0.14136   0.41089   0.00000  Uiso   1.00
H164   H     0.70094   0.11738   0.49963   0.00000  Uiso   1.00
H165   H     0.87223   0.21589   0.37888   0.00000  Uiso   1.00
H166   H     0.91253   0.29661   0.22800   0.00000  Uiso   1.00
H167   H     0.73871   0.04157   0.20372   0.00000  Uiso   1.00
H168   H     0.68375   0.05448   0.25423   0.00000  Uiso   1.00
H169   H     0.70229   0.00192   0.24620   0.00000  Uiso   1.00
H170   H     0.82348   0.07908   0.02664   0.00000  Uiso   1.00
H171   H     0.76709   0.05809   0.01748   0.00000  Uiso   1.00
H172   H     0.91174   0.03786   0.22861   0.00000  Uiso   1.00
H173   H     0.77581   0.05888   0.08058   0.00000  Uiso   1.00
H174   H     0.75406   0.29419   0.27626   0.00000  Uiso   1.00
H175   H     0.94108   0.21422   0.30612   0.00000  Uiso   1.00
H176   H     0.69438   0.21347   0.30713   0.00000  Uiso   1.00
H177   H     0.72630   0.12044   0.19205   0.00000  Uiso   1.00
H178   H     0.97241   0.12008   0.19255   0.00000  Uiso   1.00
H179   H     0.93714   0.21807   0.41868   0.00000  Uiso   1.00
H180   H     0.96820   0.20272   0.49153   0.00000  Uiso   1.00
N181   N     0.71598   0.16666   0.24998   0.00000  Uiso   1.00
N182   N     0.95069   0.16669   0.24999   0.00000  Uiso   1.00
O183   O     0.79375   0.22678   0.25000   0.00000  Uiso   1.00
O184   O     0.76045   0.11507   0.05492   0.00000  Uiso   1.00
O185   O     0.87294   0.22679   0.25000   0.00000  Uiso   1.00
O186   O     0.77441   0.16665   0.32549   0.00000  Uiso   1.00
O187   O     0.85360   0.16666   0.32549   0.00000  Uiso   1.00
O188   O     0.79373   0.10654   0.24999   0.00000  Uiso   1.00
O189   O     0.87292   0.10655   0.24999   0.00000  Uiso   1.00
O190   O     0.81306   0.16667   0.17451   0.00000  Uiso   1.00
O191   O     0.89225   0.16668   0.17451   0.00000  Uiso   1.00
O192   O     0.74267   0.04095   0.28001   0.00000  Uiso   1.00
C193   C     0.16671   0.57926   0.25030   0.00000  Uiso   1.00
C194   C     0.12463   0.49917   0.40722   0.00000  Uiso   1.00
C195   C     0.21084   0.64564   0.23836   0.00000  Uiso   1.00
C196   C     0.14042   0.50139   0.35009   0.00000  Uiso   1.00
C197   C     0.21031   0.35483   0.23869   0.00000  Uiso   1.00
C198   C     0.16549   0.37592   0.25125   0.00000  Uiso   1.00
C199   C     0.12061   0.35395   0.26357   0.00000  Uiso   1.00
C200   C     0.12170   0.64450   0.26432   0.00000  Uiso   1.00
C201   C     0.16655   0.62376   0.25092   0.00000  Uiso   1.00
C202   C     0.29985   0.52621   0.28143   0.00000  Uiso   1.00
C203   C     0.01603   0.52598   0.28173   0.00000  Uiso   1.00
C204   C     0.14720   0.49385   0.48792   0.00000  Uiso   1.00
C205   C     0.03374   0.47429   0.21787   0.00000  Uiso   1.00
C206   C     0.31738   0.47414   0.21807   0.00000  Uiso   1.00
C207   C     0.16626   0.42065   0.25062   0.00000  Uiso   1.00
C208   C     0.19286   0.50029   0.15007   0.00000  Uiso   1.00
C209   C     0.26557   0.52399   0.01243   0.00000  Uiso   1.00
C210   C     0.20775   0.50288   0.09344   0.00000  Uiso   1.00
C211   C     0.07899   0.48113   0.43194   0.00000  Uiso   1.00
C212   C     0.06839   0.46713   0.48244   0.00000  Uiso   1.00
C213   C     0.10323   0.47022   0.00920   0.00000  Uiso   1.00
C214   C     0.04958   0.36736   0.24410   0.00000  Uiso   1.00
C215   C     0.15725   0.50871   0.43631   0.00000  Uiso   1.00
C216   C     0.11626   0.40955   0.04374   0.00000  Uiso   1.00
C217   C     0.18243   0.50222   0.01480   0.00000  Uiso   1.00
C218   C     0.22884   0.51957   0.48789   0.00000  Uiso   1.00
C219   C     0.23675   0.53516   0.43823   0.00000  Uiso   1.00
C220   C     0.20002   0.53241   0.41454   0.00000  Uiso   1.00
C221   C     0.17194   0.49680   0.06834   0.00000  Uiso   1.00
C222   C     0.25536   0.51475   0.06489   0.00000  Uiso   1.00
Cu223  Cu    0.11978   0.49999   0.25000   0.00000  Uiso   1.00
Cu224  Cu    0.21355   0.50001   0.25000   0.00000  Uiso   1.00
H225   H     0.28355   0.51961   0.08372   0.00000  Uiso   1.00
H226   H     0.13494   0.49101   0.09204   0.00000  Uiso   1.00
H227   H     0.05286   0.47469   0.41089   0.00000  Uiso   1.00
H228   H     0.03427   0.45071   0.49963   0.00000  Uiso   1.00
H229   H     0.20557   0.54922   0.37888   0.00000  Uiso   1.00
H230   H     0.24586   0.62994   0.22800   0.00000  Uiso   1.00
H231   H     0.07204   0.37490   0.20372   0.00000  Uiso   1.00
H232   H     0.01708   0.38781   0.25423   0.00000  Uiso   1.00
H233   H     0.03562   0.33525   0.24620   0.00000  Uiso   1.00
H234   H     0.15682   0.41242   0.02664   0.00000  Uiso   1.00
H235   H     0.10043   0.39142   0.01748   0.00000  Uiso   1.00
H236   H     0.24507   0.37119   0.22861   0.00000  Uiso   1.00
H237   H     0.10915   0.39222   0.08058   0.00000  Uiso   1.00
H238   H     0.08739   0.62753   0.27626   0.00000  Uiso   1.00
H239   H     0.27442   0.54755   0.30612   0.00000  Uiso   1.00
H240   H     0.02771   0.54681   0.30713   0.00000  Uiso   1.00
H241   H     0.05963   0.45377   0.19205   0.00000  Uiso   1.00
H242   H     0.30574   0.45341   0.19255   0.00000  Uiso   1.00
H243   H     0.27048   0.55140   0.41868   0.00000  Uiso   1.00
H244   H     0.30153   0.53605   0.49153   0.00000  Uiso   1.00
N245   N     0.04931   0.49999   0.24998   0.00000  Uiso   1.00
N246   N     0.28402   0.50002   0.24999   0.00000  Uiso   1.00
O247   O     0.12708   0.56011   0.25000   0.00000  Uiso   1.00
O248   O     0.09378   0.44840   0.05492   0.00000  Uiso   1.00
O249   O     0.20627   0.56012   0.25000   0.00000  Uiso   1.00
O250   O     0.10775   0.49998   0.32549   0.00000  Uiso   1.00
O251   O     0.18694   0.49999   0.32549   0.00000  Uiso   1.00
O252   O     0.12706   0.43988   0.24999   0.00000  Uiso   1.00
O253   O     0.20625   0.43989   0.24999   0.00000  Uiso   1.00
O254   O     0.14640   0.50001   0.17451   0.00000  Uiso   1.00
O255   O     0.22559   0.50002   0.17451   0.00000  Uiso   1.00
O256   O     0.07601   0.37429   0.28001   0.00000  Uiso   1.00
C257   C     0.50004   0.57926   0.25030   0.00000  Uiso   1.00
C258   C     0.45796   0.49917   0.40722   0.00000  Uiso   1.00
C259   C     0.54418   0.64564   0.23836   0.00000  Uiso   1.00
C260   C     0.47375   0.50139   0.35009   0.00000  Uiso   1.00
C261   C     0.54364   0.35483   0.23869   0.00000  Uiso   1.00
C262   C     0.49883   0.37592   0.25125   0.00000  Uiso   1.00
C263   C     0.45394   0.35395   0.26357   0.00000  Uiso   1.00
C264   C     0.45504   0.64450   0.26432   0.00000  Uiso   1.00
C265   C     0.49988   0.62376   0.25092   0.00000  Uiso   1.00
C266   C     0.63318   0.52621   0.28143   0.00000  Uiso   1.00
C267   C     0.34937   0.52598   0.28173   0.00000  Uiso   1.00
C268   C     0.48054   0.49385   0.48792   0.00000  Uiso   1.00
C269   C     0.36707   0.47429   0.21787   0.00000  Uiso   1.00
C270   C     0.65071   0.47414   0.21807   0.00000  Uiso   1.00
C271   C     0.49959   0.42065   0.25062   0.00000  Uiso   1.00
C272   C     0.52620   0.50029   0.15007   0.00000  Uiso   1.00
C273   C     0.59890   0.52399   0.01243   0.00000  Uiso   1.00
C274   C     0.54109   0.50288   0.09344   0.00000  Uiso   1.00
C275   C     0.41232   0.48113   0.43194   0.00000  Uiso   1.00
C276   C     0.40173   0.46713   0.48244   0.00000  Uiso   1.00
C277   C     0.43656   0.47022   0.00920   0.00000  Uiso   1.00
C278   C     0.38291   0.36736   0.24410   0.00000  Uiso   1.00
C279   C     0.49058   0.50871   0.43631   0.00000  Uiso   1.00
C280   C     0.44959   0.40955   0.04374   0.00000  Uiso   1.00
C281   C     0.51576   0.50222   0.01480   0.00000  Uiso   1.00
C282   C     0.56218   0.51957   0.48789   0.00000  Uiso   1.00
C283   C     0.57008   0.53516   0.43823   0.00000  Uiso   1.00
C284   C     0.53335   0.53241   0.41454   0.00000  Uiso   1.00
C285   C     0.50527   0.49680   0.06834   0.00000  Uiso   1.00
C286   C     0.58869   0.51475   0.06489   0.00000  Uiso   1.00
Cu287  Cu    0.45311   0.49999   0.25000   0.00000  Uiso   1.00
Cu288  Cu    0.54689   0.50001   0.25000   0.00000  Uiso   1.00
H289   H     0.61689   0.51961   0.08372   0.00000  Uiso   1.00
H290   H     0.46827   0.49101   0.09204   0.00000  Uiso   1.00
H291   H     0.38619   0.47469   0.41089   0.00000  Uiso   1.00
H292   H     0.36761   0.45071   0.49963   0.00000  Uiso   1.00
H293   H     0.53890   0.54922   0.37888   0.00000  Uiso   1.00
H294   H     0.57919   0.62994   0.22800   0.00000  Uiso   1.00
H295   H     0.40538   0.37490   0.20372   0.00000  Uiso   1.00
H296   H     0.35041   0.38781   0.25423   0.00000  Uiso   1.00
H297   H     0.36896   0.33525   0.24620   0.00000  Uiso   1.00
H298   H     0.49015   0.41242   0.02664   0.00000  Uiso   1.00
H299   H     0.43376   0.39142   0.01748   0.00000  Uiso   1.00
H300   H     0.57841   0.37119   0.22861   0.00000  Uiso   1.00
H301   H     0.44248   0.39222   0.08058   0.00000  Uiso   1.00
H302   H     0.42072   0.62753   0.27626   0.00000  Uiso   1.00
H303   H     0.60775   0.54755   0.30612   0.00000  Uiso   1.00
H304   H     0.36104   0.54681   0.30713   0.00000  Uiso   1.00
H305   H     0.39297   0.45377   0.19205   0.00000  Uiso   1.00
H306   H     0.63907   0.45341   0.19255   0.00000  Uiso   1.00
H307   H     0.60381   0.55140   0.41868   0.00000  Uiso   1.00
H308   H     0.63487   0.53605   0.49153   0.00000  Uiso   1.00
N309   N     0.38265   0.49999   0.24998   0.00000  Uiso   1.00
N310   N     0.61735   0.50002   0.24999   0.00000  Uiso   1.00
O311   O     0.46042   0.56011   0.25000   0.00000  Uiso   1.00
O312   O     0.42711   0.44840   0.05492   0.00000  Uiso   1.00
O313   O     0.53961   0.56012   0.25000   0.00000  Uiso   1.00
O314   O     0.44108   0.49998   0.32549   0.00000  Uiso   1.00
O315   O     0.52027   0.49999   0.32549   0.00000  Uiso   1.00
O316   O     0.46039   0.43988   0.24999   0.00000  Uiso   1.00
O317   O     0.53958   0.43989   0.24999   0.00000  Uiso   1.00
O318   O     0.47973   0.50001   0.17451   0.00000  Uiso   1.00
O319   O     0.55892   0.50002   0.17451   0.00000  Uiso   1.00
O320   O     0.40934   0.37429   0.28001   0.00000  Uiso   1.00
C321   C     0.83338   0.57926   0.25030   0.00000  Uiso   1.00
C322   C     0.79130   0.49917   0.40722   0.00000  Uiso   1.00
C323   C     0.87751   0.64564   0.23836   0.00000  Uiso   1.00
C324   C     0.80709   0.50139   0.35009   0.00000  Uiso   1.00
C325   C     0.87697   0.35483   0.23869   0.00000  Uiso   1.00
C326   C     0.83216   0.37592   0.25125   0.00000  Uiso   1.00
C327   C     0.78728   0.35395   0.26357   0.00000  Uiso   1.00
C328   C     0.78837   0.64450   0.26432   0.00000  Uiso   1.00
C329   C     0.83322   0.62376   0.25092   0.00000  Uiso   1.00
C330   C     0.96652   0.52621   0.28143   0.00000  Uiso   1.00
C331   C     0.68270   0.52598   0.28173   0.00000  Uiso   1.00
C332   C     0.81387   0.49385   0.48792   0.00000  Uiso   1.00
C333   C     0.70040   0.47429   0.21787   0.00000  Uiso   1.00
C334   C     0.98404   0.47414   0.21807   0.00000  Uiso   1.00
C335   C     0.83292   0.42065   0.25062   0.00000  Uiso   1.00
C336   C     0.85953   0.50029   0.15007   0.00000  Uiso   1.00
C337   C     0.93224   0.52399   0.01243   0.00000  Uiso   1.00
C338   C     0.87442   0.50288   0.09344   0.00000  Uiso   1.00
C339   C     0.74566   0.48113   0.43194   0.00000  Uiso   1.00
C340   C     0.73506   0.46713   0.48244   0.00000  Uiso   1.00
C341   C     0.76990   0.47022   0.00920   0.00000  Uiso   1.00
C342   C     0.71625   0.36736   0.24410   0.00000  Uiso   1.00
C343   C     0.82392   0.50871   0.43631   0.00000  Uiso   1.00
C344   C     0.78292   0.40955   0.04374   0.00000  Uiso   1.00
C345   C     0.84910   0.50222   0.01480   0.00000  Uiso   1.00
C346   C     0.89551   0.51957   0.48789   0.00000  Uiso   1.00
C347   C     0.90342   0.53516   0.43823   0.00000  Uiso   1.00
C348   C     0.86669   0.53241   0.41454   0.00000  Uiso   1.00
C349   C     0.83861   0.49680   0.06834   0.00000  Uiso   1.00
C350   C     0.92203   0.51475   0.06489   0.00000  Uiso   1.00
Cu351  Cu    0.78645   0.49999   0.25000   0.00000  Uiso   1.00
Cu352  Cu    0.88022   0.50001   0.25000   0.00000  Uiso   1.00
H353   H     0.95022   0.51961   0.08372   0.00000  Uiso   1.00
H354   H     0.80161   0.49101   0.09204   0.00000  Uiso   1.00
H355   H     0.71953   0.47469   0.41089   0.00000  Uiso   1.00
H356   H     0.70094   0.45071   0.49963   0.00000  Uiso   1.00
H357   H     0.87223   0.54922   0.37888   0.00000  Uiso   1.00
H358   H     0.91253   0.62994   0.22800   0.00000  Uiso   1.00
H359   H     0.73871   0.37490   0.20372   0.00000  Uiso   1.00
H360   H     0.68375   0.38781   0.25423   0.00000  Uiso   1.00
H361   H     0.70229   0.33525   0.24620   0.00000  Uiso   1.00
H362   H     0.82348   0.41242   0.02664   0.00000  Uiso   1.00
H363   H     0.76709   0.39142   0.01748   0.00000  Uiso   1.00
H364   H     0.91174   0.37119   0.22861   0.00000  Uiso   1.00
H365   H     0.77581   0.39222   0.08058   0.00000  Uiso   1.00
H366   H     0.75406   0.62753   0.27626   0.00000  Uiso   1.00
H367   H     0.94108   0.54755   0.30612   0.00000  Uiso   1.00
H368   H     0.69438   0.54681   0.30713   0.00000  Uiso   1.00
H369   H     0.72630   0.45377   0.19205   0.00000  Uiso   1.00
H370   H     0.97241   0.45341   0.19255   0.00000  Uiso   1.00
H371   H     0.93714   0.55140   0.41868   0.00000  Uiso   1.00
H372   H     0.96820   0.53605   0.49153   0.00000  Uiso   1.00
N373   N     0.71598   0.49999   0.24998   0.00000  Uiso   1.00
N374   N     0.95069   0.50002   0.24999   0.00000  Uiso   1.00
O375   O     0.79375   0.56011   0.25000   0.00000  Uiso   1.00
O376   O     0.76045   0.44840   0.05492   0.00000  Uiso   1.00
O377   O     0.87294   0.56012   0.25000   0.00000  Uiso   1.00
O378   O     0.77441   0.49998   0.32549   0.00000  Uiso   1.00
O379   O     0.85360   0.49999   0.32549   0.00000  Uiso   1.00
O380   O     0.79373   0.43988   0.24999   0.00000  Uiso   1.00
O381   O     0.87292   0.43989   0.24999   0.00000  Uiso   1.00
O382   O     0.81306   0.50001   0.17451   0.00000  Uiso   1.00
O383   O     0.89225   0.50002   0.17451   0.00000  Uiso   1.00
O384   O     0.74267   0.37429   0.28001   0.00000  Uiso   1.00
C385   C     0.16671   0.91259   0.25030   0.00000  Uiso   1.00
C386   C     0.12463   0.83250   0.40722   0.00000  Uiso   1.00
C387   C     0.21084   0.97897   0.23836   0.00000  Uiso   1.00
C388   C     0.14042   0.83472   0.35009   0.00000  Uiso   1.00
C389   C     0.21031   0.68817   0.23869   0.00000  Uiso   1.00
C390   C     0.16549   0.70925   0.25125   0.00000  Uiso   1.00
C391   C     0.12061   0.68728   0.26357   0.00000  Uiso   1.00
C392   C     0.12170   0.97784   0.26432   0.00000  Uiso   1.00
C393   C     0.16655   0.95709   0.25092   0.00000  Uiso   1.00
C394   C     0.29985   0.85954   0.28143   0.00000  Uiso   1.00
C395   C     0.01603   0.85931   0.28173   0.00000  Uiso   1.00
C396   C     0.14720   0.82718   0.48792   0.00000  Uiso   1.00
C397   C     0.03374   0.80762   0.21787   0.00000  Uiso   1.00
C398   C     0.31738   0.80748   0.21807   0.00000  Uiso   1.00
C399   C     0.16626   0.75398   0.25062   0.00000  Uiso   1.00
C400   C     0.19286   0.83363   0.15007   0.00000  Uiso   1.00
C401   C     0.26557   0.85732   0.01243   0.00000  Uiso   1.00
C402   C     0.20775   0.83621   0.09344   0.00000  Uiso   1.00
C403   C     0.07899   0.81446   0.43194   0.00000  Uiso   1.00
C404   C     0.06839   0.80047   0.48244   0.00000  Uiso   1.00
C405   C     0.10323   0.80355   0.00920   0.00000  Uiso   1.00
C406   C     0.04958   0.70070   0.24410   0.00000  Uiso   1.00
C407   C     0.15725   0.84205   0.43631   0.00000  Uiso   1.00
C408   C     0.11626   0.74288   0.04374   0.00000  Uiso   1.00
C409   C     0.18243   0.83556   0.01480   0.00000  Uiso   1.00
C410   C     0.22884   0.85290   0.48789   0.00000  Uiso   1.00
C411   C     0.23675   0.86850   0.43823   0.00000  Uiso   1.00
C412   C     0.20002   0.86574   0.41454   0.00000  Uiso   1.00
C413   C     0.17194   0.83013   0.06834   0.00000  Uiso   1.00
C414   C     0.25536   0.84808   0.06489   0.00000  Uiso   1.00
Cu415  Cu    0.11978   0.83333   0.25000   0.00000  Uiso   1.00
Cu416  Cu    0.21355   0.83334   0.25000   0.00000  Uiso   1.00
H417   H     0.28355   0.85294   0.08372   0.00000  Uiso   1.00
H418   H     0.13494   0.82434   0.09204   0.00000  Uiso   1.00
H419   H     0.05286   0.80802   0.41089   0.00000  Uiso   1.00
H420   H     0.03427   0.78404   0.49963   0.00000  Uiso   1.00
H421   H     0.20557   0.88256   0.37888   0.00000  Uiso   1.00
H422   H     0.24586   0.96327   0.22800   0.00000  Uiso   1.00
H423   H     0.07204   0.70823   0.20372   0.00000  Uiso   1.00
H424   H     0.01708   0.72115   0.25423   0.00000  Uiso   1.00
H425   H     0.03562   0.66859   0.24620   0.00000  Uiso   1.00
H426   H     0.15682   0.74575   0.02664   0.00000  Uiso   1.00
H427   H     0.10043   0.72476   0.01748   0.00000  Uiso   1.00
H428   H     0.24507   0.70453   0.22861   0.00000  Uiso   1.00
H429   H     0.10915   0.72555   0.08058   0.00000  Uiso   1.00
H430   H     0.08739   0.96086   0.27626   0.00000  Uiso   1.00
H431   H     0.27442   0.88089   0.30612   0.00000  Uiso   1.00
H432   H     0.02771   0.88014   0.30713   0.00000  Uiso   1.00
H433   H     0.05963   0.78710   0.19205   0.00000  Uiso   1.00
H434   H     0.30574   0.78675   0.19255   0.00000  Uiso   1.00
H435   H     0.27048   0.88474   0.41868   0.00000  Uiso   1.00
H436   H     0.30153   0.86938   0.49153   0.00000  Uiso   1.00
N437   N     0.04931   0.83332   0.24998   0.00000  Uiso   1.00
N438   N     0.28402   0.83335   0.24999   0.00000  Uiso   1.00
O439   O     0.12708   0.89345   0.25000   0.00000  Uiso   1.00
O440   O     0.09378   0.78174   0.05492   0.00000  Uiso   1.00
O441   O     0.20627   0.89346   0.25000   0.00000  Uiso   1.00
O442   O     0.10775   0.83332   0.32549   0.00000  Uiso   1.00
O443   O     0.18694   0.83333   0.32549   0.00000  Uiso   1.00
O444   O     0.12706   0.77321   0.24999   0.00000  Uiso   1.00
O445   O     0.20625   0.77322   0.24999   0.00000  Uiso   1.00
O446   O     0.14640   0.83334   0.17451   0.00000  Uiso   1.00
O447   O     0.22559   0.83335   0.17451   0.00000  Uiso   1.00
O448   O     0.07601   0.70762   0.28001   0.00000  Uiso   1.00
C449   C     0.50004   0.91259   0.25030   0.00000  Uiso   1.00
C450   C     0.45796   0.83250   0.40722   0.00000  Uiso   1.00
C451   C     0.54418   0.97897   0.23836   0.00000  Uiso   1.00
C452   C     0.47375   0.83472   0.35009   0.00000  Uiso   1.00
C453   C     0.54364   0.68817   0.23869   0.00000  Uiso   1.00
C454   C     0.49883   0.70925   0.25125   0.00000  Uiso   1.00
C455   C     0.45394   0.68728   0.26357   0.00000  Uiso   1.00
C456   C     0.45504   0.97784   0.26432   0.00000  Uiso   1.00
C457   C     0.49988   0.95709   0.25092   0.00000  Uiso   1.00
C458   C     0.63318   0.85954   0.28143   0.00000  Uiso   1.00
C459   C     0.34937   0.85931   0.28173   0.00000  Uiso   1.00
C460   C     0.48054   0.82718   0.48792   0.00000  Uiso   1.00
C461   C     0.36707   0.80762   0.21787   0.00000  Uiso   1.00
C462   C     0.65071   0.80748   0.21807   0.00000  Uiso   1.00
C463   C     0.49959   0.75398   0.25062   0.00000  Uiso   1.00
C464   C     0.52620   0.83363   0.15007   0.00000  Uiso   1.00
C465   C     0.59890   0.85732   0.01243   0.00000  Uiso   1.00
C466   C     0.54109   0.83621   0.09344   0.00000  Uiso   1.00
C467   C     0.41232   0.81446   0.43194   0.00000  Uiso   1.00
C468   C     0.40173   0.80047   0.48244   0.00000  Uiso   1.00
C469   C     0.43656   0.80355   0.00920   0.00000  Uiso   1.00
C470   C     0.38291   0.70070   0.24410   0.00000  Uiso   1.00
C471   C     0.49058   0.84205   0.43631   0.00000  Uiso   1.00
C472   C     0.44959   0.74288   0.04374   0.00000  Uiso   1.00
C473   C     0.51576   0.83556   0.01480   0.00000  Uiso   1.00
C474   C     0.56218   0.85290   0.48789   0.00000  Uiso   1.00
C475   C     0.57008   0.86850   0.43823   0.00000  Uiso   1.00
C476   C     0.53335   0.86574   0.41454   0.00000  Uiso   1.00
C477   C     0.50527   0.83013   0.06834   0.00000  Uiso   1.00
C478   C     0.58869   0.84808   0.06489   0.00000  Uiso   1.00
Cu479  Cu    0.45311   0.83333   0.25000   0.00000  Uiso   1.00
Cu480  Cu    0.54689   0.83334   0.25000   0.00000  Uiso   1.00
H481   H     0.61689   0.85294   0.08372   0.00000  Uiso   1.00
H482   H     0.46827   0.82434   0.09204   0.00000  Uiso   1.00
H483   H     0.38619   0.80802   0.41089   0.00000  Uiso   1.00
H484   H     0.36761   0.78404   0.49963   0.00000  Uiso   1.00
H485   H     0.53890   0.88256   0.37888   0.00000  Uiso   1.00
H486   H     0.57919   0.96327   0.22800   0.00000  Uiso   1.00
H487   H     0.40538   0.70823   0.20372   0.00000  Uiso   1.00
H488   H     0.35041   0.72115   0.25423   0.00000  Uiso   1.00
H489   H     0.36896   0.66859   0.24620   0.00000  Uiso   1.00
H490   H     0.49015   0.74575   0.02664   0.00000  Uiso   1.00
H491   H     0.43376   0.72476   0.01748   0.00000  Uiso   1.00
H492   H     0.57841   0.70453   0.22861   0.00000  Uiso   1.00
H493   H     0.44248   0.72555   0.08058   0.00000  Uiso   1.00
H494   H     0.42072   0.96086   0.27626   0.00000  Uiso   1.00
H495   H     0.60775   0.88089   0.30612   0.00000  Uiso   1.00
H496   H     0.36104   0.88014   0.30713   0.00000  Uiso   1.00
H497   H     0.39297   0.78710   0.19205   0.00000  Uiso   1.00
H498   H     0.63907   0.78675   0.19255   0.00000  Uiso   1.00
H499   H     0.60381   0.88474   0.41868   0.00000  Uiso   1.00
H500   H     0.63487   0.86938   0.49153   0.00000  Uiso   1.00
N501   N     0.38265   0.83332   0.24998   0.00000  Uiso   1.00
N502   N     0.61735   0.83335   0.24999   0.00000  Uiso   1.00
O503   O     0.46042   0.89345   0.25000   0.00000  Uiso   1.00
O504   O     0.42711   0.78174   0.05492   0.00000  Uiso   1.00
O505   O     0.53961   0.89346   0.25000   0.00000  Uiso   1.00
O506   O     0.44108   0.83332   0.32549   0.00000  Uiso   1.00
O507   O     0.52027   0.83333   0.32549   0.00000  Uiso   1.00
O508   O     0.46039   0.77321   0.24999   0.00000  Uiso   1.00
O509   O     0.53958   0.77322   0.24999   0.00000  Uiso   1.00
O510   O     0.47973   0.83334   0.17451   0.00000  Uiso   1.00
O511   O     0.55892   0.83335   0.17451   0.00000  Uiso   1.00
O512   O     0.40934   0.70762   0.28001   0.00000  Uiso   1.00
C513   C     0.83338   0.91259   0.25030   0.00000  Uiso   1.00
C514   C     0.79130   0.83250   0.40722   0.00000  Uiso   1.00
C515   C     0.87751   0.97897   0.23836   0.00000  Uiso   1.00
C516   C     0.80709   0.83472   0.35009   0.00000  Uiso   1.00
C517   C     0.87697   0.68817   0.23869   0.00000  Uiso   1.00
C518   C     0.83216   0.70925   0.25125   0.00000  Uiso   1.00
C519   C     0.78728   0.68728   0.26357   0.00000  Uiso   1.00
C520   C     0.78837   0.97784   0.26432   0.00000  Uiso   1.00
C521   C     0.83322   0.95709   0.25092   0.00000  Uiso   1.00
C522   C     0.96652   0.85954   0.28143   0.00000  Uiso   1.00
C523   C     0.68270   0.85931   0.28173   0.00000  Uiso   1.00
C524   C     0.81387   0.82718   0.48792   0.00000  Uiso   1.00
C525   C     0.70040   0.80762   0.21787   0.00000  Uiso   1.00
C526   C     0.98404   0.80748   0.21807   0.00000  Uiso   1.00
C527   C     0.83292   0.75398   0.25062   0.00000  Uiso   1.00
C528   C     0.85953   0.83363   0.15007   0.00000  Uiso   1.00
C529   C     0.93224   0.85732   0.01243   0.00000  Uiso   1.00
C530   C     0.87442   0.83621   0.09344   0.00000  Uiso   1.00
C531   C     0.74566   0.81446   0.43194   0.00000  Uiso   1.00
C532   C     0.73506   0.80047   0.48244   0.00000  Uiso   1.00
C533   C     0.76990   0.80355   0.00920   0.00000  Uiso   1.00
C534   C     0.71625   0.70070   0.24410   0.00000  Uiso   1.00
C535   C     0.82392   0.84205   0.43631   0.00000  Uiso   1.00
C536   C     0.78292   0.74288   0.04374   0.00000  Uiso   1.00
C537   C     0.84910   0.83556   0.01480   0.00000  Uiso   1.00
C538   C     0.89551   0.85290   0.48789   0.00000  Uiso   1.00
C539   C     0.90342   0.86850   0.43823   0.00000  Uiso   1.00
C540   C     0.86669   0.86574   0.41454   0.00000  Uiso   1.00
C541   C     0.83861   0.83013   0.06834   0.00000  Uiso   1.00
C542   C     0.92203   0.84808   0.06489   0.00000  Uiso   1.00
Cu543  Cu    0.78645   0.83333   0.25000   0.00000  Uiso   1.00
Cu544  Cu    0.88022   0.83334   0.25000   0.00000  Uiso   1.00
H545   H     0.95022   0.85294   0.08372   0.00000  Uiso   1.00
H546   H     0.80161   0.82434   0.09204   0.00000  Uiso   1.00
H547   H     0.71953   0.80802   0.41089   0.00000  Uiso   1.00
H548   H     0.70094   0.78404   0.49963   0.00000  Uiso   1.00
H549   H     0.87223   0.88256   0.37888   0.00000  Uiso   1.00
H550   H     0.91253   0.96327   0.22800   0.00000  Uiso   1.00
H551   H     0.73871   0.70823   0.20372   0.00000  Uiso   1.00
H552   H     0.68375   0.72115   0.25423   0.00000  Uiso   1.00
H553   H     0.70229   0.66859   0.24620   0.00000  Uiso   1.00
H554   H     0.82348   0.74575   0.02664   0.00000  Uiso   1.00
H555   H     0.76709   0.72476   0.01748   0.00000  Uiso   1.00
H556   H     0.91174   0.70453   0.22861   0.00000  Uiso   1.00
H557   H     0.77581   0.72555   0.08058   0.00000  Uiso   1.00
H558   H     0.75406   0.96086   0.27626   0.00000  Uiso   1.00
H559   H     0.94108   0.88089   0.30612   0.00000  Uiso   1.00
H560   H     0.69438   0.88014   0.30713   0.00000  Uiso   1.00
H561   H     0.72630   0.78710   0.19205   0.00000  Uiso   1.00
H562   H     0.97241   0.78675   0.19255   0.00000  Uiso   1.00
H563   H     0.93714   0.88474   0.41868   0.00000  Uiso   1.00
H564   H     0.96820   0.86938   0.49153   0.00000  Uiso   1.00
N565   N     0.71598   0.83332   0.24998   0.00000  Uiso   1.00
N566   N     0.95069   0.83335   0.24999   0.00000  Uiso   1.00
O567   O     0.79375   0.89345   0.25000   0.00000  Uiso   1.00
O568   O     0.76045   0.78174   0.05492   0.00000  Uiso   1.00
O569   O     0.87294   0.89346   0.25000   0.00000  Uiso   1.00
O570   O     0.77441   0.83332   0.32549   0.00000  Uiso   1.00
O571   O     0.85360   0.83333   0.32549   0.00000  Uiso   1.00
O572   O     0.79373   0.77321   0.24999   0.00000  Uiso   1.00
O573   O     0.87292   0.77322   0.24999   0.00000  Uiso   1.00
O574   O     0.81306   0.83334   0.17451   0.00000  Uiso   1.00
O575   O     0.89225   0.83335   0.17451   0.00000  Uiso   1.00
O576   O     0.74267   0.70762   0.28001   0.00000  Uiso   1.00
C577   C     0.16671   0.24593   0.75030   0.00000  Uiso   1.00
C578   C     0.12463   0.16583   0.90722   0.00000  Uiso   1.00
C579   C     0.21084   0.31231   0.73836   0.00000  Uiso   1.00
C580   C     0.14042   0.16806   0.85009   0.00000  Uiso   1.00
C581   C     0.21031   0.02150   0.73869   0.00000  Uiso   1.00
C582   C     0.16549   0.04258   0.75125   0.00000  Uiso   1.00
C583   C     0.12061   0.02062   0.76357   0.00000  Uiso   1.00
C584   C     0.12170   0.31117   0.76432   0.00000  Uiso   1.00
C585   C     0.16655   0.29043   0.75092   0.00000  Uiso   1.00
C586   C     0.29985   0.19288   0.78143   0.00000  Uiso   1.00
C587   C     0.01603   0.19265   0.78173   0.00000  Uiso   1.00
C588   C     0.14720   0.16052   0.98792   0.00000  Uiso   1.00
C589   C     0.03374   0.14096   0.71787   0.00000  Uiso   1.00
C590   C     0.31738   0.14081   0.71807   0.00000  Uiso   1.00
C591   C     0.16626   0.08731   0.75062   0.00000  Uiso   1.00
C592   C     0.19286   0.16696   0.65007   0.00000  Uiso   1.00
C593   C     0.26557   0.19066   0.51243   0.00000  Uiso   1.00
C594   C     0.20775   0.16954   0.59344   0.00000  Uiso   1.00
C595   C     0.07899   0.14780   0.93194   0.00000  Uiso   1.00
C596   C     0.06839   0.13380   0.98244   0.00000  Uiso   1.00
C597   C     0.10323   0.13689   0.50920   0.00000  Uiso   1.00
C598   C     0.04958   0.03403   0.74410   0.00000  Uiso   1.00
C599   C     0.15725   0.17538   0.93631   0.00000  Uiso   1.00
C600   C     0.11626   0.07622   0.54374   0.00000  Uiso   1.00
C601   C     0.18243   0.16889   0.51480   0.00000  Uiso   1.00
C602   C     0.22884   0.18624   0.98789   0.00000  Uiso   1.00
C603   C     0.23675   0.20183   0.93823   0.00000  Uiso   1.00
C604   C     0.20002   0.19907   0.91454   0.00000  Uiso   1.00
C605   C     0.17194   0.16347   0.56834   0.00000  Uiso   1.00
C606   C     0.25536   0.18142   0.56489   0.00000  Uiso   1.00
Cu607  Cu    0.11978   0.16666   0.75000   0.00000  Uiso   1.00
Cu608  Cu    0.21355   0.16667   0.75000   0.00000  Uiso   1.00
H609   H     0.28355   0.18627   0.58372   0.00000  Uiso   1.00
H610   H     0.13494   0.15767   0.59204   0.00000  Uiso   1.00
H611   H     0.05286   0.14136   0.91089   0.00000  Uiso   1.00
H612   H     0.03427   0.11738   0.99963   0.00000  Uiso   1.00
H613   H     0.20557   0.21589   0.87888   0.00000  Uiso   1.00
H614   H     0.24586   0.29661   0.72800   0.00000  Uiso   1.00
H615   H     0.07204   0.04157   0.70372   0.00000  Uiso   1.00
H616   H     0.01708   0.05448   0.75423   0.00000  Uiso   1.00
H617   H     0.03562   0.00192   0.74620   0.00000  Uiso   1.00
H618   H     0.15682   0.07908   0.52664   0.00000  Uiso   1.00
H619   H     0.10043   0.05809   0.51748   0.00000  Uiso   1.00
H620   H     0.24507   0.03786   0.72861   0.00000  Uiso   1.00
H621   H     0.10915   0.05888   0.58058   0.00000  Uiso   1.00
H622   H     0.08739   0.29419   0.77626   0.00000  Uiso   1.00
H623   H     0.27442   0.21422   0.80612   0.00000  Uiso   1.00
H624   H     0.02771   0.21347   0.80713   0.00000  Uiso   1.00
H625   H     0.05963   0.12044   0.69205   0.00000  Uiso   1.00
H626   H     0.30574   0.12008   0.69255   0.00000  Uiso   1.00
H627   H     0.27048   0.21807   0.91868   0.00000  Uiso   1.00
H628   H     0.30153   0.20272   0.99153   0.00000  Uiso   1.00
N629   N     0.04931   0.16666   0.74998   0.00000  Uiso   1.00
N630   N     0.28402   0.16669   0.74999   0.00000  Uiso   1.00
O631   O     0.12708   0.22678   0.75000   0.00000  Uiso   1.00
O632   O     0.09378   0.11507   0.55492   0.00000  Uiso   1.00
O633   O     0.20627   0.22679   0.75000   0.00000  Uiso   1.00
O634   O     0.10775   0.16665   0.82549   0.00000  Uiso   1.00
O635   O     0.18694   0.16666   0.82549   0.00000  Uiso   1.00
O636   O     0.12706   0.10654   0.74999   0.00000  Uiso   1.00
O637   O     0.20625   0.10655   0.74999   0.00000  Uiso   1.00
O638   O     0.14640   0.16667   0.67451   0.00000  Uiso   1.00
O639   O     0.22559   0.16668   0.67451   0.00000  Uiso   1.00
O640   O     0.07601   0.04095   0.78001   0.00000  Uiso   1.00
C641   C     0.50004   0.24593   0.75030   0.00000  Uiso   1.00
C642   C     0.45796   0.16583   0.90722   0.00000  Uiso   1.00
C643   C     0.54418   0.31231   0.73836   0.00000  Uiso   1.00
C644   C     0.47375   0.16806   0.85009   0.00000  Uiso   1.00
C645   C     0.54364   0.02150   0.73869   0.00000  Uiso   1.00
C646   C     0.49883   0.04258   0.75125   0.00000  Uiso   1.00
C647   C     0.45394   0.02062   0.76357   0.00000  Uiso   1.00
C648   C     0.45504   0.31117   0.76432   0.00000  Uiso   1.00
C649   C     0.49988   0.29043   0.75092   0.00000  Uiso   1.00
C650   C     0.63318   0.19288   0.78143   0.00000  Uiso   1.00
C651   C     0.34937   0.19265   0.78173   0.00000  Uiso   1.00
C652   C     0.48054   0.16052   0.98792   0.00000  Uiso   1.00
C653   C     0.36707   0.14096   0.71787   0.00000  Uiso   1.00
C654   C     0.65071   0.14081   0.71807   0.00000  Uiso   1.00
C655   C     0.49959   0.08731   0.75062   0.00000  Uiso   1.00
C656   C     0.52620   0.16696   0.65007   0.00000  Uiso   1.00
C657   C     0.59890   0.19066   0.51243   0.00000  Uiso   1.00
C658   C     0.54109   0.16954   0.59344   0.00000  Uiso   1.00
C659   C     0.41232   0.14780   0.93194   0.00000  Uiso   1.00
C660   C     0.40173   0.13380   0.98244   0.00000  Uiso   1.00
C661   C     0.43656   0.13689   0.50920   0.00000  Uiso   1.00
C662   C     0.38291   0.03403   0.74410   0.00000  Uiso   1.00
C663   C     0.49058   0.17538   0.93631   0.00000  Uiso   1.00
C664   C     0.44959   0.07622   0.54374   0.00000  Uiso   1.00
C665   C     0.51576   0.16889   0.51480   0.00000  Uiso   1.00
C666   C     0.56218   0.18624   0.98789   0.00000  Uiso   1.00
C667   C     0.57008   0.20183   0.93823   0.00000  Uiso   1.00
C668   C     0.53335   0.19907   0.91454   0.00000  Uiso   1.00
C669   C     0.50527   0.16347   0.56834   0.00000  Uiso   1.00
C670   C     0.58869   0.18142   0.56489   0.00000  Uiso   1.00
Cu671  Cu    0.45311   0.16666   0.75000   0.00000  Uiso   1.00
Cu672  Cu    0.54689   0.16667   0.75000   0.00000  Uiso   1.00
H673   H     0.61689   0.18627   0.58372   0.00000  Uiso   1.00
H674   H     0.46827   0.15767   0.59204   0.00000  Uiso   1.00
H675   H     0.38619   0.14136   0.91089   0.00000  Uiso   1.00
H676   H     0.36761   0.11738   0.99963   0.00000  Uiso   1.00
H677   H     0.53890   0.21589   0.87888   0.00000  Uiso   1.00
H678   H     0.57919   0.29661   0.72800   0.00000  Uiso   1.00
H679   H     0.40538   0.04157   0.70372   0.00000  Uiso   1.00
H680   H     0.35041   0.05448   0.75423   0.00000  Uiso   1.00
H681   H     0.36896   0.00192   0.74620   0.00000  Uiso   1.00
H682   H     0.49015   0.07908   0.52664   0.00000  Uiso   1.00
H683   H     0.43376   0.05809   0.51748   0.00000  Uiso   1.00
H684   H     0.57841   0.03786   0.72861   0.00000  Uiso   1.00
H685   H     0.44248   0.05888   0.58058   0.00000  Uiso   1.00
H686   H     0.42072   0.29419   0.77626   0.00000  Uiso   1.00
H687   H     0.60775   0.21422   0.80612   0.00000  Uiso   1.00
H688   H     0.36104   0.21347   0.80713   0.00000  Uiso   1.00
H689   H     0.39297   0.12044   0.69205   0.00000  Uiso   1.00
H690   H     0.63907   0.12008   0.69255   0.00000  Uiso   1.00
H691   H     0.60381   0.21807   0.91868   0.00000  Uiso   1.00
H692   H     0.63487   0.20272   0.99153   0.00000  Uiso   1.00
N693   N     0.38265   0.16666   0.74998   0.00000  Uiso   1.00
N694   N     0.61735   0.16669   0.74999   0.00000  Uiso   1.00
O695   O     0.46042   0.22678   0.75000   0.00000  Uiso   1.00
O696   O     0.42711   0.11507   0.55492   0.00000  Uiso   1.00
O697   O     0.53961   0.22679   0.75000   0.00000  Uiso   1.00
O698   O     0.44108   0.16665   0.82549   0.00000  Uiso   1.00
O699   O     0.52027   0.16666   0.82549   0.00000  Uiso   1.00
O700   O     0.46039   0.10654   0.74999   0.00000  Uiso   1.00
O701   O     0.53958   0.10655   0.74999   0.00000  Uiso   1.00
O702   O     0.47973   0.16667   0.67451   0.00000  Uiso   1.00
O703   O     0.55892   0.16668   0.67451   0.00000  Uiso   1.00
O704   O     0.40934   0.04095   0.78001   0.00000  Uiso   1.00
C705   C     0.83338   0.24593   0.75030   0.00000  Uiso   1.00
C706   C     0.79130   0.16583   0.90722   0.00000  Uiso   1.00
C707   C     0.87751   0.31231   0.73836   0.00000  Uiso   1.00
C708   C     0.80709   0.16806   0.85009   0.00000  Uiso   1.00
C709   C     0.87697   0.02150   0.73869   0.00000  Uiso   1.00
C710   C     0.83216   0.04258   0.75125   0.00000  Uiso   1.00
C711   C     0.78728   0.02062   0.76357   0.00000  Uiso   1.00
C712   C     0.78837   0.31117   0.76432   0.00000  Uiso   1.00
C713   C     0.83322   0.29043   0.75092   0.00000  Uiso   1.00
C714   C     0.96652   0.19288   0.78143   0.00000  Uiso   1.00
C715   C     0.68270   0.19265   0.78173   0.00000  Uiso   1.00
C716   C     0.81387   0.16052   0.98792   0.00000  Uiso   1.00
C717   C     0.70040   0.14096   0.71787   0.00000  Uiso   1.00
C718   C     0.98404   0.14081   0.71807   0.00000  Uiso   1.00
C719   C     0.83292   0.08731   0.75062   0.00000  Uiso   1.00
C720   C     0.85953   0.16696   0.65007   0.00000  Uiso   1.00
C721   C     0.93224   0.19066   0.51243   0.00000  Uiso   1.00
C722   C     0.87442   0.16954   0.59344   0.00000  Uiso   1.00
C723   C     0.74566   0.14780   0.93194   0.00000  Uiso   1.00
C724   C     0.73506   0.13380   0.98244   0.00000  Uiso   1.00
C725   C     0.76990   0.13689   0.50920   0.00000  Uiso   1.00
C726   C     0.71625   0.03403   0.74410   0.00000  Uiso   1.00
C727   C     0.82392   0.17538   0.93631   0.00000  Uiso   1.00
C728   C     0.78292   0.07622   0.54374   0.00000  Uiso   1.00
C729   C     0.84910   0.16889   0.51480   0.00000  Uiso   1.00
C730   C     0.89551   0.18624   0.98789   0.00000  Uiso   1.00
C731   C     0.90342   0.20183   0.93823   0.00000  Uiso   1.00
C732   C     0.86669   0.19907   0.91454   0.00000  Uiso   1.00
C733   C     0.83861   0.16347   0.56834   0.00000  Uiso   1.00
C734   C     0.92203   0.18142   0.56489   0.00000  Uiso   1.00
Cu735  Cu    0.78645   0.16666   0.75000   0.00000  Uiso   1.00
Cu736  Cu    0.88022   0.16667   0.75000   0.00000  Uiso   1.00
H737   H     0.95022   0.18627   0.58372   0.00000  Uiso   1.00
H738   H     0.80161   0.15767   0.59204   0.00000  Uiso   1.00
H739   H     0.71953   0.14136   0.91089   0.00000  Uiso   1.00
H740   H     0.70094   0.11738   0.99963   0.00000  Uiso   1.00
H741   H     0.87223   0.21589   0.87888   0.00000  Uiso   1.00
H742   H     0.91253   0.29661   0.72800   0.00000  Uiso   1.00
H743   H     0.73871   0.04157   0.70372   0.00000  Uiso   1.00
H744   H     0.68375   0.05448   0.75423   0.00000  Uiso   1.00
H745   H     0.70229   0.00192   0.74620   0.00000  Uiso   1.00
H746   H     0.82348   0.07908   0.52664   0.00000  Uiso   1.00
H747   H     0.76709   0.05809   0.51748   0.00000  Uiso   1.00
H748   H     0.91174   0.03786   0.72861   0.00000  Uiso   1.00
H749   H     0.77581   0.05888   0.58058   0.00000  Uiso   1.00
H750   H     0.75406   0.29419   0.77626   0.00000  Uiso   1.00
H751   H     0.94108   0.21422   0.80612   0.00000  Uiso   1.00
H752   H     0.69438   0.21347   0.80713   0.00000  Uiso   1.00
H753   H     0.72630   0.12044   0.69205   0.00000  Uiso   1.00
H754   H     0.97241   0.12008   0.69255   0.00000  Uiso   1.00
H755   H     0.93714   0.21807   0.91868   0.00000  Uiso   1.00
H756   H     0.96820   0.20272   0.99153   0.00000  Uiso   1.00
N757   N     0.71598   0.16666   0.74998   0.00000  Uiso   1.00
N758   N     0.95069   0.16669   0.74999   0.00000  Uiso   1.00
O759   O     0.79375   0.22678   0.75000   0.00000  Uiso   1.00
O760   O     0.76045   0.11507   0.55492   0.00000  Uiso   1.00
O761   O     0.87294   0.22679   0.75000   0.00000  Uiso   1.00
O762   O     0.77441   0.16665   0.82549   0.00000  Uiso   1.00
O763   O     0.85360   0.16666   0.82549   0.00000  Uiso   1.00
O764   O     0.79373   0.10654   0.74999   0.00000  Uiso   1.00
O765   O     0.87292   0.10655   0.74999   0.00000  Uiso   1.00
O766   O     0.81306   0.16667   0.67451   0.00000  Uiso   1.00
O767   O     0.89225   0.16668   0.67451   0.00000  Uiso   1.00
O768   O     0.74267   0.04095   0.78001   0.00000  Uiso   1.00
C769   C     0.16671   0.57926   0.75030   0.00000  Uiso   1.00
C770   C     0.12463   0.49917   0.90722   0.00000  Uiso   1.00
C771   C     0.21084   0.64564   0.73836   0.00000  Uiso   1.00
C772   C     0.14042   0.50139   0.85009   0.00000  Uiso   1.00
C773   C     0.21031   0.35483   0.73869   0.00000  Uiso   1.00
C774   C     0.16549   0.37592   0.75125   0.00000  Uiso   1.00
C775   C     0.12061   0.35395   0.76357   0.00000  Uiso   1.00
C776   C     0.12170   0.64450   0.76432   0.00000  Uiso   1.00
C777   C     0.16655   0.62376   0.75092   0.00000  Uiso   1.00
C778   C     0.29985   0.52621   0.78143   0.00000  Uiso   1.00
C779   C     0.01603   0.52598   0.78173   0.00000  Uiso   1.00
C780   C     0.14720   0.49385   0.98792   0.00000  Uiso   1.00
C781   C     0.03374   0.47429   0.71787   0.00000  Uiso   1.00
C782   C     0.31738   0.47414   0.71807   0.00000  Uiso   1.00
C783   C     0.16626   0.42065   0.75062   0.00000  Uiso   1.00
C784   C     0.19286   0.50029   0.65007   0.00000  Uiso   1.00
C785   C     0.26557   0.52399   0.51243   0.00000  Uiso   1.00
C786   C     0.20775   0.50288   0.59344   0.00000  Uiso   1.00
C787   C     0.07899   0.48113   0.93194   0.00000  Uiso   1.00
C788   C     0.06839   0.46713   0.98244   0.00000  Uiso   1.00
C789   C     0.10323   0.47022   0.50920   0.00000  Uiso   1.00
C790   C     0.04958   0.36736   0.74410   0.00000  Uiso   1.00
C791   C     0.15725   0.50871   0.93631   0.00000  Uiso   1.00
C792   C     0.11626   0.40955   0.54374   0.00000  Uiso   1.00
C793   C     0.18243   0.50222   0.51480   0.00000  Uiso   1.00
C794   C     0.22884   0.51957   0.98789   0.00000  Uiso   1.00
C795   C     0.23675   0.53516   0.93823   0.00000  Uiso   1.00
C796   C     0.20002   0.53241   0.91454   0.00000  Uiso   1.00
C797   C     0.17194   0.49680   0.56834   0.00000  Uiso   1.00
C798   C     0.25536   0.51475   0.56489   0.00000  Uiso   1.00
Cu799  Cu    0.11978   0.49999   0.75000   0.00000  Uiso   1.00
Cu800  Cu    0.21355   0.50001   0.75000   0.00000  Uiso   1.00
H801   H     0.28355   0.51961   0.58372   0.00000  Uiso   1.00
H802   H     0.13494   0.49101   0.59204   0.00000  Uiso   1.00
H803   H     0.05286   0.47469   0.91089   0.00000  Uiso   1.00
H804   H     0.03427   0.45071   0.99963   0.00000  Uiso   1.00
H805   H     0.20557   0.54922   0.87888   0.00000  Uiso   1.00
H806   H     0.24586   0.62994   0.72800   0.00000  Uiso   1.00
H807   H     0.07204   0.37490   0.70372   0.00000  Uiso   1.00
H808   H     0.01708   0.38781   0.75423   0.00000  Uiso   1.00
H809   H     0.03562   0.33525   0.74620   0.00000  Uiso   1.00
H810   H     0.15682   0.41242   0.52664   0.00000  Uiso   1.00
H811   H     0.10043   0.39142   0.51748   0.00000  Uiso   1.00
H812   H     0.24507   0.37119   0.72861   0.00000  Uiso   1.00
H813   H     0.10915   0.39222   0.58058   0.00000  Uiso   1.00
H814   H     0.08739   0.62753   0.77626   0.00000  Uiso   1.00
H815   H     0.27442   0.54755   0.80612   0.00000  Uiso   1.00
H816   H     0.02771   0.54681   0.80713   0.00000  Uiso   1.00
H817   H     0.05963   0.45377   0.69205   0.00000  Uiso   1.00
H818   H     0.30574   0.45341   0.69255   0.00000  Uiso   1.00
H819   H     0.27048   0.55140   0.91868   0.00000  Uiso   1.00
H820   H     0.30153   0.53605   0.99153   0.00000  Uiso   1.00
N821   N     0.04931   0.49999   0.74998   0.00000  Uiso   1.00
N822   N     0.28402   0.50002   0.74999   0.00000  Uiso   1.00
O823   O     0.12708   0.56011   0.75000   0.00000  Uiso   1.00
O824   O     0.09378   0.44840   0.55492   0.00000  Uiso   1.00
O825   O     0.20627   0.56012   0.75000   0.00000  Uiso   1.00
O826   O     0.10775   0.49998   0.82549   0.00000  Uiso   1.00
O827   O     0.18694   0.49999   0.82549   0.00000  Uiso   1.00
O828   O     0.12706   0.43988   0.74999   0.00000  Uiso   1.00
O829   O     0.20625   0.43989   0.74999   0.00000  Uiso   1.00
O830   O     0.14640   0.50001   0.67451   0.00000  Uiso   1.00
O831   O     0.22559   0.50002   0.67451   0.00000  Uiso   1.00
O832   O     0.07601   0.37429   0.78001   0.00000  Uiso   1.00
C833   C     0.50004   0.57926   0.75030   0.00000  Uiso   1.00
C834   C     0.45796   0.49917   0.90722   0.00000  Uiso   1.00
C835   C     0.54418   0.64564   0.73836   0.00000  Uiso   1.00
C836   C     0.47375   0.50139   0.85009   0.00000  Uiso   1.00
C837   C     0.54364   0.35483   0.73869   0.00000  Uiso   1.00
C838   C     0.49883   0.37592   0.75125   0.00000  Uiso   1.00
C839   C     0.45394   0.35395   0.76357   0.00000  Uiso   1.00
C840   C     0.45504   0.64450   0.76432   0.00000  Uiso   1.00
C841   C     0.49988   0.62376   0.75092   0.00000  Uiso   1.00
C842   C     0.63318   0.52621   0.78143   0.00000  Uiso   1.00
C843   C     0.34937   0.52598   0.78173   0.00000  Uiso   1.00
C844   C     0.48054   0.49385   0.98792   0.00000  Uiso   1.00
C845   C     0.36707   0.47429   0.71787   0.00000  Uiso   1.00
C846   C     0.65071   0.47414   0.71807   0.00000  Uiso   1.00
C847   C     0.49959   0.42065   0.75062   0.00000  Uiso   1.00
C848   C     0.52620   0.50029   0.65007   0.00000  Uiso   1.00
C849   C     0.59890   0.52399   0.51243   0.00000  Uiso   1.00
C850   C     0.54109   0.50288   0.59344   0.00000  Uiso   1.00
C851   C     0.41232   0.48113   0.93194   0.00000  Uiso   1.00
C852   C     0.40173   0.46713   0.98244   0.00000  Uiso   1.00
C853   C     0.43656   0.47022   0.50920   0.00000  Uiso   1.00
C854   C     0.38291   0.36736   0.74410   0.00000  Uiso   1.00
C855   C     0.49058   0.50871   0.93631   0.00000  Uiso   1.00
C856   C     0.44959   0.40955   0.54374   0.00000  Uiso   1.00
C857   C     0.51576   0.50222   0.51480   0.00000  Uiso   1.00
C858   C     0.56218   0.51957   0.98789   0.00000  Uiso   1.00
C859   C     0.57008   0.53516   0.93823   0.00000  Uiso   1.00
C860   C     0.53335   0.53241   0.91454   0.00000  Uiso   1.00
C861   C     0.50527   0.49680   0.56834   0.00000  Uiso   1.00
C862   C     0.58869   0.51475   0.56489   0.00000  Uiso   1.00
Cu863  Cu    0.45311   0.49999   0.75000   0.00000  Uiso   1.00
Cu864  Cu    0.54689   0.50001   0.75000   0.00000  Uiso   1.00
H865   H     0.61689   0.51961   0.58372   0.00000  Uiso   1.00
H866   H     0.46827   0.49101   0.59204   0.00000  Uiso   1.00
H867   H     0.38619   0.47469   0.91089   0.00000  Uiso   1.00
H868   H     0.36761   0.45071   0.99963   0.00000  Uiso   1.00
H869   H     0.53890   0.54922   0.87888   0.00000  Uiso   1.00
H870   H     0.57919   0.62994   0.72800   0.00000  Uiso   1.00
H871   H     0.40538   0.37490   0.70372   0.00000  Uiso   1.00
H872   H     0.35041   0.38781   0.75423   0.00000  Uiso   1.00
H873   H     0.36896   0.33525   0.74620   0.00000  Uiso   1.00
H874   H     0.49015   0.41242   0.52664   0.00000  Uiso   1.00
H875   H     0.43376   0.39142   0.51748   0.00000  Uiso   1.00
H876   H     0.57841   0.37119   0.72861   0.00000  Uiso   1.00
H877   H     0.44248   0.39222   0.58058   0.00000  Uiso   1.00
H878   H     0.42072   0.62753   0.77626   0.00000  Uiso   1.00
H879   H     0.60775   0.54755   0.80612   0.00000  Uiso   1.00
H880   H     0.36104   0.54681   0.80713   0.00000  Uiso   1.00
H881   H     0.39297   0.45377   0.69205   0.00000  Uiso   1.00
H882   H     0.63907   0.45341   0.69255   0.00000  Uiso   1.00
H883   H     0.60381   0.55140   0.91868   0.00000  Uiso   1.00
H884   H     0.63487   0.53605   0.99153   0.00000  Uiso   1.00
N885   N     0.38265   0.49999   0.74998   0.00000  Uiso   1.00
N886   N     0.61735   0.50002   0.74999   0.00000  Uiso   1.00
O887   O     0.46042   0.56011   0.75000   0.00000  Uiso   1.00
O888   O     0.42711   0.44840   0.55492   0.00000  Uiso   1.00
O889   O     0.53961   0.56012   0.75000   0.00000  Uiso   1.00
O890   O     0.44108   0.49998   0.82549   0.00000  Uiso   1.00
O891   O     0.52027   0.49999   0.82549   0.00000  Uiso   1.00
O892   O     0.46039   0.43988   0.74999   0.00000  Uiso   1.00
O893   O     0.53958   0.43989   0.74999   0.00000  Uiso   1.00
O894   O     0.47973   0.50001   0.67451   0.00000  Uiso   1.00
O895   O     0.55892   0.50002   0.67451   0.00000  Uiso   1.00
O896   O     0.40934   0.37429   0.78001   0.00000  Uiso   1.00
C897   C     0.83338   0.57926   0.75030   0.00000  Uiso   1.00
C898   C     0.79130   0.49917   0.90722   0.00000  Uiso   1.00
C899   C     0.87751   0.64564   0.73836   0.00000  Uiso   1.00
C900   C     0.80709   0.50139   0.85009   0.00000  Uiso   1.00
C901   C     0.87697   0.35483   0.73869   0.00000  Uiso   1.00
C902   C     0.83216   0.37592   0.75125   0.00000  Uiso   1.00
C903   C     0.78728   0.35395   0.76357   0.00000  Uiso   1.00
C904   C     0.78837   0.64450   0.76432   0.00000  Uiso   1.00
C905   C     0.83322   0.62376   0.75092   0.00000  Uiso   1.00
C906   C     0.96652   0.52621   0.78143   0.00000  Uiso   1.00
C907   C     0.68270   0.52598   0.78173   0.00000  Uiso   1.00
C908   C     0.81387   0.49385   0.98792   0.00000  Uiso   1.00
C909   C     0.70040   0.47429   0.71787   0.00000  Uiso   1.00
C910   C     0.98404   0.47414   0.71807   0.00000  Uiso   1.00
C911   C     0.83292   0.42065   0.75062   0.00000  Uiso   1.00
C912   C     0.85953   0.50029   0.65007   0.00000  Uiso   1.00
C913   C     0.93224   0.52399   0.51243   0.00000  Uiso   1.00
C914   C     0.87442   0.50288   0.59344   0.00000  Uiso   1.00
C915   C     0.74566   0.48113   0.93194   0.00000  Uiso   1.00
C916   C     0.73506   0.46713   0.98244   0.00000  Uiso   1.00
C917   C     0.76990   0.47022   0.50920   0.00000  Uiso   1.00
C918   C     0.71625   0.36736   0.74410   0.00000  Uiso   1.00
C919   C     0.82392   0.50871   0.93631   0.00000  Uiso   1.00
C920   C     0.78292   0.40955   0.54374   0.00000  Uiso   1.00
C921   C     0.84910   0.50222   0.51480   0.00000  Uiso   1.00
C922   C     0.89551   0.51957   0.98789   0.00000  Uiso   1.00
C923   C     0.90342   0.53516   0.93823   0.00000  Uiso   1.00
C924   C     0.86669   0.53241   0.91454   0.00000  Uiso   1.00
C925   C     0.83861   0.49680   0.56834   0.00000  Uiso   1.00
C926   C     0.92203   0.51475   0.56489   0.00000  Uiso   1.00
Cu927  Cu    0.78645   0.49999   0.75000   0.00000  Uiso   1.00
Cu928  Cu    0.88022   0.50001   0.75000   0.00000  Uiso   1.00
H929   H     0.95022   0.51961   0.58372   0.00000  Uiso   1.00
H930   H     0.80161   0.49101   0.59204   0.00000  Uiso   1.00
H931   H     0.71953   0.47469   0.91089   0.00000  Uiso   1.00
H932   H     0.70094   0.45071   0.99963   0.00000  Uiso   1.00
H933   H     0.87223   0.54922   0.87888   0.00000  Uiso   1.00
H934   H     0.91253   0.62994   0.72800   0.00000  Uiso   1.00
H935   H     0.73871   0.37490   0.70372   0.00000  Uiso   1.00
H936   H     0.68375   0.38781   0.75423   0.00000  Uiso   1.00
H937   H     0.70229   0.33525   0.74620   0.00000  Uiso   1.00
H938   H     0.82348   0.41242   0.52664   0.00000  Uiso   1.00
H939   H     0.76709   0.39142   0.51748   0.00000  Uiso   1.00
H940   H     0.91174   0.37119   0.72861   0.00000  Uiso   1.00
H941   H     0.77581   0.39222   0.58058   0.00000  Uiso   1.00
H942   H     0.75406   0.62753   0.77626   0.00000  Uiso   1.00
H943   H     0.94108   0.54755   0.80612   0.00000  Uiso   1.00
H944   H     0.69438   0.54681   0.80713   0.00000  Uiso   1.00
H945   H     0.72630   0.45377   0.69205   0.00000  Uiso   1.00
H946   H     0.97241   0.45341   0.69255   0.00000  Uiso   1.00
H947   H     0.93714   0.55140   0.91868   0.00000  Uiso   1.00
H948   H     0.96820   0.53605   0.99153   0.00000  Uiso   1.00
N949   N     0.71598   0.49999   0.74998   0.00000  Uiso   1.00
N950   N     0.95069   0.50002   0.74999   0.00000  Uiso   1.00
O951   O     0.79375   0.56011   0.75000   0.00000  Uiso   1.00
O952   O     0.76045   0.44840   0.55492   0.00000  Uiso   1.00
O953   O     0.87294   0.56012   0.75000   0.00000  Uiso   1.00
O954   O     0.77441   0.49998   0.82549   0.00000  Uiso   1.00
O955   O     0.85360   0.49999   0.82549   0.00000  Uiso   1.00
O956   O     0.79373   0.43988   0.74999   0.00000  Uiso   1.00
O957   O     0.87292   0.43989   0.74999   0.00000  Uiso   1.00
O958   O     0.81306   0.50001   0.67451   0.00000  Uiso   1.00
O959   O     0.89225   0.50002   0.67451   0.00000  Uiso   1.00
O960   O     0.74267   0.37429   0.78001   0.00000  Uiso   1.00
C961   C     0.16671   0.91259   0.75030   0.00000  Uiso   1.00
C962   C     0.12463   0.83250   0.90722   0.00000  Uiso   1.00
C963   C     0.21084   0.97897   0.73836   0.00000  Uiso   1.00
C964   C     0.14042   0.83472   0.85009   0.00000  Uiso   1.00
C965   C     0.21031   0.68817   0.73869   0.00000  Uiso   1.00
C966   C     0.16549   0.70925   0.75125   0.00000  Uiso   1.00
C967   C     0.12061   0.68728   0.76357   0.00000  Uiso   1.00
C968   C     0.12170   0.97784   0.76432   0.00000  Uiso   1.00
C969   C     0.16655   0.95709   0.75092   0.00000  Uiso   1.00
C970   C     0.29985   0.85954   0.78143   0.00000  Uiso   1.00
C971   C     0.01603   0.85931   0.78173   0.00000  Uiso   1.00
C972   C     0.14720   0.82718   0.98792   0.00000  Uiso   1.00
C973   C     0.03374   0.80762   0.71787   0.00000  Uiso   1.00
C974   C     0.31738   0.80748   0.71807   0.00000  Uiso   1.00
C975   C     0.16626   0.75398   0.75062   0.00000  Uiso   1.00
C976   C     0.19286   0.83363   0.65007   0.00000  Uiso   1.00
C977   C     0.26557   0.85732   0.51243   0.00000  Uiso   1.00
C978   C     0.20775   0.83621   0.59344   0.00000  Uiso   1.00
C979   C     0.07899   0.81446   0.93194   0.00000  Uiso   1.00
C980   C     0.06839   0.80047   0.98244   0.00000  Uiso   1.00
C981   C     0.10323   0.80355   0.50920   0.00000  Uiso   1.00
C982   C     0.04958   0.70070   0.74410   0.00000  Uiso   1.00
C983   C     0.15725   0.84205   0.93631   0.00000  Uiso   1.00
C984   C     0.11626   0.74288   0.54374   0.00000  Uiso   1.00
C985   C     0.18243   0.83556   0.51480   0.00000  Uiso   1.00
C986   C     0.22884   0.85290   0.98789   0.00000  Uiso   1.00
C987   C     0.23675   0.86850   0.93823   0.00000  Uiso   1.00
C988   C     0.20002   0.86574   0.91454   0.00000  Uiso   1.00
C989   C     0.17194   0.83013   0.56834   0.00000  Uiso   1.00
C990   C     0.25536   0.84808   0.56489   0.00000  Uiso   1.00
Cu991  Cu    0.11978   0.83333   0.75000   0.00000  Uiso   1.00
Cu992  Cu    0.21355   0.83334   0.75000   0.00000  Uiso   1.00
H993   H     0.28355   0.85294   0.58372   0.00000  Uiso   1.00
H994   H     0.13494   0.82434   0.59204   0.00000  Uiso   1.00
H995   H     0.05286   0.80802   0.91089   0.00000  Uiso   1.00
H996   H     0.03427   0.78404   0.99963   0.00000  Uiso   1.00
H997   H     0.20557   0.88256   0.87888   0.00000  Uiso   1.00
H998   H     0.24586   0.96327   0.72800   0.00000  Uiso   1.00
H999   H     0.07204   0.70823   0.70372   0.00000  Uiso   1.00
H1000  H     0.01708   0.72115   0.75423   0.00000  Uiso   1.00
H1001  H     0.03562   0.66859   0.74620   0.00000  Uiso   1.00
H1002  H     0.15682   0.74575   0.52664   0.00000  Uiso   1.00
H1003  H     0.10043   0.72476   0.51748   0.00000  Uiso   1.00
H1004  H     0.24507   0.70453   0.72861   0.00000  Uiso   1.00
H1005  H     0.10915   0.72555   0.58058   0.00000  Uiso   1.00
H1006  H     0.08739   0.96086   0.77626   0.00000  Uiso   1.00
H1007  H     0.27442   0.88089   0.80612   0.00000  Uiso   1.00
H1008  H     0.02771   0.88014   0.80713   0.00000  Uiso   1.00
H1009  H     0.05963   0.78710   0.69205   0.00000  Uiso   1.00
H1010  H     0.30574   0.78675   0.69255   0.00000  Uiso   1.00
H1011  H     0.27048   0.88474   0.91868   0.00000  Uiso   1.00
H1012  H     0.30153   0.86938   0.99153   0.00000  Uiso   1.00
N1013  N     0.04931   0.83332   0.74998   0.00000  Uiso   1.00
N1014  N     0.28402   0.83335   0.74999   0.00000  Uiso   1.00
O1015  O     0.12708   0.89345   0.75000   0.00000  Uiso   1.00
O1016  O     0.09378   0.78174   0.55492   0.00000  Uiso   1.00
O1017  O     0.20627   0.89346   0.75000   0.00000  Uiso   1.00
O1018  O     0.10775   0.83332   0.82549   0.00000  Uiso   1.00
O1019  O     0.18694   0.83333   0.82549   0.00000  Uiso   1.00
O1020  O     0.12706   0.77321   0.74999   0.00000  Uiso   1.00
O1021  O     0.20625   0.77322   0.74999   0.00000  Uiso   1.00
O1022  O     0.14640   0.83334   0.67451   0.00000  Uiso   1.00
O1023  O     0.22559   0.83335   0.67451   0.00000  Uiso   1.00
O1024  O     0.07601   0.70762   0.78001   0.00000  Uiso   1.00
C1025  C     0.50004   0.91259   0.75030   0.00000  Uiso   1.00
C1026  C     0.45796   0.83250   0.90722   0.00000  Uiso   1.00
C1027  C     0.54418   0.97897   0.73836   0.00000  Uiso   1.00
C1028  C     0.47375   0.83472   0.85009   0.00000  Uiso   1.00
C1029  C     0.54364   0.68817   0.73869   0.00000  Uiso   1.00
C1030  C     0.49883   0.70925   0.75125   0.00000  Uiso   1.00
C1031  C     0.45394   0.68728   0.76357   0.00000  Uiso   1.00
C1032  C     0.45504   0.97784   0.76432   0.00000  Uiso   1.00
C1033  C     0.49988   0.95709   0.75092   0.00000  Uiso   1.00
C1034  C     0.63318   0.85954   0.78143   0.00000  Uiso   1.00
C1035  C     0.34937   0.85931   0.78173   0.00000  Uiso   1.00
C1036  C     0.48054   0.82718   0.98792   0.00000  Uiso   1.00
C1037  C     0.36707   0.80762   0.71787   0.00000  Uiso   1.00
C1038  C     0.65071   0.80748   0.71807   0.00000  Uiso   1.00
C1039  C     0.49959   0.75398   0.75062   0.00000  Uiso   1.00
C1040  C     0.52620   0.83363   0.65007   0.00000  Uiso   1.00
C1041  C     0.59890   0.85732   0.51243   0.00000  Uiso   1.00
C1042  C     0.54109   0.83621   0.59344   0.00000  Uiso   1.00
C1043  C     0.41232   0.81446   0.93194   0.00000  Uiso   1.00
C1044  C     0.40173   0.80047   0.98244   0.00000  Uiso   1.00
C1045  C     0.43656   0.80355   0.50920   0.00000  Uiso   1.00
C1046  C     0.38291   0.70070   0.74410   0.00000  Uiso   1.00
C1047  C     0.49058   0.84205   0.93631   0.00000  Uiso   1.00
C1048  C     0.44959   0.74288   0.54374   0.00000  Uiso   1.00
C1049  C     0.51576   0.83556   0.51480   0.00000  Uiso   1.00
C1050  C     0.56218   0.85290   0.98789   0.00000  Uiso   1.00
C1051  C     0.57008   0.86850   0.93823   0.00000  Uiso   1.00
C1052  C     0.53335   0.86574   0.91454   0.00000  Uiso   1.00
C1053  C     0.50527   0.83013   0.56834   0.00000  Uiso   1.00
C1054  C     0.58869   0.84808   0.56489   0.00000  Uiso   1.00
Cu1055 Cu    0.45311   0.83333   0.75000   0.00000  Uiso   1.00
Cu1056 Cu    0.54689   0.83334   0.75000   0.00000  Uiso   1.00
H1057  H     0.61689   0.85294   0.58372   0.00000  Uiso   1.00
H1058  H     0.46827   0.82434   0.59204   0.00000  Uiso   1.00
H1059  H     0.38619   0.80802   0.91089   0.00000  Uiso   1.00
H1060  H     0.36761   0.78404   0.99963   0.00000  Uiso   1.00
H1061  H     0.53890   0.88256   0.87888   0.00000  Uiso   1.00
H1062  H     0.57919   0.96327   0.72800   0.00000  Uiso   1.00
H1063  H     0.40538   0.70823   0.70372   0.00000  Uiso   1.00
H1064  H     0.35041   0.72115   0.75423   0.00000  Uiso   1.00
H1065  H     0.36896   0.66859   0.74620   0.00000  Uiso   1.00
H1066  H     0.49015   0.74575   0.52664   0.00000  Uiso   1.00
H1067  H     0.43376   0.72476   0.51748   0.00000  Uiso   1.00
H1068  H     0.57841   0.70453   0.72861   0.00000  Uiso   1.00
H1069  H     0.44248   0.72555   0.58058   0.00000  Uiso   1.00
H1070  H     0.42072   0.96086   0.77626   0.00000  Uiso   1.00
H1071  H     0.60775   0.88089   0.80612   0.00000  Uiso   1.00
H1072  H     0.36104   0.88014   0.80713   0.00000  Uiso   1.00
H1073  H     0.39297   0.78710   0.69205   0.00000  Uiso   1.00
H1074  H     0.63907   0.78675   0.69255   0.00000  Uiso   1.00
H1075  H     0.60381   0.88474   0.91868   0.00000  Uiso   1.00
H1076  H     0.63487   0.86938   0.99153   0.00000  Uiso   1.00
N1077  N     0.38265   0.83332   0.74998   0.00000  Uiso   1.00
N1078  N     0.61735   0.83335   0.74999   0.00000  Uiso   1.00
O1079  O     0.46042   0.89345   0.75000   0.00000  Uiso   1.00
O1080  O     0.42711   0.78174   0.55492   0.00000  Uiso   1.00
O1081  O     0.53961   0.89346   0.75000   0.00000  Uiso   1.00
O1082  O     0.44108   0.83332   0.82549   0.00000  Uiso   1.00
O1083  O     0.52027   0.83333   0.82549   0.00000  Uiso   1.00
O1084  O     0.46039   0.77321   0.74999   0.00000  Uiso   1.00
O1085  O     0.53958   0.77322   0.74999   0.00000  Uiso   1.00
O1086  O     0.47973   0.83334   0.67451   0.00000  Uiso   1.00
O1087  O     0.55892   0.83335   0.67451   0.00000  Uiso   1.00
O1088  O     0.40934   0.70762   0.78001   0.00000  Uiso   1.00
C1089  C     0.83338   0.91259   0.75030   0.00000  Uiso   1.00
C1090  C     0.79130   0.83250   0.90722   0.00000  Uiso   1.00
C1091  C     0.87751   0.97897   0.73836   0.00000  Uiso   1.00
C1092  C     0.80709   0.83472   0.85009   0.00000  Uiso   1.00
C1093  C     0.87697   0.68817   0.73869   0.00000  Uiso   1.00
C1094  C     0.83216   0.70925   0.75125   0.00000  Uiso   1.00
C1095  C     0.78728   0.68728   0.76357   0.00000  Uiso   1.00
C1096  C     0.78837   0.97784   0.76432   0.00000  Uiso   1.00
C1097  C     0.83322   0.95709   0.75092   0.00000  Uiso   1.00
C1098  C     0.96652   0.85954   0.78143   0.00000  Uiso   1.00
C1099  C     0.68270   0.85931   0.78173   0.00000  Uiso   1.00
C1100  C     0.81387   0.82718   0.98792   0.00000  Uiso   1.00
C1101  C     0.70040   0.80762   0.71787   0.00000  Uiso   1.00
C1102  C     0.98404   0.80748   0.71807   0.00000  Uiso   1.00
C1103  C     0.83292   0.75398   0.75062   0.00000  Uiso   1.00
C1104  C     0.85953   0.83363   0.65007   0.00000  Uiso   1.00
C1105  C     0.93224   0.85732   0.51243   0.00000  Uiso   1.00
C1106  C     0.87442   0.83621   0.59344   0.00000  Uiso   1.00
C1107  C     0.74566   0.81446   0.93194   0.00000  Uiso   1.00
C1108  C     0.73506   0.80047   0.98244   0.00000  Uiso   1.00
C1109  C     0.76990   0.80355   0.50920   0.00000  Uiso   1.00
C1110  C     0.71625   0.70070   0.74410   0.00000  Uiso   1.00
C1111  C     0.82392   0.84205   0.93631   0.00000  Uiso   1.00
C1112  C     0.78292   0.74288   0.54374   0.00000  Uiso   1.00
C1113  C     0.84910   0.83556   0.51480   0.00000  Uiso   1.00
C1114  C     0.89551   0.85290   0.98789   0.00000  Uiso   1.00
C1115  C     0.90342   0.86850   0.93823   0.00000  Uiso   1.00
C1116  C     0.86669   0.86574   0.91454   0.00000  Uiso   1.00
C1117  C     0.83861   0.83013   0.56834   0.00000  Uiso   1.00
C1118  C     0.92203   0.84808   0.56489   0.00000  Uiso   1.00
Cu1119 Cu    0.78645   0.83333   0.75000   0.00000  Uiso   1.00
Cu1120 Cu    0.88022   0.83334   0.75000   0.00000  Uiso   1.00
H1121  H     0.95022   0.85294   0.58372   0.00000  Uiso   1.00
H1122  H     0.80161   0.82434   0.59204   0.00000  Uiso   1.00
H1123  H     0.71953   0.80802   0.91089   0.00000  Uiso   1.00
H1124  H     0.70094   0.78404   0.99963   0.00000  Uiso   1.00
H1125  H     0.87223   0.88256   0.87888   0.00000  Uiso   1.00
H1126  H     0.91253   0.96327   0.72800   0.00000  Uiso   1.00
H1127  H     0.73871   0.70823   0.70372   0.00000  Uiso   1.00
H1128  H     0.68375   0.72115   0.75423   0.00000  Uiso   1.00
H1129  H     0.70229   0.66859   0.74620   0.00000  Uiso   1.00
H1130  H     0.82348   0.74575   0.52664   0.00000  Uiso   1.00
H1131  H     0.76709   0.72476   0.51748   0.00000  Uiso   1.00
H1132  H     0.91174   0.70453   0.72861   0.00000  Uiso   1.00
H1133  H     0.77581   0.72555   0.58058   0.00000  Uiso   1.00
H1134  H     0.75406   0.96086   0.77626   0.00000  Uiso   1.00
H1135  H     0.94108   0.88089   0.80612   0.00000  Uiso   1.00
H1136  H     0.69438   0.88014   0.80713   0.00000  Uiso   1.00
H1137  H     0.72630   0.78710   0.69205   0.00000  Uiso   1.00
H1138  H     0.97241   0.78675   0.69255   0.00000  Uiso   1.00
H1139  H     0.93714   0.88474   0.91868   0.00000  Uiso   1.00
H1140  H     0.96820   0.86938   0.99153   0.00000  Uiso   1.00
N1141  N     0.71598   0.83332   0.74998   0.00000  Uiso   1.00
N1142  N     0.95069   0.83335   0.74999   0.00000  Uiso   1.00
O1143  O     0.79375   0.89345   0.75000   0.00000  Uiso   1.00
O1144  O     0.76045   0.78174   0.55492   0.00000  Uiso   1.00
O1145  O     0.87294   0.89346   0.75000   0.00000  Uiso   1.00
O1146  O     0.77441   0.83332   0.82549   0.00000  Uiso   1.00
O1147  O     0.85360   0.83333   0.82549   0.00000  Uiso   1.00
O1148  O     0.79373   0.77321   0.74999   0.00000  Uiso   1.00
O1149  O     0.87292   0.77322   0.74999   0.00000  Uiso   1.00
O1150  O     0.81306   0.83334   0.67451   0.00000  Uiso   1.00
O1151  O     0.89225   0.83335   0.67451   0.00000  Uiso   1.00
O1152  O     0.74267   0.70762   0.78001   0.00000  Uiso   1.00
loop_
_geom_bond_atom_site_label_1
_geom_bond_atom_site_label_2
_geom_bond_distance
_geom_bond_site_symmetry_2
_ccdc_geom_bond_type
C1     O57     1.290   .     A
C1     O55     1.289   .     A
C1     C9      1.447   .     S
C2     C4      1.474   .     S
C2     C23     1.418   .     A
C2     C19     1.399   .     A
C3     H38     1.083   .     S
C3     C9      1.397   .     A
C3     C197    1.383   .     S
C4     O59     1.295   .     A
C4     O58     1.297   .     A
C5     H44     1.084   .     S
C5     C6      1.403   .     A
C5     C387    1.383   1_545 S
C6     C7      1.413   .     A
C6     C15     1.455   .     S
C7     O64     1.386   .     S
C7     C392    1.392   1_545 S
C8     H46     1.083   .     S
C8     C9      1.397   .     A
C8     C199    1.392   .     S
C10    N54     1.367   .     A
C10    H47     1.079   .     S
C10    C75     1.415   .     S
C11    N53     1.366   .     A
C11    H48     1.082   .     S
C11    C138    1.415   1_455 S
C12    C23     1.422   .     A
C12    C597    1.434   .     S
C12    C601    1.429   .     S
C13    H49     1.082   .     S
C13    N53     1.367   .     A
C13    C142    1.416   1_455 S
C14    H50     1.082   .     S
C14    N54     1.367   .     A
C14    C77     1.416   .     S
C15    O60     1.289   .     A
C15    O61     1.294   .     A
C16    O63     1.295   .     A
C16    O62     1.292   .     A
C16    C18     1.462   .     S
C17    C30     1.392   .     A
C17    C602    1.404   1_554 S
C17    H628    1.084   1_554 S
C18    C29     1.398   .     A
C18    C30     1.399   .     A
C19    C20     1.384   .     A
C19    H35     1.083   .     S
C20    H36     1.083   .     S
C20    C597    1.396   .     S
C21    O56     1.381   .     S
C21    C588    1.434   1_554 S
C21    C596    1.396   1_554 S
C22    H40     1.109   .     S
C22    H41     1.111   .     S
C22    O64     1.412   .     S
C22    H39     1.114   .     S
C23    C28     1.411   .     A
C24    O56     1.410   .     S
C24    H42     1.113   .     S
C24    H45     1.109   .     S
C24    H43     1.113   .     S
C25    C29     1.398   .     A
C25    C588    1.429   1_554 S
C25    C602    1.421   1_554 S
C26    C27     1.389   .     A
C26    C593    1.404   .     S
C26    C601    1.421   .     S
C27    H51     1.084   .     S
C27    C28     1.384   .     A
C28    H37     1.079   .     S
C29    H34     1.074   .     S
C30    H33     1.083   .     S
Cu31   O60     1.967   .     S
Cu31   N53     2.010   .     S
Cu31   O62     1.951   .     S
Cu31   O58     1.963   .     S
Cu31   O55     1.965   .     S
Cu31   Cu32    2.675   .     S
Cu32   O57     1.967   .     S
Cu32   N54     2.010   .     S
Cu32   O61     1.965   .     S
Cu32   O59     1.951   .     S
Cu32   O63     1.963   .     S
H52    C593    1.084   .     S
C65    O121    1.290   .     A
C65    O119    1.289   .     A
C65    C73     1.447   .     S
C66    C68     1.474   .     S
C66    C87     1.418   .     A
C66    C83     1.399   .     A
C67    H102    1.083   .     S
C67    C73     1.397   .     A
C67    C261    1.383   .     S
C68    O123    1.295   .     A
C68    O122    1.297   .     A
C69    H108    1.084   .     S
C69    C70     1.403   .     A
C69    C451    1.383   1_545 S
C70    C71     1.413   .     A
C70    C79     1.455   .     S
C71    O128    1.386   .     S
C71    C456    1.392   1_545 S
C72    H110    1.083   .     S
C72    C73     1.397   .     A
C72    C263    1.392   .     S
C74    N118    1.367   .     A
C74    H111    1.079   .     S
C74    C139    1.415   .     S
C75    N117    1.366   .     A
C75    H112    1.082   .     S
C76    C87     1.422   .     A
C76    C661    1.434   .     S
C76    C665    1.429   .     S
C77    H113    1.082   .     S
C77    N117    1.367   .     A
C78    H114    1.082   .     S
C78    N118    1.367   .     A
C78    C141    1.416   .     S
C79    O124    1.289   .     A
C79    O125    1.294   .     A
C80    O127    1.295   .     A
C80    O126    1.292   .     A
C80    C82     1.462   .     S
C81    C94     1.392   .     A
C81    C666    1.404   1_554 S
C81    H692    1.084   1_554 S
C82    C93     1.398   .     A
C82    C94     1.399   .     A
C83    C84     1.384   .     A
C83    H99     1.083   .     S
C84    H100    1.083   .     S
C84    C661    1.396   .     S
C85    O120    1.381   .     S
C85    C652    1.434   1_554 S
C85    C660    1.396   1_554 S
C86    H104    1.109   .     S
C86    H105    1.111   .     S
C86    O128    1.412   .     S
C86    H103    1.114   .     S
C87    C92     1.411   .     A
C88    O120    1.410   .     S
C88    H106    1.113   .     S
C88    H109    1.109   .     S
C88    H107    1.113   .     S
C89    C93     1.398   .     A
C89    C652    1.429   1_554 S
C89    C666    1.421   1_554 S
C90    C91     1.389   .     A
C90    C657    1.404   .     S
C90    C665    1.421   .     S
C91    H115    1.084   .     S
C91    C92     1.384   .     A
C92    H101    1.079   .     S
C93    H98     1.074   .     S
C94    H97     1.083   .     S
Cu95   O124    1.967   .     S
Cu95   N117    2.010   .     S
Cu95   O126    1.951   .     S
Cu95   O122    1.963   .     S
Cu95   O119    1.965   .     S
Cu95   Cu96    2.675   .     S
Cu96   O121    1.967   .     S
Cu96   N118    2.010   .     S
Cu96   O125    1.965   .     S
Cu96   O123    1.951   .     S
Cu96   O127    1.963   .     S
H116   C657    1.084   .     S
C129   O185    1.290   .     A
C129   O183    1.289   .     A
C129   C137    1.447   .     S
C130   C132    1.474   .     S
C130   C151    1.418   .     A
C130   C147    1.399   .     A
C131   H166    1.083   .     S
C131   C137    1.397   .     A
C131   C325    1.383   .     S
C132   O187    1.295   .     A
C132   O186    1.297   .     A
C133   H172    1.084   .     S
C133   C134    1.403   .     A
C133   C515    1.383   1_545 S
C134   C135    1.413   .     A
C134   C143    1.455   .     S
C135   O192    1.386   .     S
C135   C520    1.392   1_545 S
C136   H174    1.083   .     S
C136   C137    1.397   .     A
C136   C327    1.392   .     S
C138   N182    1.367   .     A
C138   H175    1.079   .     S
C138   C11     1.415   1_655 S
C139   N181    1.366   .     A
C139   H176    1.082   .     S
C140   C151    1.422   .     A
C140   C725    1.434   .     S
C140   C729    1.429   .     S
C141   H177    1.082   .     S
C141   N181    1.367   .     A
C142   H178    1.082   .     S
C142   N182    1.367   .     A
C142   C13     1.416   1_655 S
C143   O188    1.289   .     A
C143   O189    1.294   .     A
C144   O191    1.295   .     A
C144   O190    1.292   .     A
C144   C146    1.462   .     S
C145   C158    1.392   .     A
C145   C730    1.404   1_554 S
C145   H756    1.084   1_554 S
C146   C157    1.398   .     A
C146   C158    1.399   .     A
C147   C148    1.384   .     A
C147   H163    1.083   .     S
C148   H164    1.083   .     S
C148   C725    1.396   .     S
C149   O184    1.381   .     S
C149   C716    1.434   1_554 S
C149   C724    1.396   1_554 S
C150   H168    1.109   .     S
C150   H169    1.111   .     S
C150   O192    1.412   .     S
C150   H167    1.114   .     S
C151   C156    1.411   .     A
C152   O184    1.410   .     S
C152   H170    1.113   .     S
C152   H173    1.109   .     S
C152   H171    1.113   .     S
C153   C157    1.398   .     A
C153   C716    1.429   1_554 S
C153   C730    1.421   1_554 S
C154   C155    1.389   .     A
C154   C721    1.404   .     S
C154   C729    1.421   .     S
C155   H179    1.084   .     S
C155   C156    1.384   .     A
C156   H165    1.079   .     S
C157   H162    1.074   .     S
C158   H161    1.083   .     S
Cu159  O188    1.967   .     S
Cu159  N181    2.010   .     S
Cu159  O190    1.951   .     S
Cu159  O186    1.963   .     S
Cu159  O183    1.965   .     S
Cu159  Cu160   2.675   .     S
Cu160  O185    1.967   .     S
Cu160  N182    2.010   .     S
Cu160  O189    1.965   .     S
Cu160  O187    1.951   .     S
Cu160  O191    1.963   .     S
H180   C721    1.084   .     S
C193   O249    1.290   .     A
C193   O247    1.289   .     A
C193   C201    1.447   .     S
C194   C196    1.474   .     S
C194   C215    1.418   .     A
C194   C211    1.399   .     A
C195   H230    1.083   .     S
C195   C201    1.397   .     A
C195   C389    1.383   .     S
C196   O251    1.295   .     A
C196   O250    1.297   .     A
C197   H236    1.084   .     S
C197   C198    1.403   .     A
C198   C199    1.413   .     A
C198   C207    1.455   .     S
C199   O256    1.386   .     S
C200   H238    1.083   .     S
C200   C201    1.397   .     A
C200   C391    1.392   .     S
C202   N246    1.367   .     A
C202   H239    1.079   .     S
C202   C267    1.415   .     S
C203   N245    1.366   .     A
C203   H240    1.082   .     S
C203   C330    1.415   1_455 S
C204   C215    1.422   .     A
C204   C789    1.434   .     S
C204   C793    1.429   .     S
C205   H241    1.082   .     S
C205   N245    1.367   .     A
C205   C334    1.416   1_455 S
C206   H242    1.082   .     S
C206   N246    1.367   .     A
C206   C269    1.416   .     S
C207   O252    1.289   .     A
C207   O253    1.294   .     A
C208   O255    1.295   .     A
C208   O254    1.292   .     A
C208   C210    1.462   .     S
C209   C222    1.392   .     A
C209   C794    1.404   1_554 S
C209   H820    1.084   1_554 S
C210   C221    1.398   .     A
C210   C222    1.399   .     A
C211   C212    1.384   .     A
C211   H227    1.083   .     S
C212   H228    1.083   .     S
C212   C789    1.396   .     S
C213   O248    1.381   .     S
C213   C780    1.434   1_554 S
C213   C788    1.396   1_554 S
C214   H232    1.109   .     S
C214   H233    1.111   .     S
C214   O256    1.412   .     S
C214   H231    1.114   .     S
C215   C220    1.411   .     A
C216   O248    1.410   .     S
C216   H234    1.113   .     S
C216   H237    1.109   .     S
C216   H235    1.113   .     S
C217   C221    1.398   .     A
C217   C780    1.429   1_554 S
C217   C794    1.421   1_554 S
C218   C219    1.389   .     A
C218   C785    1.404   .     S
C218   C793    1.421   .     S
C219   H243    1.084   .     S
C219   C220    1.384   .     A
C220   H229    1.079   .     S
C221   H226    1.074   .     S
C222   H225    1.083   .     S
Cu223  O252    1.967   .     S
Cu223  N245    2.010   .     S
Cu223  O254    1.951   .     S
Cu223  O250    1.963   .     S
Cu223  O247    1.965   .     S
Cu223  Cu224   2.675   .     S
Cu224  O249    1.967   .     S
Cu224  N246    2.010   .     S
Cu224  O253    1.965   .     S
Cu224  O251    1.951   .     S
Cu224  O255    1.963   .     S
H244   C785    1.084   .     S
C257   O313    1.290   .     A
C257   O311    1.289   .     A
C257   C265    1.447   .     S
C258   C260    1.474   .     S
C258   C279    1.418   .     A
C258   C275    1.399   .     A
C259   H294    1.083   .     S
C259   C265    1.397   .     A
C259   C453    1.383   .     S
C260   O315    1.295   .     A
C260   O314    1.297   .     A
C261   H300    1.084   .     S
C261   C262    1.403   .     A
C262   C263    1.413   .     A
C262   C271    1.455   .     S
C263   O320    1.386   .     S
C264   H302    1.083   .     S
C264   C265    1.397   .     A
C264   C455    1.392   .     S
C266   N310    1.367   .     A
C266   H303    1.079   .     S
C266   C331    1.415   .     S
C267   N309    1.366   .     A
C267   H304    1.082   .     S
C268   C279    1.422   .     A
C268   C853    1.434   .     S
C268   C857    1.429   .     S
C269   H305    1.082   .     S
C269   N309    1.367   .     A
C270   H306    1.082   .     S
C270   N310    1.367   .     A
C270   C333    1.416   .     S
C271   O316    1.289   .     A
C271   O317    1.294   .     A
C272   O319    1.295   .     A
C272   O318    1.292   .     A
C272   C274    1.462   .     S
C273   C286    1.392   .     A
C273   C858    1.404   1_554 S
C273   H884    1.084   1_554 S
C274   C285    1.398   .     A
C274   C286    1.399   .     A
C275   C276    1.384   .     A
C275   H291    1.083   .     S
C276   H292    1.083   .     S
C276   C853    1.396   .     S
C277   O312    1.381   .     S
C277   C844    1.434   1_554 S
C277   C852    1.396   1_554 S
C278   H296    1.109   .     S
C278   H297    1.111   .     S
C278   O320    1.412   .     S
C278   H295    1.114   .     S
C279   C284    1.411   .     A
C280   O312    1.410   .     S
C280   H298    1.113   .     S
C280   H301    1.109   .     S
C280   H299    1.113   .     S
C281   C285    1.398   .     A
C281   C844    1.429   1_554 S
C281   C858    1.421   1_554 S
C282   C283    1.389   .     A
C282   C849    1.404   .     S
C282   C857    1.421   .     S
C283   H307    1.084   .     S
C283   C284    1.384   .     A
C284   H293    1.079   .     S
C285   H290    1.074   .     S
C286   H289    1.083   .     S
Cu287  O316    1.967   .     S
Cu287  N309    2.010   .     S
Cu287  O318    1.951   .     S
Cu287  O314    1.963   .     S
Cu287  O311    1.965   .     S
Cu287  Cu288   2.675   .     S
Cu288  O313    1.967   .     S
Cu288  N310    2.010   .     S
Cu288  O317    1.965   .     S
Cu288  O315    1.951   .     S
Cu288  O319    1.963   .     S
H308   C849    1.084   .     S
C321   O377    1.290   .     A
C321   O375    1.289   .     A
C321   C329    1.447   .     S
C322   C324    1.474   .     S
C322   C343    1.418   .     A
C322   C339    1.399   .     A
C323   H358    1.083   .     S
C323   C329    1.397   .     A
C323   C517    1.383   .     S
C324   O379    1.295   .     A
C324   O378    1.297   .     A
C325   H364    1.084   .     S
C325   C326    1.403   .     A
C326   C327    1.413   .     A
C326   C335    1.455   .     S
C327   O384    1.386   .     S
C328   H366    1.083   .     S
C328   C329    1.397   .     A
C328   C519    1.392   .     S
C330   N374    1.367   .     A
C330   H367    1.079   .     S
C330   C203    1.415   1_655 S
C331   N373    1.366   .     A
C331   H368    1.082   .     S
C332   C343    1.422   .     A
C332   C917    1.434   .     S
C332   C921    1.429   .     S
C333   H369    1.082   .     S
C333   N373    1.367   .     A
C334   H370    1.082   .     S
C334   N374    1.367   .     A
C334   C205    1.416   1_655 S
C335   O380    1.289   .     A
C335   O381    1.294   .     A
C336   O383    1.295   .     A
C336   O382    1.292   .     A
C336   C338    1.462   .     S
C337   C350    1.392   .     A
C337   C922    1.404   1_554 S
C337   H948    1.084   1_554 S
C338   C349    1.398   .     A
C338   C350    1.399   .     A
C339   C340    1.384   .     A
C339   H355    1.083   .     S
C340   H356    1.083   .     S
C340   C917    1.396   .     S
C341   O376    1.381   .     S
C341   C908    1.434   1_554 S
C341   C916    1.396   1_554 S
C342   H360    1.109   .     S
C342   H361    1.111   .     S
C342   O384    1.412   .     S
C342   H359    1.114   .     S
C343   C348    1.411   .     A
C344   O376    1.410   .     S
C344   H362    1.113   .     S
C344   H365    1.109   .     S
C344   H363    1.113   .     S
C345   C349    1.398   .     A
C345   C908    1.429   1_554 S
C345   C922    1.421   1_554 S
C346   C347    1.389   .     A
C346   C913    1.404   .     S
C346   C921    1.421   .     S
C347   H371    1.084   .     S
C347   C348    1.384   .     A
C348   H357    1.079   .     S
C349   H354    1.074   .     S
C350   H353    1.083   .     S
Cu351  O380    1.967   .     S
Cu351  N373    2.010   .     S
Cu351  O382    1.951   .     S
Cu351  O378    1.963   .     S
Cu351  O375    1.965   .     S
Cu351  Cu352   2.675   .     S
Cu352  O377    1.967   .     S
Cu352  N374    2.010   .     S
Cu352  O381    1.965   .     S
Cu352  O379    1.951   .     S
Cu352  O383    1.963   .     S
H372   C913    1.084   .     S
C385   O441    1.290   .     A
C385   O439    1.289   .     A
C385   C393    1.447   .     S
C386   C388    1.474   .     S
C386   C407    1.418   .     A
C386   C403    1.399   .     A
C387   H422    1.083   .     S
C387   C393    1.397   .     A
C387   C5      1.383   1_565 S
C388   O443    1.295   .     A
C388   O442    1.297   .     A
C389   H428    1.084   .     S
C389   C390    1.403   .     A
C390   C391    1.413   .     A
C390   C399    1.455   .     S
C391   O448    1.386   .     S
C392   H430    1.083   .     S
C392   C393    1.397   .     A
C392   C7      1.392   1_565 S
C394   N438    1.367   .     A
C394   H431    1.079   .     S
C394   C459    1.415   .     S
C395   N437    1.366   .     A
C395   H432    1.082   .     S
C395   C522    1.415   1_455 S
C396   C407    1.422   .     A
C396   C981    1.434   .     S
C396   C985    1.429   .     S
C397   H433    1.082   .     S
C397   N437    1.367   .     A
C397   C526    1.416   1_455 S
C398   H434    1.082   .     S
C398   N438    1.367   .     A
C398   C461    1.416   .     S
C399   O444    1.289   .     A
C399   O445    1.294   .     A
C400   O447    1.295   .     A
C400   O446    1.292   .     A
C400   C402    1.462   .     S
C401   C414    1.392   .     A
C401   C986    1.404   1_554 S
C401   H1012   1.084   1_554 S
C402   C413    1.398   .     A
C402   C414    1.399   .     A
C403   C404    1.384   .     A
C403   H419    1.083   .     S
C404   H420    1.083   .     S
C404   C981    1.396   .     S
C405   O440    1.381   .     S
C405   C972    1.434   1_554 S
C405   C980    1.396   1_554 S
C406   H424    1.109   .     S
C406   H425    1.111   .     S
C406   O448    1.412   .     S
C406   H423    1.114   .     S
C407   C412    1.411   .     A
C408   O440    1.410   .     S
C408   H426    1.113   .     S
C408   H429    1.109   .     S
C408   H427    1.113   .     S
C409   C413    1.398   .     A
C409   C972    1.429   1_554 S
C409   C986    1.421   1_554 S
C410   C411    1.389   .     A
C410   C977    1.404   .     S
C410   C985    1.421   .     S
C411   H435    1.084   .     S
C411   C412    1.384   .     A
C412   H421    1.079   .     S
C413   H418    1.074   .     S
C414   H417    1.083   .     S
Cu415  O444    1.967   .     S
Cu415  N437    2.010   .     S
Cu415  O446    1.951   .     S
Cu415  O442    1.963   .     S
Cu415  O439    1.965   .     S
Cu415  Cu416   2.675   .     S
Cu416  O441    1.967   .     S
Cu416  N438    2.010   .     S
Cu416  O445    1.965   .     S
Cu416  O443    1.951   .     S
Cu416  O447    1.963   .     S
H436   C977    1.084   .     S
C449   O505    1.290   .     A
C449   O503    1.289   .     A
C449   C457    1.447   .     S
C450   C452    1.474   .     S
C450   C471    1.418   .     A
C450   C467    1.399   .     A
C451   H486    1.083   .     S
C451   C457    1.397   .     A
C451   C69     1.383   1_565 S
C452   O507    1.295   .     A
C452   O506    1.297   .     A
C453   H492    1.084   .     S
C453   C454    1.403   .     A
C454   C455    1.413   .     A
C454   C463    1.455   .     S
C455   O512    1.386   .     S
C456   H494    1.083   .     S
C456   C457    1.397   .     A
C456   C71     1.392   1_565 S
C458   N502    1.367   .     A
C458   H495    1.079   .     S
C458   C523    1.415   .     S
C459   N501    1.366   .     A
C459   H496    1.082   .     S
C460   C471    1.422   .     A
C460   C1045   1.434   .     S
C460   C1049   1.429   .     S
C461   H497    1.082   .     S
C461   N501    1.367   .     A
C462   H498    1.082   .     S
C462   N502    1.367   .     A
C462   C525    1.416   .     S
C463   O508    1.289   .     A
C463   O509    1.294   .     A
C464   O511    1.295   .     A
C464   O510    1.292   .     A
C464   C466    1.462   .     S
C465   C478    1.392   .     A
C465   C1050   1.404   1_554 S
C465   H1076   1.084   1_554 S
C466   C477    1.398   .     A
C466   C478    1.399   .     A
C467   C468    1.384   .     A
C467   H483    1.083   .     S
C468   H484    1.083   .     S
C468   C1045   1.396   .     S
C469   O504    1.381   .     S
C469   C1036   1.434   1_554 S
C469   C1044   1.396   1_554 S
C470   H488    1.109   .     S
C470   H489    1.111   .     S
C470   O512    1.412   .     S
C470   H487    1.114   .     S
C471   C476    1.411   .     A
C472   O504    1.410   .     S
C472   H490    1.113   .     S
C472   H493    1.109   .     S
C472   H491    1.113   .     S
C473   C477    1.398   .     A
C473   C1036   1.429   1_554 S
C473   C1050   1.421   1_554 S
C474   C475    1.389   .     A
C474   C1041   1.404   .     S
C474   C1049   1.421   .     S
C475   H499    1.084   .     S
C475   C476    1.384   .     A
C476   H485    1.079   .     S
C477   H482    1.074   .     S
C478   H481    1.083   .     S
Cu479  O508    1.967   .     S
Cu479  N501    2.010   .     S
Cu479  O510    1.951   .     S
Cu479  O506    1.963   .     S
Cu479  O503    1.965   .     S
Cu479  Cu480   2.675   .     S
Cu480  O505    1.967   .     S
Cu480  N502    2.010   .     S
Cu480  O509    1.965   .     S
Cu480  O507    1.951   .     S
Cu480  O511    1.963   .     S
H500   C1041   1.084   .     S
C513   O569    1.290   .     A
C513   O567    1.289   .     A
C513   C521    1.447   .     S
C514   C516    1.474   .     S
C514   C535    1.418   .     A
C514   C531    1.399   .     A
C515   H550    1.083   .     S
C515   C521    1.397   .     A
C515   C133    1.383   1_565 S
C516   O571    1.295   .     A
C516   O570    1.297   .     A
C517   H556    1.084   .     S
C517   C518    1.403   .     A
C518   C519    1.413   .     A
C518   C527    1.455   .     S
C519   O576    1.386   .     S
C520   H558    1.083   .     S
C520   C521    1.397   .     A
C520   C135    1.392   1_565 S
C522   N566    1.367   .     A
C522   H559    1.079   .     S
C522   C395    1.415   1_655 S
C523   N565    1.366   .     A
C523   H560    1.082   .     S
C524   C535    1.422   .     A
C524   C1109   1.434   .     S
C524   C1113   1.429   .     S
C525   H561    1.082   .     S
C525   N565    1.367   .     A
C526   H562    1.082   .     S
C526   N566    1.367   .     A
C526   C397    1.416   1_655 S
C527   O572    1.289   .     A
C527   O573    1.294   .     A
C528   O575    1.295   .     A
C528   O574    1.292   .     A
C528   C530    1.462   .     S
C529   C542    1.392   .     A
C529   C1114   1.404   1_554 S
C529   H1140   1.084   1_554 S
C530   C541    1.398   .     A
C530   C542    1.399   .     A
C531   C532    1.384   .     A
C531   H547    1.083   .     S
C532   H548    1.083   .     S
C532   C1109   1.396   .     S
C533   O568    1.381   .     S
C533   C1100   1.434   1_554 S
C533   C1108   1.396   1_554 S
C534   H552    1.109   .     S
C534   H553    1.111   .     S
C534   O576    1.412   .     S
C534   H551    1.114   .     S
C535   C540    1.411   .     A
C536   O568    1.410   .     S
C536   H554    1.113   .     S
C536   H557    1.109   .     S
C536   H555    1.113   .     S
C537   C541    1.398   .     A
C537   C1100   1.429   1_554 S
C537   C1114   1.421   1_554 S
C538   C539    1.389   .     A
C538   C1105   1.404   .     S
C538   C1113   1.421   .     S
C539   H563    1.084   .     S
C539   C540    1.384   .     A
C540   H549    1.079   .     S
C541   H546    1.074   .     S
C542   H545    1.083   .     S
Cu543  O572    1.967   .     S
Cu543  N565    2.010   .     S
Cu543  O574    1.951   .     S
Cu543  O570    1.963   .     S
Cu543  O567    1.965   .     S
Cu543  Cu544   2.675   .     S
Cu544  O569    1.967   .     S
Cu544  N566    2.010   .     S
Cu544  O573    1.965   .     S
Cu544  O571    1.951   .     S
Cu544  O575    1.963   .     S
H564   C1105   1.084   .     S
C577   O633    1.290   .     A
C577   O631    1.289   .     A
C577   C585    1.447   .     S
C578   C580    1.474   .     S
C578   C599    1.418   .     A
C578   C595    1.399   .     A
C579   H614    1.083   .     S
C579   C585    1.397   .     A
C579   C773    1.383   .     S
C580   O635    1.295   .     A
C580   O634    1.297   .     A
C581   H620    1.084   .     S
C581   C582    1.403   .     A
C581   C963    1.383   1_545 S
C582   C583    1.413   .     A
C582   C591    1.455   .     S
C583   O640    1.386   .     S
C583   C968    1.392   1_545 S
C584   H622    1.083   .     S
C584   C585    1.397   .     A
C584   C775    1.392   .     S
C586   N630    1.367   .     A
C586   H623    1.079   .     S
C586   C651    1.415   .     S
C587   N629    1.366   .     A
C587   H624    1.082   .     S
C587   C714    1.415   1_455 S
C588   C599    1.422   .     A
C588   C21     1.434   1_556 S
C588   C25     1.429   1_556 S
C589   H625    1.082   .     S
C589   N629    1.367   .     A
C589   C718    1.416   1_455 S
C590   H626    1.082   .     S
C590   N630    1.367   .     A
C590   C653    1.416   .     S
C591   O636    1.289   .     A
C591   O637    1.294   .     A
C592   O639    1.295   .     A
C592   O638    1.292   .     A
C592   C594    1.462   .     S
C593   C606    1.392   .     A
C594   C605    1.398   .     A
C594   C606    1.399   .     A
C595   C596    1.384   .     A
C595   H611    1.083   .     S
C596   H612    1.083   .     S
C596   C21     1.396   1_556 S
C597   O632    1.381   .     S
C598   H616    1.109   .     S
C598   H617    1.111   .     S
C598   O640    1.412   .     S
C598   H615    1.114   .     S
C599   C604    1.411   .     A
C600   O632    1.410   .     S
C600   H618    1.113   .     S
C600   H621    1.109   .     S
C600   H619    1.113   .     S
C601   C605    1.398   .     A
C602   C603    1.389   .     A
C602   C17     1.404   1_556 S
C602   C25     1.421   1_556 S
C603   H627    1.084   .     S
C603   C604    1.384   .     A
C604   H613    1.079   .     S
C605   H610    1.074   .     S
C606   H609    1.083   .     S
Cu607  O636    1.967   .     S
Cu607  N629    2.010   .     S
Cu607  O638    1.951   .     S
Cu607  O634    1.963   .     S
Cu607  O631    1.965   .     S
Cu607  Cu608   2.675   .     S
Cu608  O633    1.967   .     S
Cu608  N630    2.010   .     S
Cu608  O637    1.965   .     S
Cu608  O635    1.951   .     S
Cu608  O639    1.963   .     S
H628   C17     1.084   1_556 S
C641   O697    1.290   .     A
C641   O695    1.289   .     A
C641   C649    1.447   .     S
C642   C644    1.474   .     S
C642   C663    1.418   .     A
C642   C659    1.399   .     A
C643   H678    1.083   .     S
C643   C649    1.397   .     A
C643   C837    1.383   .     S
C644   O699    1.295   .     A
C644   O698    1.297   .     A
C645   H684    1.084   .     S
C645   C646    1.403   .     A
C645   C1027   1.383   1_545 S
C646   C647    1.413   .     A
C646   C655    1.455   .     S
C647   O704    1.386   .     S
C647   C1032   1.392   1_545 S
C648   H686    1.083   .     S
C648   C649    1.397   .     A
C648   C839    1.392   .     S
C650   N694    1.367   .     A
C650   H687    1.079   .     S
C650   C715    1.415   .     S
C651   N693    1.366   .     A
C651   H688    1.082   .     S
C652   C663    1.422   .     A
C652   C85     1.434   1_556 S
C652   C89     1.429   1_556 S
C653   H689    1.082   .     S
C653   N693    1.367   .     A
C654   H690    1.082   .     S
C654   N694    1.367   .     A
C654   C717    1.416   .     S
C655   O700    1.289   .     A
C655   O701    1.294   .     A
C656   O703    1.295   .     A
C656   O702    1.292   .     A
C656   C658    1.462   .     S
C657   C670    1.392   .     A
C658   C669    1.398   .     A
C658   C670    1.399   .     A
C659   C660    1.384   .     A
C659   H675    1.083   .     S
C660   H676    1.083   .     S
C660   C85     1.396   1_556 S
C661   O696    1.381   .     S
C662   H680    1.109   .     S
C662   H681    1.111   .     S
C662   O704    1.412   .     S
C662   H679    1.114   .     S
C663   C668    1.411   .     A
C664   O696    1.410   .     S
C664   H682    1.113   .     S
C664   H685    1.109   .     S
C664   H683    1.113   .     S
C665   C669    1.398   .     A
C666   C667    1.389   .     A
C666   C81     1.404   1_556 S
C666   C89     1.421   1_556 S
C667   H691    1.084   .     S
C667   C668    1.384   .     A
C668   H677    1.079   .     S
C669   H674    1.074   .     S
C670   H673    1.083   .     S
Cu671  O700    1.967   .     S
Cu671  N693    2.010   .     S
Cu671  O702    1.951   .     S
Cu671  O698    1.963   .     S
Cu671  O695    1.965   .     S
Cu671  Cu672   2.675   .     S
Cu672  O697    1.967   .     S
Cu672  N694    2.010   .     S
Cu672  O701    1.965   .     S
Cu672  O699    1.951   .     S
Cu672  O703    1.963   .     S
H692   C81     1.084   1_556 S
C705   O761    1.290   .     A
C705   O759    1.289   .     A
C705   C713    1.447   .     S
C706   C708    1.474   .     S
C706   C727    1.418   .     A
C706   C723    1.399   .     A
C707   H742    1.083   .     S
C707   C713    1.397   .     A
C707   C901    1.383   .     S
C708   O763    1.295   .     A
C708   O762    1.297   .     A
C709   H748    1.084   .     S
C709   C710    1.403   .     A
C709   C1091   1.383   1_545 S
C710   C711    1.413   .     A
C710   C719    1.455   .     S
C711   O768    1.386   .     S
C711   C1096   1.392   1_545 S
C712   H750    1.083   .     S
C712   C713    1.397   .     A
C712   C903    1.392   .     S
C714   N758    1.367   .     A
C714   H751    1.079   .     S
C714   C587    1.415   1_655 S
C715   N757    1.366   .     A
C715   H752    1.082   .     S
C716   C727    1.422   .     A
C716   C149    1.434   1_556 S
C716   C153    1.429   1_556 S
C717   H753    1.082   .     S
C717   N757    1.367   .     A
C718   H754    1.082   .     S
C718   N758    1.367   .     A
C718   C589    1.416   1_655 S
C719   O764    1.289   .     A
C719   O765    1.294   .     A
C720   O767    1.295   .     A
C720   O766    1.292   .     A
C720   C722    1.462   .     S
C721   C734    1.392   .     A
C722   C733    1.398   .     A
C722   C734    1.399   .     A
C723   C724    1.384   .     A
C723   H739    1.083   .     S
C724   H740    1.083   .     S
C724   C149    1.396   1_556 S
C725   O760    1.381   .     S
C726   H744    1.109   .     S
C726   H745    1.111   .     S
C726   O768    1.412   .     S
C726   H743    1.114   .     S
C727   C732    1.411   .     A
C728   O760    1.410   .     S
C728   H746    1.113   .     S
C728   H749    1.109   .     S
C728   H747    1.113   .     S
C729   C733    1.398   .     A
C730   C731    1.389   .     A
C730   C145    1.404   1_556 S
C730   C153    1.421   1_556 S
C731   H755    1.084   .     S
C731   C732    1.384   .     A
C732   H741    1.079   .     S
C733   H738    1.074   .     S
C734   H737    1.083   .     S
Cu735  O764    1.967   .     S
Cu735  N757    2.010   .     S
Cu735  O766    1.951   .     S
Cu735  O762    1.963   .     S
Cu735  O759    1.965   .     S
Cu735  Cu736   2.675   .     S
Cu736  O761    1.967   .     S
Cu736  N758    2.010   .     S
Cu736  O765    1.965   .     S
Cu736  O763    1.951   .     S
Cu736  O767    1.963   .     S
H756   C145    1.084   1_556 S
C769   O825    1.290   .     A
C769   O823    1.289   .     A
C769   C777    1.447   .     S
C770   C772    1.474   .     S
C770   C791    1.418   .     A
C770   C787    1.399   .     A
C771   H806    1.083   .     S
C771   C777    1.397   .     A
C771   C965    1.383   .     S
C772   O827    1.295   .     A
C772   O826    1.297   .     A
C773   H812    1.084   .     S
C773   C774    1.403   .     A
C774   C775    1.413   .     A
C774   C783    1.455   .     S
C775   O832    1.386   .     S
C776   H814    1.083   .     S
C776   C777    1.397   .     A
C776   C967    1.392   .     S
C778   N822    1.367   .     A
C778   H815    1.079   .     S
C778   C843    1.415   .     S
C779   N821    1.366   .     A
C779   H816    1.082   .     S
C779   C906    1.415   1_455 S
C780   C791    1.422   .     A
C780   C213    1.434   1_556 S
C780   C217    1.429   1_556 S
C781   H817    1.082   .     S
C781   N821    1.367   .     A
C781   C910    1.416   1_455 S
C782   H818    1.082   .     S
C782   N822    1.367   .     A
C782   C845    1.416   .     S
C783   O828    1.289   .     A
C783   O829    1.294   .     A
C784   O831    1.295   .     A
C784   O830    1.292   .     A
C784   C786    1.462   .     S
C785   C798    1.392   .     A
C786   C797    1.398   .     A
C786   C798    1.399   .     A
C787   C788    1.384   .     A
C787   H803    1.083   .     S
C788   H804    1.083   .     S
C788   C213    1.396   1_556 S
C789   O824    1.381   .     S
C790   H808    1.109   .     S
C790   H809    1.111   .     S
C790   O832    1.412   .     S
C790   H807    1.114   .     S
C791   C796    1.411   .     A
C792   O824    1.410   .     S
C792   H810    1.113   .     S
C792   H813    1.109   .     S
C792   H811    1.113   .     S
C793   C797    1.398   .     A
C794   C795    1.389   .     A
C794   C209    1.404   1_556 S
C794   C217    1.421   1_556 S
C795   H819    1.084   .     S
C795   C796    1.384   .     A
C796   H805    1.079   .     S
C797   H802    1.074   .     S
C798   H801    1.083   .     S
Cu799  O828    1.967   .     S
Cu799  N821    2.010   .     S
Cu799  O830    1.951   .     S
Cu799  O826    1.963   .     S
Cu799  O823    1.965   .     S
Cu799  Cu800   2.675   .     S
Cu800  O825    1.967   .     S
Cu800  N822    2.010   .     S
Cu800  O829    1.965   .     S
Cu800  O827    1.951   .     S
Cu800  O831    1.963   .     S
H820   C209    1.084   1_556 S
C833   O889    1.290   .     A
C833   O887    1.289   .     A
C833   C841    1.447   .     S
C834   C836    1.474   .     S
C834   C855    1.418   .     A
C834   C851    1.399   .     A
C835   H870    1.083   .     S
C835   C841    1.397   .     A
C835   C1029   1.383   .     S
C836   O891    1.295   .     A
C836   O890    1.297   .     A
C837   H876    1.084   .     S
C837   C838    1.403   .     A
C838   C839    1.413   .     A
C838   C847    1.455   .     S
C839   O896    1.386   .     S
C840   H878    1.083   .     S
C840   C841    1.397   .     A
C840   C1031   1.392   .     S
C842   N886    1.367   .     A
C842   H879    1.079   .     S
C842   C907    1.415   .     S
C843   N885    1.366   .     A
C843   H880    1.082   .     S
C844   C855    1.422   .     A
C844   C277    1.434   1_556 S
C844   C281    1.429   1_556 S
C845   H881    1.082   .     S
C845   N885    1.367   .     A
C846   H882    1.082   .     S
C846   N886    1.367   .     A
C846   C909    1.416   .     S
C847   O892    1.289   .     A
C847   O893    1.294   .     A
C848   O895    1.295   .     A
C848   O894    1.292   .     A
C848   C850    1.462   .     S
C849   C862    1.392   .     A
C850   C861    1.398   .     A
C850   C862    1.399   .     A
C851   C852    1.384   .     A
C851   H867    1.083   .     S
C852   H868    1.083   .     S
C852   C277    1.396   1_556 S
C853   O888    1.381   .     S
C854   H872    1.109   .     S
C854   H873    1.111   .     S
C854   O896    1.412   .     S
C854   H871    1.114   .     S
C855   C860    1.411   .     A
C856   O888    1.410   .     S
C856   H874    1.113   .     S
C856   H877    1.109   .     S
C856   H875    1.113   .     S
C857   C861    1.398   .     A
C858   C859    1.389   .     A
C858   C273    1.404   1_556 S
C858   C281    1.421   1_556 S
C859   H883    1.084   .     S
C859   C860    1.384   .     A
C860   H869    1.079   .     S
C861   H866    1.074   .     S
C862   H865    1.083   .     S
Cu863  O892    1.967   .     S
Cu863  N885    2.010   .     S
Cu863  O894    1.951   .     S
Cu863  O890    1.963   .     S
Cu863  O887    1.965   .     S
Cu863  Cu864   2.675   .     S
Cu864  O889    1.967   .     S
Cu864  N886    2.010   .     S
Cu864  O893    1.965   .     S
Cu864  O891    1.951   .     S
Cu864  O895    1.963   .     S
H884   C273    1.084   1_556 S
C897   O953    1.290   .     A
C897   O951    1.289   .     A
C897   C905    1.447   .     S
C898   C900    1.474   .     S
C898   C919    1.418   .     A
C898   C915    1.399   .     A
C899   H934    1.083   .     S
C899   C905    1.397   .     A
C899   C1093   1.383   .     S
C900   O955    1.295   .     A
C900   O954    1.297   .     A
C901   H940    1.084   .     S
C901   C902    1.403   .     A
C902   C903    1.413   .     A
C902   C911    1.455   .     S
C903   O960    1.386   .     S
C904   H942    1.083   .     S
C904   C905    1.397   .     A
C904   C1095   1.392   .     S
C906   N950    1.367   .     A
C906   H943    1.079   .     S
C906   C779    1.415   1_655 S
C907   N949    1.366   .     A
C907   H944    1.082   .     S
C908   C919    1.422   .     A
C908   C341    1.434   1_556 S
C908   C345    1.429   1_556 S
C909   H945    1.082   .     S
C909   N949    1.367   .     A
C910   H946    1.082   .     S
C910   N950    1.367   .     A
C910   C781    1.416   1_655 S
C911   O956    1.289   .     A
C911   O957    1.294   .     A
C912   O959    1.295   .     A
C912   O958    1.292   .     A
C912   C914    1.462   .     S
C913   C926    1.392   .     A
C914   C925    1.398   .     A
C914   C926    1.399   .     A
C915   C916    1.384   .     A
C915   H931    1.083   .     S
C916   H932    1.083   .     S
C916   C341    1.396   1_556 S
C917   O952    1.381   .     S
C918   H936    1.109   .     S
C918   H937    1.111   .     S
C918   O960    1.412   .     S
C918   H935    1.114   .     S
C919   C924    1.411   .     A
C920   O952    1.410   .     S
C920   H938    1.113   .     S
C920   H941    1.109   .     S
C920   H939    1.113   .     S
C921   C925    1.398   .     A
C922   C923    1.389   .     A
C922   C337    1.404   1_556 S
C922   C345    1.421   1_556 S
C923   H947    1.084   .     S
C923   C924    1.384   .     A
C924   H933    1.079   .     S
C925   H930    1.074   .     S
C926   H929    1.083   .     S
Cu927  O956    1.967   .     S
Cu927  N949    2.010   .     S
Cu927  O958    1.951   .     S
Cu927  O954    1.963   .     S
Cu927  O951    1.965   .     S
Cu927  Cu928   2.675   .     S
Cu928  O953    1.967   .     S
Cu928  N950    2.010   .     S
Cu928  O957    1.965   .     S
Cu928  O955    1.951   .     S
Cu928  O959    1.963   .     S
H948   C337    1.084   1_556 S
C961   O1017   1.290   .     A
C961   O1015   1.289   .     A
C961   C969    1.447   .     S
C962   C964    1.474   .     S
C962   C983    1.418   .     A
C962   C979    1.399   .     A
C963   H998    1.083   .     S
C963   C969    1.397   .     A
C963   C581    1.383   1_565 S
C964   O1019   1.295   .     A
C964   O1018   1.297   .     A
C965   H1004   1.084   .     S
C965   C966    1.403   .     A
C966   C967    1.413   .     A
C966   C975    1.455   .     S
C967   O1024   1.386   .     S
C968   H1006   1.083   .     S
C968   C969    1.397   .     A
C968   C583    1.392   1_565 S
C970   N1014   1.367   .     A
C970   H1007   1.079   .     S
C970   C1035   1.415   .     S
C971   N1013   1.366   .     A
C971   H1008   1.082   .     S
C971   C1098   1.415   1_455 S
C972   C983    1.422   .     A
C972   C405    1.434   1_556 S
C972   C409    1.429   1_556 S
C973   H1009   1.082   .     S
C973   N1013   1.367   .     A
C973   C1102   1.416   1_455 S
C974   H1010   1.082   .     S
C974   N1014   1.367   .     A
C974   C1037   1.416   .     S
C975   O1020   1.289   .     A
C975   O1021   1.294   .     A
C976   O1023   1.295   .     A
C976   O1022   1.292   .     A
C976   C978    1.462   .     S
C977   C990    1.392   .     A
C978   C989    1.398   .     A
C978   C990    1.399   .     A
C979   C980    1.384   .     A
C979   H995    1.083   .     S
C980   H996    1.083   .     S
C980   C405    1.396   1_556 S
C981   O1016   1.381   .     S
C982   H1000   1.109   .     S
C982   H1001   1.111   .     S
C982   O1024   1.412   .     S
C982   H999    1.114   .     S
C983   C988    1.411   .     A
C984   O1016   1.410   .     S
C984   H1002   1.113   .     S
C984   H1005   1.109   .     S
C984   H1003   1.113   .     S
C985   C989    1.398   .     A
C986   C987    1.389   .     A
C986   C401    1.404   1_556 S
C986   C409    1.421   1_556 S
C987   H1011   1.084   .     S
C987   C988    1.384   .     A
C988   H997    1.079   .     S
C989   H994    1.074   .     S
C990   H993    1.083   .     S
Cu991  O1020   1.967   .     S
Cu991  N1013   2.010   .     S
Cu991  O1022   1.951   .     S
Cu991  O1018   1.963   .     S
Cu991  O1015   1.965   .     S
Cu991  Cu992   2.675   .     S
Cu992  O1017   1.967   .     S
Cu992  N1014   2.010   .     S
Cu992  O1021   1.965   .     S
Cu992  O1019   1.951   .     S
Cu992  O1023   1.963   .     S
H1012  C401    1.084   1_556 S
C1025  O1081   1.290   .     A
C1025  O1079   1.289   .     A
C1025  C1033   1.447   .     S
C1026  C1028   1.474   .     S
C1026  C1047   1.418   .     A
C1026  C1043   1.399   .     A
C1027  H1062   1.083   .     S
C1027  C1033   1.397   .     A
C1027  C645    1.383   1_565 S
C1028  O1083   1.295   .     A
C1028  O1082   1.297   .     A
C1029  H1068   1.084   .     S
C1029  C1030   1.403   .     A
C1030  C1031   1.413   .     A
C1030  C1039   1.455   .     S
C1031  O1088   1.386   .     S
C1032  H1070   1.083   .     S
C1032  C1033   1.397   .     A
C1032  C647    1.392   1_565 S
C1034  N1078   1.367   .     A
C1034  H1071   1.079   .     S
C1034  C1099   1.415   .     S
C1035  N1077   1.366   .     A
C1035  H1072   1.082   .     S
C1036  C1047   1.422   .     A
C1036  C469    1.434   1_556 S
C1036  C473    1.429   1_556 S
C1037  H1073   1.082   .     S
C1037  N1077   1.367   .     A
C1038  H1074   1.082   .     S
C1038  N1078   1.367   .     A
C1038  C1101   1.416   .     S
C1039  O1084   1.289   .     A
C1039  O1085   1.294   .     A
C1040  O1087   1.295   .     A
C1040  O1086   1.292   .     A
C1040  C1042   1.462   .     S
C1041  C1054   1.392   .     A
C1042  C1053   1.398   .     A
C1042  C1054   1.399   .     A
C1043  C1044   1.384   .     A
C1043  H1059   1.083   .     S
C1044  H1060   1.083   .     S
C1044  C469    1.396   1_556 S
C1045  O1080   1.381   .     S
C1046  H1064   1.109   .     S
C1046  H1065   1.111   .     S
C1046  O1088   1.412   .     S
C1046  H1063   1.114   .     S
C1047  C1052   1.411   .     A
C1048  O1080   1.410   .     S
C1048  H1066   1.113   .     S
C1048  H1069   1.109   .     S
C1048  H1067   1.113   .     S
C1049  C1053   1.398   .     A
C1050  C1051   1.389   .     A
C1050  C465    1.404   1_556 S
C1050  C473    1.421   1_556 S
C1051  H1075   1.084   .     S
C1051  C1052   1.384   .     A
C1052  H1061   1.079   .     S
C1053  H1058   1.074   .     S
C1054  H1057   1.083   .     S
Cu1055 O1084   1.967   .     S
Cu1055 N1077   2.010   .     S
Cu1055 O1086   1.951   .     S
Cu1055 O1082   1.963   .     S
Cu1055 O1079   1.965   .     S
Cu1055 Cu1056  2.675   .     S
Cu1056 O1081   1.967   .     S
Cu1056 N1078   2.010   .     S
Cu1056 O1085   1.965   .     S
Cu1056 O1083   1.951   .     S
Cu1056 O1087   1.963   .     S
H1076  C465    1.084   1_556 S
C1089  O1145   1.290   .     A
C1089  O1143   1.289   .     A
C1089  C1097   1.447   .     S
C1090  C1092   1.474   .     S
C1090  C1111   1.418   .     A
C1090  C1107   1.399   .     A
C1091  H1126   1.083   .     S
C1091  C1097   1.397   .     A
C1091  C709    1.383   1_565 S
C1092  O1147   1.295   .     A
C1092  O1146   1.297   .     A
C1093  H1132   1.084   .     S
C1093  C1094   1.403   .     A
C1094  C1095   1.413   .     A
C1094  C1103   1.455   .     S
C1095  O1152   1.386   .     S
C1096  H1134   1.083   .     S
C1096  C1097   1.397   .     A
C1096  C711    1.392   1_565 S
C1098  N1142   1.367   .     A
C1098  H1135   1.079   .     S
C1098  C971    1.415   1_655 S
C1099  N1141   1.366   .     A
C1099  H1136   1.082   .     S
C1100  C1111   1.422   .     A
C1100  C533    1.434   1_556 S
C1100  C537    1.429   1_556 S
C1101  H1137   1.082   .     S
C1101  N1141   1.367   .     A
C1102  H1138   1.082   .     S
C1102  N1142   1.367   .     A
C1102  C973    1.416   1_655 S
C1103  O1148   1.289   .     A
C1103  O1149   1.294   .     A
C1104  O1151   1.295   .     A
C1104  O1150   1.292   .     A
C1104  C1106   1.462   .     S
C1105  C1118   1.392   .     A
C1106  C1117   1.398   .     A
C1106  C1118   1.399   .     A
C1107  C1108   1.384   .     A
C1107  H1123   1.083   .     S
C1108  H1124   1.083   .     S
C1108  C533    1.396   1_556 S
C1109  O1144   1.381   .     S
C1110  H1128   1.109   .     S
C1110  H1129   1.111   .     S
C1110  O1152   1.412   .     S
C1110  H1127   1.114   .     S
C1111  C1116   1.411   .     A
C1112  O1144   1.410   .     S
C1112  H1130   1.113   .     S
C1112  H1133   1.109   .     S
C1112  H1131   1.113   .     S
C1113  C1117   1.398   .     A
C1114  C1115   1.389   .     A
C1114  C529    1.404   1_556 S
C1114  C537    1.421   1_556 S
C1115  H1139   1.084   .     S
C1115  C1116   1.384   .     A
C1116  H1125   1.079   .     S
C1117  H1122   1.074   .     S
C1118  H1121   1.083   .     S
Cu1119 O1148   1.967   .     S
Cu1119 N1141   2.010   .     S
Cu1119 O1150   1.951   .     S
Cu1119 O1146   1.963   .     S
Cu1119 O1143   1.965   .     S
Cu1119 Cu1120  2.675   .     S
Cu1120 O1145   1.967   .     S
Cu1120 N1142   2.010   .     S
Cu1120 O1149   1.965   .     S
Cu1120 O1147   1.951   .     S
Cu1120 O1151   1.963   .     S
H1140  C529    1.084   1_556 S
