data_str_m2_o1_o16_pcu_sym.171
_audit_creation_date              2020-01-03
_audit_creation_method            'Materials Studio'
_symmetry_space_group_name_H-M    'P1'
_symmetry_Int_Tables_number       1
_symmetry_cell_setting            triclinic
loop_
_symmetry_equiv_pos_as_xyz
  x,y,z
_cell_length_a                    28.6803
_cell_length_b                    32.4706
_cell_length_c                    26.8059
_cell_angle_alpha                 91.0717
_cell_angle_beta                  72.1790
_cell_angle_gamma                 89.8855
loop_
_atom_site_label
_atom_site_type_symbol
_atom_site_fract_x
_atom_site_fract_y
_atom_site_fract_z
_atom_site_U_iso_or_equiv
_atom_site_adp_type
_atom_site_occupancy
C1     C     0.16651   0.24594   0.25049   0.00000  Uiso   1.00
C2     C     0.15116   0.17091   0.48695   0.00000  Uiso   1.00
C3     C     0.15525   0.15512   0.43616   0.00000  Uiso   1.00
C4     C     0.18358   0.15582   0.01353   0.00000  Uiso   1.00
C5     C     0.21405   0.12111   0.49229   0.00000  Uiso   1.00
C6     C     0.21828   0.10602   0.44142   0.00000  Uiso   1.00
C7     C     0.18822   0.12259   0.41472   0.00000  Uiso   1.00
C8     C     0.18480   0.17259   0.06217   0.00000  Uiso   1.00
C9     C     0.22499   0.11095   0.07729   0.00000  Uiso   1.00
C10    C     0.12583   0.17183   0.40759   0.00000  Uiso   1.00
C11    C     0.20734   0.31205   0.25546   0.00000  Uiso   1.00
C12    C     0.14044   0.16703   0.35017   0.00000  Uiso   1.00
C13    C     0.20712   0.02134   0.25619   0.00000  Uiso   1.00
C14    C     0.16576   0.04283   0.25302   0.00000  Uiso   1.00
C15    C     0.12431   0.02139   0.25004   0.00000  Uiso   1.00
C16    C     0.12449   0.31213   0.24940   0.00000  Uiso   1.00
C17    C     0.16613   0.29061   0.25174   0.00000  Uiso   1.00
C18    C     0.29863   0.19134   0.28430   0.00000  Uiso   1.00
C19    C     0.01485   0.19130   0.28431   0.00000  Uiso   1.00
C20    C     0.03515   0.14216   0.21601   0.00000  Uiso   1.00
C21    C     0.31945   0.14210   0.21580   0.00000  Uiso   1.00
C22    C     0.16622   0.08745   0.25157   0.00000  Uiso   1.00
C23    C     0.19256   0.16287   0.15019   0.00000  Uiso   1.00
C24    C     0.23414   0.09891   0.02521   0.00000  Uiso   1.00
C25    C     0.20563   0.15045   0.09450   0.00000  Uiso   1.00
C26    C     0.08761   0.19913   0.43235   0.00000  Uiso   1.00
C27    C     0.07997   0.21216   0.48436   0.00000  Uiso   1.00
C28    C     0.11245   0.19888   0.01081   0.00000  Uiso   1.00
Cu29   Cu    0.11978   0.16666   0.25000   0.00000  Uiso   1.00
Cu30   Cu    0.21355   0.16667   0.25000   0.00000  Uiso   1.00
H31    H     0.23943   0.03735   0.25877   0.00000  Uiso   1.00
H32    H     0.09194   0.03743   0.24761   0.00000  Uiso   1.00
H33    H     0.09221   0.29614   0.24669   0.00000  Uiso   1.00
H34    H     0.27216   0.21116   0.31175   0.00000  Uiso   1.00
H35    H     0.02553   0.21108   0.31180   0.00000  Uiso   1.00
H36    H     0.06207   0.12249   0.18882   0.00000  Uiso   1.00
H37    H     0.25005   0.06867   0.01342   0.00000  Uiso   1.00
H38    H     0.16694   0.20153   0.07732   0.00000  Uiso   1.00
H39    H     0.06497   0.21152   0.41031   0.00000  Uiso   1.00
H40    H     0.10550   0.20929   0.05087   0.00000  Uiso   1.00
H41    H     0.18983   0.10866   0.37723   0.00000  Uiso   1.00
H42    H     0.23977   0.29600   0.25768   0.00000  Uiso   1.00
N43    N     0.04931   0.16666   0.24998   0.00000  Uiso   1.00
N44    N     0.28402   0.16669   0.24999   0.00000  Uiso   1.00
O45    O     0.12708   0.22678   0.25000   0.00000  Uiso   1.00
O46    O     0.20627   0.22679   0.25000   0.00000  Uiso   1.00
O47    O     0.10775   0.16665   0.32549   0.00000  Uiso   1.00
O48    O     0.18694   0.16666   0.32549   0.00000  Uiso   1.00
O49    O     0.12706   0.10654   0.24999   0.00000  Uiso   1.00
O50    O     0.20625   0.10655   0.24999   0.00000  Uiso   1.00
O51    O     0.14640   0.16667   0.17451   0.00000  Uiso   1.00
O52    O     0.22559   0.16668   0.17451   0.00000  Uiso   1.00
Br53   Br    0.22154   0.06648   0.12394   0.00000  Uiso   1.00
Br54   Br    0.30711   0.10613   0.16527   0.00000  Uiso   1.00
C55    C     0.25423   0.07342   0.41445   0.00000  Uiso   1.00
O56    O     0.24386   0.04845   0.38484   0.00000  Uiso   1.00
O57    O     0.30068   0.07227   0.42119   0.00000  Uiso   1.00
H58    H     0.32197   0.04907   0.40025   0.00000  Uiso   1.00
C59    C     0.03870   0.24049   0.01086   0.00000  Uiso   1.00
O60    O     0.01057   0.25222   0.48766   0.00000  Uiso   1.00
O61    O     0.03164   0.25375   0.06263   0.00000  Uiso   1.00
H62    H     0.00225   0.27280   0.07633   0.00000  Uiso   1.00
C63    C     0.49984   0.24594   0.25049   0.00000  Uiso   1.00
C64    C     0.48450   0.17091   0.48695   0.00000  Uiso   1.00
C65    C     0.48858   0.15512   0.43616   0.00000  Uiso   1.00
C66    C     0.51691   0.15582   0.01353   0.00000  Uiso   1.00
C67    C     0.54739   0.12111   0.49229   0.00000  Uiso   1.00
C68    C     0.55161   0.10602   0.44142   0.00000  Uiso   1.00
C69    C     0.52156   0.12259   0.41472   0.00000  Uiso   1.00
C70    C     0.51813   0.17259   0.06217   0.00000  Uiso   1.00
C71    C     0.55832   0.11095   0.07729   0.00000  Uiso   1.00
C72    C     0.45917   0.17183   0.40759   0.00000  Uiso   1.00
C73    C     0.54067   0.31205   0.25546   0.00000  Uiso   1.00
C74    C     0.47377   0.16703   0.35017   0.00000  Uiso   1.00
C75    C     0.54046   0.02134   0.25619   0.00000  Uiso   1.00
C76    C     0.49910   0.04283   0.25302   0.00000  Uiso   1.00
C77    C     0.45764   0.02139   0.25004   0.00000  Uiso   1.00
C78    C     0.45783   0.31213   0.24940   0.00000  Uiso   1.00
C79    C     0.49946   0.29061   0.25174   0.00000  Uiso   1.00
C80    C     0.63196   0.19134   0.28430   0.00000  Uiso   1.00
C81    C     0.34819   0.19130   0.28431   0.00000  Uiso   1.00
C82    C     0.36849   0.14216   0.21601   0.00000  Uiso   1.00
C83    C     0.65279   0.14210   0.21580   0.00000  Uiso   1.00
C84    C     0.49955   0.08745   0.25157   0.00000  Uiso   1.00
C85    C     0.52589   0.16287   0.15019   0.00000  Uiso   1.00
C86    C     0.56748   0.09891   0.02521   0.00000  Uiso   1.00
C87    C     0.53896   0.15045   0.09450   0.00000  Uiso   1.00
C88    C     0.42094   0.19913   0.43235   0.00000  Uiso   1.00
C89    C     0.41330   0.21216   0.48436   0.00000  Uiso   1.00
C90    C     0.44579   0.19888   0.01081   0.00000  Uiso   1.00
Cu91   Cu    0.45311   0.16666   0.25000   0.00000  Uiso   1.00
Cu92   Cu    0.54689   0.16667   0.25000   0.00000  Uiso   1.00
H93    H     0.57276   0.03735   0.25877   0.00000  Uiso   1.00
H94    H     0.42528   0.03743   0.24761   0.00000  Uiso   1.00
H95    H     0.42555   0.29614   0.24669   0.00000  Uiso   1.00
H96    H     0.60550   0.21116   0.31175   0.00000  Uiso   1.00
H97    H     0.35886   0.21108   0.31180   0.00000  Uiso   1.00
H98    H     0.39541   0.12249   0.18882   0.00000  Uiso   1.00
H99    H     0.58338   0.06867   0.01342   0.00000  Uiso   1.00
H100   H     0.50028   0.20153   0.07732   0.00000  Uiso   1.00
H101   H     0.39831   0.21152   0.41031   0.00000  Uiso   1.00
H102   H     0.43884   0.20929   0.05087   0.00000  Uiso   1.00
H103   H     0.52316   0.10866   0.37723   0.00000  Uiso   1.00
H104   H     0.57310   0.29600   0.25768   0.00000  Uiso   1.00
N105   N     0.38265   0.16666   0.24998   0.00000  Uiso   1.00
N106   N     0.61735   0.16669   0.24999   0.00000  Uiso   1.00
O107   O     0.46042   0.22678   0.25000   0.00000  Uiso   1.00
O108   O     0.53961   0.22679   0.25000   0.00000  Uiso   1.00
O109   O     0.44108   0.16665   0.32549   0.00000  Uiso   1.00
O110   O     0.52027   0.16666   0.32549   0.00000  Uiso   1.00
O111   O     0.46039   0.10654   0.24999   0.00000  Uiso   1.00
O112   O     0.53958   0.10655   0.24999   0.00000  Uiso   1.00
O113   O     0.47973   0.16667   0.17451   0.00000  Uiso   1.00
O114   O     0.55892   0.16668   0.17451   0.00000  Uiso   1.00
Br115  Br    0.55487   0.06648   0.12394   0.00000  Uiso   1.00
Br116  Br    0.64044   0.10613   0.16527   0.00000  Uiso   1.00
C117   C     0.58756   0.07342   0.41445   0.00000  Uiso   1.00
O118   O     0.57719   0.04845   0.38484   0.00000  Uiso   1.00
O119   O     0.63402   0.07227   0.42119   0.00000  Uiso   1.00
H120   H     0.65530   0.04907   0.40025   0.00000  Uiso   1.00
C121   C     0.37203   0.24049   0.01086   0.00000  Uiso   1.00
O122   O     0.34391   0.25222   0.48766   0.00000  Uiso   1.00
O123   O     0.36498   0.25375   0.06263   0.00000  Uiso   1.00
H124   H     0.33558   0.27280   0.07633   0.00000  Uiso   1.00
C125   C     0.83318   0.24594   0.25049   0.00000  Uiso   1.00
C126   C     0.81783   0.17091   0.48695   0.00000  Uiso   1.00
C127   C     0.82191   0.15512   0.43616   0.00000  Uiso   1.00
C128   C     0.85025   0.15582   0.01353   0.00000  Uiso   1.00
C129   C     0.88072   0.12111   0.49229   0.00000  Uiso   1.00
C130   C     0.88495   0.10602   0.44142   0.00000  Uiso   1.00
C131   C     0.85489   0.12259   0.41472   0.00000  Uiso   1.00
C132   C     0.85147   0.17259   0.06217   0.00000  Uiso   1.00
C133   C     0.89166   0.11095   0.07729   0.00000  Uiso   1.00
C134   C     0.79250   0.17183   0.40759   0.00000  Uiso   1.00
C135   C     0.87400   0.31205   0.25546   0.00000  Uiso   1.00
C136   C     0.80711   0.16703   0.35017   0.00000  Uiso   1.00
C137   C     0.87379   0.02134   0.25619   0.00000  Uiso   1.00
C138   C     0.83243   0.04283   0.25302   0.00000  Uiso   1.00
C139   C     0.79098   0.02139   0.25004   0.00000  Uiso   1.00
C140   C     0.79116   0.31213   0.24940   0.00000  Uiso   1.00
C141   C     0.83279   0.29061   0.25174   0.00000  Uiso   1.00
C142   C     0.96530   0.19134   0.28430   0.00000  Uiso   1.00
C143   C     0.68152   0.19130   0.28431   0.00000  Uiso   1.00
C144   C     0.70182   0.14216   0.21601   0.00000  Uiso   1.00
C145   C     0.98612   0.14210   0.21580   0.00000  Uiso   1.00
C146   C     0.83289   0.08745   0.25157   0.00000  Uiso   1.00
C147   C     0.85923   0.16287   0.15019   0.00000  Uiso   1.00
C148   C     0.90081   0.09891   0.02521   0.00000  Uiso   1.00
C149   C     0.87230   0.15045   0.09450   0.00000  Uiso   1.00
C150   C     0.75428   0.19913   0.43235   0.00000  Uiso   1.00
C151   C     0.74663   0.21216   0.48436   0.00000  Uiso   1.00
C152   C     0.77912   0.19888   0.01081   0.00000  Uiso   1.00
Cu153  Cu    0.78645   0.16666   0.25000   0.00000  Uiso   1.00
Cu154  Cu    0.88022   0.16667   0.25000   0.00000  Uiso   1.00
H155   H     0.90610   0.03735   0.25877   0.00000  Uiso   1.00
H156   H     0.75861   0.03743   0.24761   0.00000  Uiso   1.00
H157   H     0.75888   0.29614   0.24669   0.00000  Uiso   1.00
H158   H     0.93883   0.21116   0.31175   0.00000  Uiso   1.00
H159   H     0.69219   0.21108   0.31180   0.00000  Uiso   1.00
H160   H     0.72874   0.12249   0.18882   0.00000  Uiso   1.00
H161   H     0.91671   0.06867   0.01342   0.00000  Uiso   1.00
H162   H     0.83361   0.20153   0.07732   0.00000  Uiso   1.00
H163   H     0.73164   0.21152   0.41031   0.00000  Uiso   1.00
H164   H     0.77217   0.20929   0.05087   0.00000  Uiso   1.00
H165   H     0.85649   0.10866   0.37723   0.00000  Uiso   1.00
H166   H     0.90643   0.29600   0.25768   0.00000  Uiso   1.00
N167   N     0.71598   0.16666   0.24998   0.00000  Uiso   1.00
N168   N     0.95069   0.16669   0.24999   0.00000  Uiso   1.00
O169   O     0.79375   0.22678   0.25000   0.00000  Uiso   1.00
O170   O     0.87294   0.22679   0.25000   0.00000  Uiso   1.00
O171   O     0.77441   0.16665   0.32549   0.00000  Uiso   1.00
O172   O     0.85360   0.16666   0.32549   0.00000  Uiso   1.00
O173   O     0.79373   0.10654   0.24999   0.00000  Uiso   1.00
O174   O     0.87292   0.10655   0.24999   0.00000  Uiso   1.00
O175   O     0.81306   0.16667   0.17451   0.00000  Uiso   1.00
O176   O     0.89225   0.16668   0.17451   0.00000  Uiso   1.00
Br177  Br    0.88821   0.06648   0.12394   0.00000  Uiso   1.00
Br178  Br    0.97378   0.10613   0.16527   0.00000  Uiso   1.00
C179   C     0.92089   0.07342   0.41445   0.00000  Uiso   1.00
O180   O     0.91052   0.04845   0.38484   0.00000  Uiso   1.00
O181   O     0.96735   0.07227   0.42119   0.00000  Uiso   1.00
H182   H     0.98863   0.04907   0.40025   0.00000  Uiso   1.00
C183   C     0.70536   0.24049   0.01086   0.00000  Uiso   1.00
O184   O     0.67724   0.25222   0.48766   0.00000  Uiso   1.00
O185   O     0.69831   0.25375   0.06263   0.00000  Uiso   1.00
H186   H     0.66891   0.27280   0.07633   0.00000  Uiso   1.00
C187   C     0.16651   0.57928   0.25049   0.00000  Uiso   1.00
C188   C     0.15116   0.50424   0.48695   0.00000  Uiso   1.00
C189   C     0.15525   0.48846   0.43616   0.00000  Uiso   1.00
C190   C     0.18358   0.48915   0.01353   0.00000  Uiso   1.00
C191   C     0.21405   0.45445   0.49229   0.00000  Uiso   1.00
C192   C     0.21828   0.43935   0.44142   0.00000  Uiso   1.00
C193   C     0.18822   0.45592   0.41472   0.00000  Uiso   1.00
C194   C     0.18480   0.50593   0.06217   0.00000  Uiso   1.00
C195   C     0.22499   0.44429   0.07729   0.00000  Uiso   1.00
C196   C     0.12583   0.50516   0.40759   0.00000  Uiso   1.00
C197   C     0.20734   0.64539   0.25546   0.00000  Uiso   1.00
C198   C     0.14044   0.50036   0.35017   0.00000  Uiso   1.00
C199   C     0.20712   0.35467   0.25619   0.00000  Uiso   1.00
C200   C     0.16576   0.37616   0.25302   0.00000  Uiso   1.00
C201   C     0.12431   0.35473   0.25004   0.00000  Uiso   1.00
C202   C     0.12449   0.64546   0.24940   0.00000  Uiso   1.00
C203   C     0.16613   0.62394   0.25174   0.00000  Uiso   1.00
C204   C     0.29863   0.52468   0.28430   0.00000  Uiso   1.00
C205   C     0.01485   0.52464   0.28431   0.00000  Uiso   1.00
C206   C     0.03515   0.47550   0.21601   0.00000  Uiso   1.00
C207   C     0.31945   0.47543   0.21580   0.00000  Uiso   1.00
C208   C     0.16622   0.42079   0.25157   0.00000  Uiso   1.00
C209   C     0.19256   0.49621   0.15019   0.00000  Uiso   1.00
C210   C     0.23414   0.43224   0.02521   0.00000  Uiso   1.00
C211   C     0.20563   0.48378   0.09450   0.00000  Uiso   1.00
C212   C     0.08761   0.53246   0.43235   0.00000  Uiso   1.00
C213   C     0.07997   0.54550   0.48436   0.00000  Uiso   1.00
C214   C     0.11245   0.53221   0.01081   0.00000  Uiso   1.00
Cu215  Cu    0.11978   0.49999   0.25000   0.00000  Uiso   1.00
Cu216  Cu    0.21355   0.50001   0.25000   0.00000  Uiso   1.00
H217   H     0.23943   0.37068   0.25877   0.00000  Uiso   1.00
H218   H     0.09194   0.37077   0.24761   0.00000  Uiso   1.00
H219   H     0.09221   0.62948   0.24669   0.00000  Uiso   1.00
H220   H     0.27216   0.54449   0.31175   0.00000  Uiso   1.00
H221   H     0.02553   0.54441   0.31180   0.00000  Uiso   1.00
H222   H     0.06207   0.45582   0.18882   0.00000  Uiso   1.00
H223   H     0.25005   0.40200   0.01342   0.00000  Uiso   1.00
H224   H     0.16694   0.53486   0.07732   0.00000  Uiso   1.00
H225   H     0.06497   0.54485   0.41031   0.00000  Uiso   1.00
H226   H     0.10550   0.54263   0.05087   0.00000  Uiso   1.00
H227   H     0.18983   0.44199   0.37723   0.00000  Uiso   1.00
H228   H     0.23977   0.62933   0.25768   0.00000  Uiso   1.00
N229   N     0.04931   0.49999   0.24998   0.00000  Uiso   1.00
N230   N     0.28402   0.50002   0.24999   0.00000  Uiso   1.00
O231   O     0.12708   0.56011   0.25000   0.00000  Uiso   1.00
O232   O     0.20627   0.56012   0.25000   0.00000  Uiso   1.00
O233   O     0.10775   0.49998   0.32549   0.00000  Uiso   1.00
O234   O     0.18694   0.49999   0.32549   0.00000  Uiso   1.00
O235   O     0.12706   0.43988   0.24999   0.00000  Uiso   1.00
O236   O     0.20625   0.43989   0.24999   0.00000  Uiso   1.00
O237   O     0.14640   0.50001   0.17451   0.00000  Uiso   1.00
O238   O     0.22559   0.50002   0.17451   0.00000  Uiso   1.00
Br239  Br    0.22154   0.39981   0.12394   0.00000  Uiso   1.00
Br240  Br    0.30711   0.43947   0.16527   0.00000  Uiso   1.00
C241   C     0.25423   0.40675   0.41445   0.00000  Uiso   1.00
O242   O     0.24386   0.38178   0.38484   0.00000  Uiso   1.00
O243   O     0.30068   0.40561   0.42119   0.00000  Uiso   1.00
H244   H     0.32197   0.38240   0.40025   0.00000  Uiso   1.00
C245   C     0.03870   0.57382   0.01086   0.00000  Uiso   1.00
O246   O     0.01057   0.58555   0.48766   0.00000  Uiso   1.00
O247   O     0.03164   0.58709   0.06263   0.00000  Uiso   1.00
H248   H     0.00225   0.60614   0.07633   0.00000  Uiso   1.00
C249   C     0.49984   0.57928   0.25049   0.00000  Uiso   1.00
C250   C     0.48450   0.50424   0.48695   0.00000  Uiso   1.00
C251   C     0.48858   0.48846   0.43616   0.00000  Uiso   1.00
C252   C     0.51691   0.48915   0.01353   0.00000  Uiso   1.00
C253   C     0.54739   0.45445   0.49229   0.00000  Uiso   1.00
C254   C     0.55161   0.43935   0.44142   0.00000  Uiso   1.00
C255   C     0.52156   0.45592   0.41472   0.00000  Uiso   1.00
C256   C     0.51813   0.50593   0.06217   0.00000  Uiso   1.00
C257   C     0.55832   0.44429   0.07729   0.00000  Uiso   1.00
C258   C     0.45917   0.50516   0.40759   0.00000  Uiso   1.00
C259   C     0.54067   0.64539   0.25546   0.00000  Uiso   1.00
C260   C     0.47377   0.50036   0.35017   0.00000  Uiso   1.00
C261   C     0.54046   0.35467   0.25619   0.00000  Uiso   1.00
C262   C     0.49910   0.37616   0.25302   0.00000  Uiso   1.00
C263   C     0.45764   0.35473   0.25004   0.00000  Uiso   1.00
C264   C     0.45783   0.64546   0.24940   0.00000  Uiso   1.00
C265   C     0.49946   0.62394   0.25174   0.00000  Uiso   1.00
C266   C     0.63196   0.52468   0.28430   0.00000  Uiso   1.00
C267   C     0.34819   0.52464   0.28431   0.00000  Uiso   1.00
C268   C     0.36849   0.47550   0.21601   0.00000  Uiso   1.00
C269   C     0.65279   0.47543   0.21580   0.00000  Uiso   1.00
C270   C     0.49955   0.42079   0.25157   0.00000  Uiso   1.00
C271   C     0.52589   0.49621   0.15019   0.00000  Uiso   1.00
C272   C     0.56748   0.43224   0.02521   0.00000  Uiso   1.00
C273   C     0.53896   0.48378   0.09450   0.00000  Uiso   1.00
C274   C     0.42094   0.53246   0.43235   0.00000  Uiso   1.00
C275   C     0.41330   0.54550   0.48436   0.00000  Uiso   1.00
C276   C     0.44579   0.53221   0.01081   0.00000  Uiso   1.00
Cu277  Cu    0.45311   0.49999   0.25000   0.00000  Uiso   1.00
Cu278  Cu    0.54689   0.50001   0.25000   0.00000  Uiso   1.00
H279   H     0.57276   0.37068   0.25877   0.00000  Uiso   1.00
H280   H     0.42528   0.37077   0.24761   0.00000  Uiso   1.00
H281   H     0.42555   0.62948   0.24669   0.00000  Uiso   1.00
H282   H     0.60550   0.54449   0.31175   0.00000  Uiso   1.00
H283   H     0.35886   0.54441   0.31180   0.00000  Uiso   1.00
H284   H     0.39541   0.45582   0.18882   0.00000  Uiso   1.00
H285   H     0.58338   0.40200   0.01342   0.00000  Uiso   1.00
H286   H     0.50028   0.53486   0.07732   0.00000  Uiso   1.00
H287   H     0.39831   0.54485   0.41031   0.00000  Uiso   1.00
H288   H     0.43884   0.54263   0.05087   0.00000  Uiso   1.00
H289   H     0.52316   0.44199   0.37723   0.00000  Uiso   1.00
H290   H     0.57310   0.62933   0.25768   0.00000  Uiso   1.00
N291   N     0.38265   0.49999   0.24998   0.00000  Uiso   1.00
N292   N     0.61735   0.50002   0.24999   0.00000  Uiso   1.00
O293   O     0.46042   0.56011   0.25000   0.00000  Uiso   1.00
O294   O     0.53961   0.56012   0.25000   0.00000  Uiso   1.00
O295   O     0.44108   0.49998   0.32549   0.00000  Uiso   1.00
O296   O     0.52027   0.49999   0.32549   0.00000  Uiso   1.00
O297   O     0.46039   0.43988   0.24999   0.00000  Uiso   1.00
O298   O     0.53958   0.43989   0.24999   0.00000  Uiso   1.00
O299   O     0.47973   0.50001   0.17451   0.00000  Uiso   1.00
O300   O     0.55892   0.50002   0.17451   0.00000  Uiso   1.00
Br301  Br    0.55487   0.39981   0.12394   0.00000  Uiso   1.00
Br302  Br    0.64044   0.43947   0.16527   0.00000  Uiso   1.00
C303   C     0.58756   0.40675   0.41445   0.00000  Uiso   1.00
O304   O     0.57719   0.38178   0.38484   0.00000  Uiso   1.00
O305   O     0.63402   0.40561   0.42119   0.00000  Uiso   1.00
H306   H     0.65530   0.38240   0.40025   0.00000  Uiso   1.00
C307   C     0.37203   0.57382   0.01086   0.00000  Uiso   1.00
O308   O     0.34391   0.58555   0.48766   0.00000  Uiso   1.00
O309   O     0.36498   0.58709   0.06263   0.00000  Uiso   1.00
H310   H     0.33558   0.60614   0.07633   0.00000  Uiso   1.00
C311   C     0.83318   0.57928   0.25049   0.00000  Uiso   1.00
C312   C     0.81783   0.50424   0.48695   0.00000  Uiso   1.00
C313   C     0.82191   0.48846   0.43616   0.00000  Uiso   1.00
C314   C     0.85025   0.48915   0.01353   0.00000  Uiso   1.00
C315   C     0.88072   0.45445   0.49229   0.00000  Uiso   1.00
C316   C     0.88495   0.43935   0.44142   0.00000  Uiso   1.00
C317   C     0.85489   0.45592   0.41472   0.00000  Uiso   1.00
C318   C     0.85147   0.50593   0.06217   0.00000  Uiso   1.00
C319   C     0.89166   0.44429   0.07729   0.00000  Uiso   1.00
C320   C     0.79250   0.50516   0.40759   0.00000  Uiso   1.00
C321   C     0.87400   0.64539   0.25546   0.00000  Uiso   1.00
C322   C     0.80711   0.50036   0.35017   0.00000  Uiso   1.00
C323   C     0.87379   0.35467   0.25619   0.00000  Uiso   1.00
C324   C     0.83243   0.37616   0.25302   0.00000  Uiso   1.00
C325   C     0.79098   0.35473   0.25004   0.00000  Uiso   1.00
C326   C     0.79116   0.64546   0.24940   0.00000  Uiso   1.00
C327   C     0.83279   0.62394   0.25174   0.00000  Uiso   1.00
C328   C     0.96530   0.52468   0.28430   0.00000  Uiso   1.00
C329   C     0.68152   0.52464   0.28431   0.00000  Uiso   1.00
C330   C     0.70182   0.47550   0.21601   0.00000  Uiso   1.00
C331   C     0.98612   0.47543   0.21580   0.00000  Uiso   1.00
C332   C     0.83289   0.42079   0.25157   0.00000  Uiso   1.00
C333   C     0.85923   0.49621   0.15019   0.00000  Uiso   1.00
C334   C     0.90081   0.43224   0.02521   0.00000  Uiso   1.00
C335   C     0.87230   0.48378   0.09450   0.00000  Uiso   1.00
C336   C     0.75428   0.53246   0.43235   0.00000  Uiso   1.00
C337   C     0.74663   0.54550   0.48436   0.00000  Uiso   1.00
C338   C     0.77912   0.53221   0.01081   0.00000  Uiso   1.00
Cu339  Cu    0.78645   0.49999   0.25000   0.00000  Uiso   1.00
Cu340  Cu    0.88022   0.50001   0.25000   0.00000  Uiso   1.00
H341   H     0.90610   0.37068   0.25877   0.00000  Uiso   1.00
H342   H     0.75861   0.37077   0.24761   0.00000  Uiso   1.00
H343   H     0.75888   0.62948   0.24669   0.00000  Uiso   1.00
H344   H     0.93883   0.54449   0.31175   0.00000  Uiso   1.00
H345   H     0.69219   0.54441   0.31180   0.00000  Uiso   1.00
H346   H     0.72874   0.45582   0.18882   0.00000  Uiso   1.00
H347   H     0.91671   0.40200   0.01342   0.00000  Uiso   1.00
H348   H     0.83361   0.53486   0.07732   0.00000  Uiso   1.00
H349   H     0.73164   0.54485   0.41031   0.00000  Uiso   1.00
H350   H     0.77217   0.54263   0.05087   0.00000  Uiso   1.00
H351   H     0.85649   0.44199   0.37723   0.00000  Uiso   1.00
H352   H     0.90643   0.62933   0.25768   0.00000  Uiso   1.00
N353   N     0.71598   0.49999   0.24998   0.00000  Uiso   1.00
N354   N     0.95069   0.50002   0.24999   0.00000  Uiso   1.00
O355   O     0.79375   0.56011   0.25000   0.00000  Uiso   1.00
O356   O     0.87294   0.56012   0.25000   0.00000  Uiso   1.00
O357   O     0.77441   0.49998   0.32549   0.00000  Uiso   1.00
O358   O     0.85360   0.49999   0.32549   0.00000  Uiso   1.00
O359   O     0.79373   0.43988   0.24999   0.00000  Uiso   1.00
O360   O     0.87292   0.43989   0.24999   0.00000  Uiso   1.00
O361   O     0.81306   0.50001   0.17451   0.00000  Uiso   1.00
O362   O     0.89225   0.50002   0.17451   0.00000  Uiso   1.00
Br363  Br    0.88821   0.39981   0.12394   0.00000  Uiso   1.00
Br364  Br    0.97378   0.43947   0.16527   0.00000  Uiso   1.00
C365   C     0.92089   0.40675   0.41445   0.00000  Uiso   1.00
O366   O     0.91052   0.38178   0.38484   0.00000  Uiso   1.00
O367   O     0.96735   0.40561   0.42119   0.00000  Uiso   1.00
H368   H     0.98863   0.38240   0.40025   0.00000  Uiso   1.00
C369   C     0.70536   0.57382   0.01086   0.00000  Uiso   1.00
O370   O     0.67724   0.58555   0.48766   0.00000  Uiso   1.00
O371   O     0.69831   0.58709   0.06263   0.00000  Uiso   1.00
H372   H     0.66891   0.60614   0.07633   0.00000  Uiso   1.00
C373   C     0.16651   0.91261   0.25049   0.00000  Uiso   1.00
C374   C     0.15116   0.83757   0.48695   0.00000  Uiso   1.00
C375   C     0.15525   0.82179   0.43616   0.00000  Uiso   1.00
C376   C     0.18358   0.82248   0.01353   0.00000  Uiso   1.00
C377   C     0.21405   0.78778   0.49229   0.00000  Uiso   1.00
C378   C     0.21828   0.77268   0.44142   0.00000  Uiso   1.00
C379   C     0.18822   0.78925   0.41472   0.00000  Uiso   1.00
C380   C     0.18480   0.83926   0.06217   0.00000  Uiso   1.00
C381   C     0.22499   0.77762   0.07729   0.00000  Uiso   1.00
C382   C     0.12583   0.83849   0.40759   0.00000  Uiso   1.00
C383   C     0.20734   0.97872   0.25546   0.00000  Uiso   1.00
C384   C     0.14044   0.83369   0.35017   0.00000  Uiso   1.00
C385   C     0.20712   0.68800   0.25619   0.00000  Uiso   1.00
C386   C     0.16576   0.70950   0.25302   0.00000  Uiso   1.00
C387   C     0.12431   0.68806   0.25004   0.00000  Uiso   1.00
C388   C     0.12449   0.97880   0.24940   0.00000  Uiso   1.00
C389   C     0.16613   0.95728   0.25174   0.00000  Uiso   1.00
C390   C     0.29863   0.85801   0.28430   0.00000  Uiso   1.00
C391   C     0.01485   0.85797   0.28431   0.00000  Uiso   1.00
C392   C     0.03515   0.80883   0.21601   0.00000  Uiso   1.00
C393   C     0.31945   0.80876   0.21580   0.00000  Uiso   1.00
C394   C     0.16622   0.75412   0.25157   0.00000  Uiso   1.00
C395   C     0.19256   0.82954   0.15019   0.00000  Uiso   1.00
C396   C     0.23414   0.76558   0.02521   0.00000  Uiso   1.00
C397   C     0.20563   0.81711   0.09450   0.00000  Uiso   1.00
C398   C     0.08761   0.86580   0.43235   0.00000  Uiso   1.00
C399   C     0.07997   0.87883   0.48436   0.00000  Uiso   1.00
C400   C     0.11245   0.86555   0.01081   0.00000  Uiso   1.00
Cu401  Cu    0.11978   0.83333   0.25000   0.00000  Uiso   1.00
Cu402  Cu    0.21355   0.83334   0.25000   0.00000  Uiso   1.00
H403   H     0.23943   0.70402   0.25877   0.00000  Uiso   1.00
H404   H     0.09194   0.70410   0.24761   0.00000  Uiso   1.00
H405   H     0.09221   0.96281   0.24669   0.00000  Uiso   1.00
H406   H     0.27216   0.87783   0.31175   0.00000  Uiso   1.00
H407   H     0.02553   0.87775   0.31180   0.00000  Uiso   1.00
H408   H     0.06207   0.78916   0.18882   0.00000  Uiso   1.00
H409   H     0.25005   0.73534   0.01342   0.00000  Uiso   1.00
H410   H     0.16694   0.86820   0.07732   0.00000  Uiso   1.00
H411   H     0.06497   0.87819   0.41031   0.00000  Uiso   1.00
H412   H     0.10550   0.87596   0.05087   0.00000  Uiso   1.00
H413   H     0.18983   0.77532   0.37723   0.00000  Uiso   1.00
H414   H     0.23977   0.96267   0.25768   0.00000  Uiso   1.00
N415   N     0.04931   0.83332   0.24998   0.00000  Uiso   1.00
N416   N     0.28402   0.83335   0.24999   0.00000  Uiso   1.00
O417   O     0.12708   0.89345   0.25000   0.00000  Uiso   1.00
O418   O     0.20627   0.89346   0.25000   0.00000  Uiso   1.00
O419   O     0.10775   0.83332   0.32549   0.00000  Uiso   1.00
O420   O     0.18694   0.83333   0.32549   0.00000  Uiso   1.00
O421   O     0.12706   0.77321   0.24999   0.00000  Uiso   1.00
O422   O     0.20625   0.77322   0.24999   0.00000  Uiso   1.00
O423   O     0.14640   0.83334   0.17451   0.00000  Uiso   1.00
O424   O     0.22559   0.83335   0.17451   0.00000  Uiso   1.00
Br425  Br    0.22154   0.73315   0.12394   0.00000  Uiso   1.00
Br426  Br    0.30711   0.77280   0.16527   0.00000  Uiso   1.00
C427   C     0.25423   0.74008   0.41445   0.00000  Uiso   1.00
O428   O     0.24386   0.71512   0.38484   0.00000  Uiso   1.00
O429   O     0.30068   0.73894   0.42119   0.00000  Uiso   1.00
H430   H     0.32197   0.71573   0.40025   0.00000  Uiso   1.00
C431   C     0.03870   0.90716   0.01086   0.00000  Uiso   1.00
O432   O     0.01057   0.91888   0.48766   0.00000  Uiso   1.00
O433   O     0.03164   0.92042   0.06263   0.00000  Uiso   1.00
H434   H     0.00225   0.93947   0.07633   0.00000  Uiso   1.00
C435   C     0.49984   0.91261   0.25049   0.00000  Uiso   1.00
C436   C     0.48450   0.83757   0.48695   0.00000  Uiso   1.00
C437   C     0.48858   0.82179   0.43616   0.00000  Uiso   1.00
C438   C     0.51691   0.82248   0.01353   0.00000  Uiso   1.00
C439   C     0.54739   0.78778   0.49229   0.00000  Uiso   1.00
C440   C     0.55161   0.77268   0.44142   0.00000  Uiso   1.00
C441   C     0.52156   0.78925   0.41472   0.00000  Uiso   1.00
C442   C     0.51813   0.83926   0.06217   0.00000  Uiso   1.00
C443   C     0.55832   0.77762   0.07729   0.00000  Uiso   1.00
C444   C     0.45917   0.83849   0.40759   0.00000  Uiso   1.00
C445   C     0.54067   0.97872   0.25546   0.00000  Uiso   1.00
C446   C     0.47377   0.83369   0.35017   0.00000  Uiso   1.00
C447   C     0.54046   0.68800   0.25619   0.00000  Uiso   1.00
C448   C     0.49910   0.70950   0.25302   0.00000  Uiso   1.00
C449   C     0.45764   0.68806   0.25004   0.00000  Uiso   1.00
C450   C     0.45783   0.97880   0.24940   0.00000  Uiso   1.00
C451   C     0.49946   0.95728   0.25174   0.00000  Uiso   1.00
C452   C     0.63196   0.85801   0.28430   0.00000  Uiso   1.00
C453   C     0.34819   0.85797   0.28431   0.00000  Uiso   1.00
C454   C     0.36849   0.80883   0.21601   0.00000  Uiso   1.00
C455   C     0.65279   0.80876   0.21580   0.00000  Uiso   1.00
C456   C     0.49955   0.75412   0.25157   0.00000  Uiso   1.00
C457   C     0.52589   0.82954   0.15019   0.00000  Uiso   1.00
C458   C     0.56748   0.76558   0.02521   0.00000  Uiso   1.00
C459   C     0.53896   0.81711   0.09450   0.00000  Uiso   1.00
C460   C     0.42094   0.86580   0.43235   0.00000  Uiso   1.00
C461   C     0.41330   0.87883   0.48436   0.00000  Uiso   1.00
C462   C     0.44579   0.86555   0.01081   0.00000  Uiso   1.00
Cu463  Cu    0.45311   0.83333   0.25000   0.00000  Uiso   1.00
Cu464  Cu    0.54689   0.83334   0.25000   0.00000  Uiso   1.00
H465   H     0.57276   0.70402   0.25877   0.00000  Uiso   1.00
H466   H     0.42528   0.70410   0.24761   0.00000  Uiso   1.00
H467   H     0.42555   0.96281   0.24669   0.00000  Uiso   1.00
H468   H     0.60550   0.87783   0.31175   0.00000  Uiso   1.00
H469   H     0.35886   0.87775   0.31180   0.00000  Uiso   1.00
H470   H     0.39541   0.78916   0.18882   0.00000  Uiso   1.00
H471   H     0.58338   0.73534   0.01342   0.00000  Uiso   1.00
H472   H     0.50028   0.86820   0.07732   0.00000  Uiso   1.00
H473   H     0.39831   0.87819   0.41031   0.00000  Uiso   1.00
H474   H     0.43884   0.87596   0.05087   0.00000  Uiso   1.00
H475   H     0.52316   0.77532   0.37723   0.00000  Uiso   1.00
H476   H     0.57310   0.96267   0.25768   0.00000  Uiso   1.00
N477   N     0.38265   0.83332   0.24998   0.00000  Uiso   1.00
N478   N     0.61735   0.83335   0.24999   0.00000  Uiso   1.00
O479   O     0.46042   0.89345   0.25000   0.00000  Uiso   1.00
O480   O     0.53961   0.89346   0.25000   0.00000  Uiso   1.00
O481   O     0.44108   0.83332   0.32549   0.00000  Uiso   1.00
O482   O     0.52027   0.83333   0.32549   0.00000  Uiso   1.00
O483   O     0.46039   0.77321   0.24999   0.00000  Uiso   1.00
O484   O     0.53958   0.77322   0.24999   0.00000  Uiso   1.00
O485   O     0.47973   0.83334   0.17451   0.00000  Uiso   1.00
O486   O     0.55892   0.83335   0.17451   0.00000  Uiso   1.00
Br487  Br    0.55487   0.73315   0.12394   0.00000  Uiso   1.00
Br488  Br    0.64044   0.77280   0.16527   0.00000  Uiso   1.00
C489   C     0.58756   0.74008   0.41445   0.00000  Uiso   1.00
O490   O     0.57719   0.71512   0.38484   0.00000  Uiso   1.00
O491   O     0.63402   0.73894   0.42119   0.00000  Uiso   1.00
H492   H     0.65530   0.71573   0.40025   0.00000  Uiso   1.00
C493   C     0.37203   0.90716   0.01086   0.00000  Uiso   1.00
O494   O     0.34391   0.91888   0.48766   0.00000  Uiso   1.00
O495   O     0.36498   0.92042   0.06263   0.00000  Uiso   1.00
H496   H     0.33558   0.93947   0.07633   0.00000  Uiso   1.00
C497   C     0.83318   0.91261   0.25049   0.00000  Uiso   1.00
C498   C     0.81783   0.83757   0.48695   0.00000  Uiso   1.00
C499   C     0.82191   0.82179   0.43616   0.00000  Uiso   1.00
C500   C     0.85025   0.82248   0.01353   0.00000  Uiso   1.00
C501   C     0.88072   0.78778   0.49229   0.00000  Uiso   1.00
C502   C     0.88495   0.77268   0.44142   0.00000  Uiso   1.00
C503   C     0.85489   0.78925   0.41472   0.00000  Uiso   1.00
C504   C     0.85147   0.83926   0.06217   0.00000  Uiso   1.00
C505   C     0.89166   0.77762   0.07729   0.00000  Uiso   1.00
C506   C     0.79250   0.83849   0.40759   0.00000  Uiso   1.00
C507   C     0.87400   0.97872   0.25546   0.00000  Uiso   1.00
C508   C     0.80711   0.83369   0.35017   0.00000  Uiso   1.00
C509   C     0.87379   0.68800   0.25619   0.00000  Uiso   1.00
C510   C     0.83243   0.70950   0.25302   0.00000  Uiso   1.00
C511   C     0.79098   0.68806   0.25004   0.00000  Uiso   1.00
C512   C     0.79116   0.97880   0.24940   0.00000  Uiso   1.00
C513   C     0.83279   0.95728   0.25174   0.00000  Uiso   1.00
C514   C     0.96530   0.85801   0.28430   0.00000  Uiso   1.00
C515   C     0.68152   0.85797   0.28431   0.00000  Uiso   1.00
C516   C     0.70182   0.80883   0.21601   0.00000  Uiso   1.00
C517   C     0.98612   0.80876   0.21580   0.00000  Uiso   1.00
C518   C     0.83289   0.75412   0.25157   0.00000  Uiso   1.00
C519   C     0.85923   0.82954   0.15019   0.00000  Uiso   1.00
C520   C     0.90081   0.76558   0.02521   0.00000  Uiso   1.00
C521   C     0.87230   0.81711   0.09450   0.00000  Uiso   1.00
C522   C     0.75428   0.86580   0.43235   0.00000  Uiso   1.00
C523   C     0.74663   0.87883   0.48436   0.00000  Uiso   1.00
C524   C     0.77912   0.86555   0.01081   0.00000  Uiso   1.00
Cu525  Cu    0.78645   0.83333   0.25000   0.00000  Uiso   1.00
Cu526  Cu    0.88022   0.83334   0.25000   0.00000  Uiso   1.00
H527   H     0.90610   0.70402   0.25877   0.00000  Uiso   1.00
H528   H     0.75861   0.70410   0.24761   0.00000  Uiso   1.00
H529   H     0.75888   0.96281   0.24669   0.00000  Uiso   1.00
H530   H     0.93883   0.87783   0.31175   0.00000  Uiso   1.00
H531   H     0.69219   0.87775   0.31180   0.00000  Uiso   1.00
H532   H     0.72874   0.78916   0.18882   0.00000  Uiso   1.00
H533   H     0.91671   0.73534   0.01342   0.00000  Uiso   1.00
H534   H     0.83361   0.86820   0.07732   0.00000  Uiso   1.00
H535   H     0.73164   0.87819   0.41031   0.00000  Uiso   1.00
H536   H     0.77217   0.87596   0.05087   0.00000  Uiso   1.00
H537   H     0.85649   0.77532   0.37723   0.00000  Uiso   1.00
H538   H     0.90643   0.96267   0.25768   0.00000  Uiso   1.00
N539   N     0.71598   0.83332   0.24998   0.00000  Uiso   1.00
N540   N     0.95069   0.83335   0.24999   0.00000  Uiso   1.00
O541   O     0.79375   0.89345   0.25000   0.00000  Uiso   1.00
O542   O     0.87294   0.89346   0.25000   0.00000  Uiso   1.00
O543   O     0.77441   0.83332   0.32549   0.00000  Uiso   1.00
O544   O     0.85360   0.83333   0.32549   0.00000  Uiso   1.00
O545   O     0.79373   0.77321   0.24999   0.00000  Uiso   1.00
O546   O     0.87292   0.77322   0.24999   0.00000  Uiso   1.00
O547   O     0.81306   0.83334   0.17451   0.00000  Uiso   1.00
O548   O     0.89225   0.83335   0.17451   0.00000  Uiso   1.00
Br549  Br    0.88821   0.73315   0.12394   0.00000  Uiso   1.00
Br550  Br    0.97378   0.77280   0.16527   0.00000  Uiso   1.00
C551   C     0.92089   0.74008   0.41445   0.00000  Uiso   1.00
O552   O     0.91052   0.71512   0.38484   0.00000  Uiso   1.00
O553   O     0.96735   0.73894   0.42119   0.00000  Uiso   1.00
H554   H     0.98863   0.71573   0.40025   0.00000  Uiso   1.00
C555   C     0.70536   0.90716   0.01086   0.00000  Uiso   1.00
O556   O     0.67724   0.91888   0.48766   0.00000  Uiso   1.00
O557   O     0.69831   0.92042   0.06263   0.00000  Uiso   1.00
H558   H     0.66891   0.93947   0.07633   0.00000  Uiso   1.00
C559   C     0.16651   0.24594   0.75049   0.00000  Uiso   1.00
C560   C     0.15116   0.17091   0.98695   0.00000  Uiso   1.00
C561   C     0.15525   0.15512   0.93616   0.00000  Uiso   1.00
C562   C     0.18358   0.15582   0.51353   0.00000  Uiso   1.00
C563   C     0.21405   0.12111   0.99229   0.00000  Uiso   1.00
C564   C     0.21828   0.10602   0.94142   0.00000  Uiso   1.00
C565   C     0.18822   0.12259   0.91472   0.00000  Uiso   1.00
C566   C     0.18480   0.17259   0.56217   0.00000  Uiso   1.00
C567   C     0.22499   0.11095   0.57729   0.00000  Uiso   1.00
C568   C     0.12583   0.17183   0.90759   0.00000  Uiso   1.00
C569   C     0.20734   0.31205   0.75546   0.00000  Uiso   1.00
C570   C     0.14044   0.16703   0.85017   0.00000  Uiso   1.00
C571   C     0.20712   0.02134   0.75619   0.00000  Uiso   1.00
C572   C     0.16576   0.04283   0.75302   0.00000  Uiso   1.00
C573   C     0.12431   0.02139   0.75004   0.00000  Uiso   1.00
C574   C     0.12449   0.31213   0.74940   0.00000  Uiso   1.00
C575   C     0.16613   0.29061   0.75174   0.00000  Uiso   1.00
C576   C     0.29863   0.19134   0.78430   0.00000  Uiso   1.00
C577   C     0.01485   0.19130   0.78431   0.00000  Uiso   1.00
C578   C     0.03515   0.14216   0.71601   0.00000  Uiso   1.00
C579   C     0.31945   0.14210   0.71580   0.00000  Uiso   1.00
C580   C     0.16622   0.08745   0.75157   0.00000  Uiso   1.00
C581   C     0.19256   0.16287   0.65019   0.00000  Uiso   1.00
C582   C     0.23414   0.09891   0.52521   0.00000  Uiso   1.00
C583   C     0.20563   0.15045   0.59450   0.00000  Uiso   1.00
C584   C     0.08761   0.19913   0.93235   0.00000  Uiso   1.00
C585   C     0.07997   0.21216   0.98436   0.00000  Uiso   1.00
C586   C     0.11245   0.19888   0.51081   0.00000  Uiso   1.00
Cu587  Cu    0.11978   0.16666   0.75000   0.00000  Uiso   1.00
Cu588  Cu    0.21355   0.16667   0.75000   0.00000  Uiso   1.00
H589   H     0.23943   0.03735   0.75877   0.00000  Uiso   1.00
H590   H     0.09194   0.03743   0.74761   0.00000  Uiso   1.00
H591   H     0.09221   0.29614   0.74669   0.00000  Uiso   1.00
H592   H     0.27216   0.21116   0.81175   0.00000  Uiso   1.00
H593   H     0.02553   0.21108   0.81180   0.00000  Uiso   1.00
H594   H     0.06207   0.12249   0.68882   0.00000  Uiso   1.00
H595   H     0.25005   0.06867   0.51342   0.00000  Uiso   1.00
H596   H     0.16694   0.20153   0.57732   0.00000  Uiso   1.00
H597   H     0.06497   0.21152   0.91031   0.00000  Uiso   1.00
H598   H     0.10550   0.20929   0.55087   0.00000  Uiso   1.00
H599   H     0.18983   0.10866   0.87723   0.00000  Uiso   1.00
H600   H     0.23977   0.29600   0.75768   0.00000  Uiso   1.00
N601   N     0.04931   0.16666   0.74998   0.00000  Uiso   1.00
N602   N     0.28402   0.16669   0.74999   0.00000  Uiso   1.00
O603   O     0.12708   0.22678   0.75000   0.00000  Uiso   1.00
O604   O     0.20627   0.22679   0.75000   0.00000  Uiso   1.00
O605   O     0.10775   0.16665   0.82549   0.00000  Uiso   1.00
O606   O     0.18694   0.16666   0.82549   0.00000  Uiso   1.00
O607   O     0.12706   0.10654   0.74999   0.00000  Uiso   1.00
O608   O     0.20625   0.10655   0.74999   0.00000  Uiso   1.00
O609   O     0.14640   0.16667   0.67451   0.00000  Uiso   1.00
O610   O     0.22559   0.16668   0.67451   0.00000  Uiso   1.00
Br611  Br    0.22154   0.06648   0.62394   0.00000  Uiso   1.00
Br612  Br    0.30711   0.10613   0.66527   0.00000  Uiso   1.00
C613   C     0.25423   0.07342   0.91445   0.00000  Uiso   1.00
O614   O     0.24386   0.04845   0.88484   0.00000  Uiso   1.00
O615   O     0.30068   0.07227   0.92119   0.00000  Uiso   1.00
H616   H     0.32197   0.04907   0.90025   0.00000  Uiso   1.00
C617   C     0.03870   0.24049   0.51086   0.00000  Uiso   1.00
O618   O     0.01057   0.25222   0.98766   0.00000  Uiso   1.00
O619   O     0.03164   0.25375   0.56263   0.00000  Uiso   1.00
H620   H     0.00225   0.27280   0.57633   0.00000  Uiso   1.00
C621   C     0.49984   0.24594   0.75049   0.00000  Uiso   1.00
C622   C     0.48450   0.17091   0.98695   0.00000  Uiso   1.00
C623   C     0.48858   0.15512   0.93616   0.00000  Uiso   1.00
C624   C     0.51691   0.15582   0.51353   0.00000  Uiso   1.00
C625   C     0.54739   0.12111   0.99229   0.00000  Uiso   1.00
C626   C     0.55161   0.10602   0.94142   0.00000  Uiso   1.00
C627   C     0.52156   0.12259   0.91472   0.00000  Uiso   1.00
C628   C     0.51813   0.17259   0.56217   0.00000  Uiso   1.00
C629   C     0.55832   0.11095   0.57729   0.00000  Uiso   1.00
C630   C     0.45917   0.17183   0.90759   0.00000  Uiso   1.00
C631   C     0.54067   0.31205   0.75546   0.00000  Uiso   1.00
C632   C     0.47377   0.16703   0.85017   0.00000  Uiso   1.00
C633   C     0.54046   0.02134   0.75619   0.00000  Uiso   1.00
C634   C     0.49910   0.04283   0.75302   0.00000  Uiso   1.00
C635   C     0.45764   0.02139   0.75004   0.00000  Uiso   1.00
C636   C     0.45783   0.31213   0.74940   0.00000  Uiso   1.00
C637   C     0.49946   0.29061   0.75174   0.00000  Uiso   1.00
C638   C     0.63196   0.19134   0.78430   0.00000  Uiso   1.00
C639   C     0.34819   0.19130   0.78431   0.00000  Uiso   1.00
C640   C     0.36849   0.14216   0.71601   0.00000  Uiso   1.00
C641   C     0.65279   0.14210   0.71580   0.00000  Uiso   1.00
C642   C     0.49955   0.08745   0.75157   0.00000  Uiso   1.00
C643   C     0.52589   0.16287   0.65019   0.00000  Uiso   1.00
C644   C     0.56748   0.09891   0.52521   0.00000  Uiso   1.00
C645   C     0.53896   0.15045   0.59450   0.00000  Uiso   1.00
C646   C     0.42094   0.19913   0.93235   0.00000  Uiso   1.00
C647   C     0.41330   0.21216   0.98436   0.00000  Uiso   1.00
C648   C     0.44579   0.19888   0.51081   0.00000  Uiso   1.00
Cu649  Cu    0.45311   0.16666   0.75000   0.00000  Uiso   1.00
Cu650  Cu    0.54689   0.16667   0.75000   0.00000  Uiso   1.00
H651   H     0.57276   0.03735   0.75877   0.00000  Uiso   1.00
H652   H     0.42528   0.03743   0.74761   0.00000  Uiso   1.00
H653   H     0.42555   0.29614   0.74669   0.00000  Uiso   1.00
H654   H     0.60550   0.21116   0.81175   0.00000  Uiso   1.00
H655   H     0.35886   0.21108   0.81180   0.00000  Uiso   1.00
H656   H     0.39541   0.12249   0.68882   0.00000  Uiso   1.00
H657   H     0.58338   0.06867   0.51342   0.00000  Uiso   1.00
H658   H     0.50028   0.20153   0.57732   0.00000  Uiso   1.00
H659   H     0.39831   0.21152   0.91031   0.00000  Uiso   1.00
H660   H     0.43884   0.20929   0.55087   0.00000  Uiso   1.00
H661   H     0.52316   0.10866   0.87723   0.00000  Uiso   1.00
H662   H     0.57310   0.29600   0.75768   0.00000  Uiso   1.00
N663   N     0.38265   0.16666   0.74998   0.00000  Uiso   1.00
N664   N     0.61735   0.16669   0.74999   0.00000  Uiso   1.00
O665   O     0.46042   0.22678   0.75000   0.00000  Uiso   1.00
O666   O     0.53961   0.22679   0.75000   0.00000  Uiso   1.00
O667   O     0.44108   0.16665   0.82549   0.00000  Uiso   1.00
O668   O     0.52027   0.16666   0.82549   0.00000  Uiso   1.00
O669   O     0.46039   0.10654   0.74999   0.00000  Uiso   1.00
O670   O     0.53958   0.10655   0.74999   0.00000  Uiso   1.00
O671   O     0.47973   0.16667   0.67451   0.00000  Uiso   1.00
O672   O     0.55892   0.16668   0.67451   0.00000  Uiso   1.00
Br673  Br    0.55487   0.06648   0.62394   0.00000  Uiso   1.00
Br674  Br    0.64044   0.10613   0.66527   0.00000  Uiso   1.00
C675   C     0.58756   0.07342   0.91445   0.00000  Uiso   1.00
O676   O     0.57719   0.04845   0.88484   0.00000  Uiso   1.00
O677   O     0.63402   0.07227   0.92119   0.00000  Uiso   1.00
H678   H     0.65530   0.04907   0.90025   0.00000  Uiso   1.00
C679   C     0.37203   0.24049   0.51086   0.00000  Uiso   1.00
O680   O     0.34391   0.25222   0.98766   0.00000  Uiso   1.00
O681   O     0.36498   0.25375   0.56263   0.00000  Uiso   1.00
H682   H     0.33558   0.27280   0.57633   0.00000  Uiso   1.00
C683   C     0.83318   0.24594   0.75049   0.00000  Uiso   1.00
C684   C     0.81783   0.17091   0.98695   0.00000  Uiso   1.00
C685   C     0.82191   0.15512   0.93616   0.00000  Uiso   1.00
C686   C     0.85025   0.15582   0.51353   0.00000  Uiso   1.00
C687   C     0.88072   0.12111   0.99229   0.00000  Uiso   1.00
C688   C     0.88495   0.10602   0.94142   0.00000  Uiso   1.00
C689   C     0.85489   0.12259   0.91472   0.00000  Uiso   1.00
C690   C     0.85147   0.17259   0.56217   0.00000  Uiso   1.00
C691   C     0.89166   0.11095   0.57729   0.00000  Uiso   1.00
C692   C     0.79250   0.17183   0.90759   0.00000  Uiso   1.00
C693   C     0.87400   0.31205   0.75546   0.00000  Uiso   1.00
C694   C     0.80711   0.16703   0.85017   0.00000  Uiso   1.00
C695   C     0.87379   0.02134   0.75619   0.00000  Uiso   1.00
C696   C     0.83243   0.04283   0.75302   0.00000  Uiso   1.00
C697   C     0.79098   0.02139   0.75004   0.00000  Uiso   1.00
C698   C     0.79116   0.31213   0.74940   0.00000  Uiso   1.00
C699   C     0.83279   0.29061   0.75174   0.00000  Uiso   1.00
C700   C     0.96530   0.19134   0.78430   0.00000  Uiso   1.00
C701   C     0.68152   0.19130   0.78431   0.00000  Uiso   1.00
C702   C     0.70182   0.14216   0.71601   0.00000  Uiso   1.00
C703   C     0.98612   0.14210   0.71580   0.00000  Uiso   1.00
C704   C     0.83289   0.08745   0.75157   0.00000  Uiso   1.00
C705   C     0.85923   0.16287   0.65019   0.00000  Uiso   1.00
C706   C     0.90081   0.09891   0.52521   0.00000  Uiso   1.00
C707   C     0.87230   0.15045   0.59450   0.00000  Uiso   1.00
C708   C     0.75428   0.19913   0.93235   0.00000  Uiso   1.00
C709   C     0.74663   0.21216   0.98436   0.00000  Uiso   1.00
C710   C     0.77912   0.19888   0.51081   0.00000  Uiso   1.00
Cu711  Cu    0.78645   0.16666   0.75000   0.00000  Uiso   1.00
Cu712  Cu    0.88022   0.16667   0.75000   0.00000  Uiso   1.00
H713   H     0.90610   0.03735   0.75877   0.00000  Uiso   1.00
H714   H     0.75861   0.03743   0.74761   0.00000  Uiso   1.00
H715   H     0.75888   0.29614   0.74669   0.00000  Uiso   1.00
H716   H     0.93883   0.21116   0.81175   0.00000  Uiso   1.00
H717   H     0.69219   0.21108   0.81180   0.00000  Uiso   1.00
H718   H     0.72874   0.12249   0.68882   0.00000  Uiso   1.00
H719   H     0.91671   0.06867   0.51342   0.00000  Uiso   1.00
H720   H     0.83361   0.20153   0.57732   0.00000  Uiso   1.00
H721   H     0.73164   0.21152   0.91031   0.00000  Uiso   1.00
H722   H     0.77217   0.20929   0.55087   0.00000  Uiso   1.00
H723   H     0.85649   0.10866   0.87723   0.00000  Uiso   1.00
H724   H     0.90643   0.29600   0.75768   0.00000  Uiso   1.00
N725   N     0.71598   0.16666   0.74998   0.00000  Uiso   1.00
N726   N     0.95069   0.16669   0.74999   0.00000  Uiso   1.00
O727   O     0.79375   0.22678   0.75000   0.00000  Uiso   1.00
O728   O     0.87294   0.22679   0.75000   0.00000  Uiso   1.00
O729   O     0.77441   0.16665   0.82549   0.00000  Uiso   1.00
O730   O     0.85360   0.16666   0.82549   0.00000  Uiso   1.00
O731   O     0.79373   0.10654   0.74999   0.00000  Uiso   1.00
O732   O     0.87292   0.10655   0.74999   0.00000  Uiso   1.00
O733   O     0.81306   0.16667   0.67451   0.00000  Uiso   1.00
O734   O     0.89225   0.16668   0.67451   0.00000  Uiso   1.00
Br735  Br    0.88821   0.06648   0.62394   0.00000  Uiso   1.00
Br736  Br    0.97378   0.10613   0.66527   0.00000  Uiso   1.00
C737   C     0.92089   0.07342   0.91445   0.00000  Uiso   1.00
O738   O     0.91052   0.04845   0.88484   0.00000  Uiso   1.00
O739   O     0.96735   0.07227   0.92119   0.00000  Uiso   1.00
H740   H     0.98863   0.04907   0.90025   0.00000  Uiso   1.00
C741   C     0.70536   0.24049   0.51086   0.00000  Uiso   1.00
O742   O     0.67724   0.25222   0.98766   0.00000  Uiso   1.00
O743   O     0.69831   0.25375   0.56263   0.00000  Uiso   1.00
H744   H     0.66891   0.27280   0.57633   0.00000  Uiso   1.00
C745   C     0.16651   0.57928   0.75049   0.00000  Uiso   1.00
C746   C     0.15116   0.50424   0.98695   0.00000  Uiso   1.00
C747   C     0.15525   0.48846   0.93616   0.00000  Uiso   1.00
C748   C     0.18358   0.48915   0.51353   0.00000  Uiso   1.00
C749   C     0.21405   0.45445   0.99229   0.00000  Uiso   1.00
C750   C     0.21828   0.43935   0.94142   0.00000  Uiso   1.00
C751   C     0.18822   0.45592   0.91472   0.00000  Uiso   1.00
C752   C     0.18480   0.50593   0.56217   0.00000  Uiso   1.00
C753   C     0.22499   0.44429   0.57729   0.00000  Uiso   1.00
C754   C     0.12583   0.50516   0.90759   0.00000  Uiso   1.00
C755   C     0.20734   0.64539   0.75546   0.00000  Uiso   1.00
C756   C     0.14044   0.50036   0.85017   0.00000  Uiso   1.00
C757   C     0.20712   0.35467   0.75619   0.00000  Uiso   1.00
C758   C     0.16576   0.37616   0.75302   0.00000  Uiso   1.00
C759   C     0.12431   0.35473   0.75004   0.00000  Uiso   1.00
C760   C     0.12449   0.64546   0.74940   0.00000  Uiso   1.00
C761   C     0.16613   0.62394   0.75174   0.00000  Uiso   1.00
C762   C     0.29863   0.52468   0.78430   0.00000  Uiso   1.00
C763   C     0.01485   0.52464   0.78431   0.00000  Uiso   1.00
C764   C     0.03515   0.47550   0.71601   0.00000  Uiso   1.00
C765   C     0.31945   0.47543   0.71580   0.00000  Uiso   1.00
C766   C     0.16622   0.42079   0.75157   0.00000  Uiso   1.00
C767   C     0.19256   0.49621   0.65019   0.00000  Uiso   1.00
C768   C     0.23414   0.43224   0.52521   0.00000  Uiso   1.00
C769   C     0.20563   0.48378   0.59450   0.00000  Uiso   1.00
C770   C     0.08761   0.53246   0.93235   0.00000  Uiso   1.00
C771   C     0.07997   0.54550   0.98436   0.00000  Uiso   1.00
C772   C     0.11245   0.53221   0.51081   0.00000  Uiso   1.00
Cu773  Cu    0.11978   0.49999   0.75000   0.00000  Uiso   1.00
Cu774  Cu    0.21355   0.50001   0.75000   0.00000  Uiso   1.00
H775   H     0.23943   0.37068   0.75877   0.00000  Uiso   1.00
H776   H     0.09194   0.37077   0.74761   0.00000  Uiso   1.00
H777   H     0.09221   0.62948   0.74669   0.00000  Uiso   1.00
H778   H     0.27216   0.54449   0.81175   0.00000  Uiso   1.00
H779   H     0.02553   0.54441   0.81180   0.00000  Uiso   1.00
H780   H     0.06207   0.45582   0.68882   0.00000  Uiso   1.00
H781   H     0.25005   0.40200   0.51342   0.00000  Uiso   1.00
H782   H     0.16694   0.53486   0.57732   0.00000  Uiso   1.00
H783   H     0.06497   0.54485   0.91031   0.00000  Uiso   1.00
H784   H     0.10550   0.54263   0.55087   0.00000  Uiso   1.00
H785   H     0.18983   0.44199   0.87723   0.00000  Uiso   1.00
H786   H     0.23977   0.62933   0.75768   0.00000  Uiso   1.00
N787   N     0.04931   0.49999   0.74998   0.00000  Uiso   1.00
N788   N     0.28402   0.50002   0.74999   0.00000  Uiso   1.00
O789   O     0.12708   0.56011   0.75000   0.00000  Uiso   1.00
O790   O     0.20627   0.56012   0.75000   0.00000  Uiso   1.00
O791   O     0.10775   0.49998   0.82549   0.00000  Uiso   1.00
O792   O     0.18694   0.49999   0.82549   0.00000  Uiso   1.00
O793   O     0.12706   0.43988   0.74999   0.00000  Uiso   1.00
O794   O     0.20625   0.43989   0.74999   0.00000  Uiso   1.00
O795   O     0.14640   0.50001   0.67451   0.00000  Uiso   1.00
O796   O     0.22559   0.50002   0.67451   0.00000  Uiso   1.00
Br797  Br    0.22154   0.39981   0.62394   0.00000  Uiso   1.00
Br798  Br    0.30711   0.43947   0.66527   0.00000  Uiso   1.00
C799   C     0.25423   0.40675   0.91445   0.00000  Uiso   1.00
O800   O     0.24386   0.38178   0.88484   0.00000  Uiso   1.00
O801   O     0.30068   0.40561   0.92119   0.00000  Uiso   1.00
H802   H     0.32197   0.38240   0.90025   0.00000  Uiso   1.00
C803   C     0.03870   0.57382   0.51086   0.00000  Uiso   1.00
O804   O     0.01057   0.58555   0.98766   0.00000  Uiso   1.00
O805   O     0.03164   0.58709   0.56263   0.00000  Uiso   1.00
H806   H     0.00225   0.60614   0.57633   0.00000  Uiso   1.00
C807   C     0.49984   0.57928   0.75049   0.00000  Uiso   1.00
C808   C     0.48450   0.50424   0.98695   0.00000  Uiso   1.00
C809   C     0.48858   0.48846   0.93616   0.00000  Uiso   1.00
C810   C     0.51691   0.48915   0.51353   0.00000  Uiso   1.00
C811   C     0.54739   0.45445   0.99229   0.00000  Uiso   1.00
C812   C     0.55161   0.43935   0.94142   0.00000  Uiso   1.00
C813   C     0.52156   0.45592   0.91472   0.00000  Uiso   1.00
C814   C     0.51813   0.50593   0.56217   0.00000  Uiso   1.00
C815   C     0.55832   0.44429   0.57729   0.00000  Uiso   1.00
C816   C     0.45917   0.50516   0.90759   0.00000  Uiso   1.00
C817   C     0.54067   0.64539   0.75546   0.00000  Uiso   1.00
C818   C     0.47377   0.50036   0.85017   0.00000  Uiso   1.00
C819   C     0.54046   0.35467   0.75619   0.00000  Uiso   1.00
C820   C     0.49910   0.37616   0.75302   0.00000  Uiso   1.00
C821   C     0.45764   0.35473   0.75004   0.00000  Uiso   1.00
C822   C     0.45783   0.64546   0.74940   0.00000  Uiso   1.00
C823   C     0.49946   0.62394   0.75174   0.00000  Uiso   1.00
C824   C     0.63196   0.52468   0.78430   0.00000  Uiso   1.00
C825   C     0.34819   0.52464   0.78431   0.00000  Uiso   1.00
C826   C     0.36849   0.47550   0.71601   0.00000  Uiso   1.00
C827   C     0.65279   0.47543   0.71580   0.00000  Uiso   1.00
C828   C     0.49955   0.42079   0.75157   0.00000  Uiso   1.00
C829   C     0.52589   0.49621   0.65019   0.00000  Uiso   1.00
C830   C     0.56748   0.43224   0.52521   0.00000  Uiso   1.00
C831   C     0.53896   0.48378   0.59450   0.00000  Uiso   1.00
C832   C     0.42094   0.53246   0.93235   0.00000  Uiso   1.00
C833   C     0.41330   0.54550   0.98436   0.00000  Uiso   1.00
C834   C     0.44579   0.53221   0.51081   0.00000  Uiso   1.00
Cu835  Cu    0.45311   0.49999   0.75000   0.00000  Uiso   1.00
Cu836  Cu    0.54689   0.50001   0.75000   0.00000  Uiso   1.00
H837   H     0.57276   0.37068   0.75877   0.00000  Uiso   1.00
H838   H     0.42528   0.37077   0.74761   0.00000  Uiso   1.00
H839   H     0.42555   0.62948   0.74669   0.00000  Uiso   1.00
H840   H     0.60550   0.54449   0.81175   0.00000  Uiso   1.00
H841   H     0.35886   0.54441   0.81180   0.00000  Uiso   1.00
H842   H     0.39541   0.45582   0.68882   0.00000  Uiso   1.00
H843   H     0.58338   0.40200   0.51342   0.00000  Uiso   1.00
H844   H     0.50028   0.53486   0.57732   0.00000  Uiso   1.00
H845   H     0.39831   0.54485   0.91031   0.00000  Uiso   1.00
H846   H     0.43884   0.54263   0.55087   0.00000  Uiso   1.00
H847   H     0.52316   0.44199   0.87723   0.00000  Uiso   1.00
H848   H     0.57310   0.62933   0.75768   0.00000  Uiso   1.00
N849   N     0.38265   0.49999   0.74998   0.00000  Uiso   1.00
N850   N     0.61735   0.50002   0.74999   0.00000  Uiso   1.00
O851   O     0.46042   0.56011   0.75000   0.00000  Uiso   1.00
O852   O     0.53961   0.56012   0.75000   0.00000  Uiso   1.00
O853   O     0.44108   0.49998   0.82549   0.00000  Uiso   1.00
O854   O     0.52027   0.49999   0.82549   0.00000  Uiso   1.00
O855   O     0.46039   0.43988   0.74999   0.00000  Uiso   1.00
O856   O     0.53958   0.43989   0.74999   0.00000  Uiso   1.00
O857   O     0.47973   0.50001   0.67451   0.00000  Uiso   1.00
O858   O     0.55892   0.50002   0.67451   0.00000  Uiso   1.00
Br859  Br    0.55487   0.39981   0.62394   0.00000  Uiso   1.00
Br860  Br    0.64044   0.43947   0.66527   0.00000  Uiso   1.00
C861   C     0.58756   0.40675   0.91445   0.00000  Uiso   1.00
O862   O     0.57719   0.38178   0.88484   0.00000  Uiso   1.00
O863   O     0.63402   0.40561   0.92119   0.00000  Uiso   1.00
H864   H     0.65530   0.38240   0.90025   0.00000  Uiso   1.00
C865   C     0.37203   0.57382   0.51086   0.00000  Uiso   1.00
O866   O     0.34391   0.58555   0.98766   0.00000  Uiso   1.00
O867   O     0.36498   0.58709   0.56263   0.00000  Uiso   1.00
H868   H     0.33558   0.60614   0.57633   0.00000  Uiso   1.00
C869   C     0.83318   0.57928   0.75049   0.00000  Uiso   1.00
C870   C     0.81783   0.50424   0.98695   0.00000  Uiso   1.00
C871   C     0.82191   0.48846   0.93616   0.00000  Uiso   1.00
C872   C     0.85025   0.48915   0.51353   0.00000  Uiso   1.00
C873   C     0.88072   0.45445   0.99229   0.00000  Uiso   1.00
C874   C     0.88495   0.43935   0.94142   0.00000  Uiso   1.00
C875   C     0.85489   0.45592   0.91472   0.00000  Uiso   1.00
C876   C     0.85147   0.50593   0.56217   0.00000  Uiso   1.00
C877   C     0.89166   0.44429   0.57729   0.00000  Uiso   1.00
C878   C     0.79250   0.50516   0.90759   0.00000  Uiso   1.00
C879   C     0.87400   0.64539   0.75546   0.00000  Uiso   1.00
C880   C     0.80711   0.50036   0.85017   0.00000  Uiso   1.00
C881   C     0.87379   0.35467   0.75619   0.00000  Uiso   1.00
C882   C     0.83243   0.37616   0.75302   0.00000  Uiso   1.00
C883   C     0.79098   0.35473   0.75004   0.00000  Uiso   1.00
C884   C     0.79116   0.64546   0.74940   0.00000  Uiso   1.00
C885   C     0.83279   0.62394   0.75174   0.00000  Uiso   1.00
C886   C     0.96530   0.52468   0.78430   0.00000  Uiso   1.00
C887   C     0.68152   0.52464   0.78431   0.00000  Uiso   1.00
C888   C     0.70182   0.47550   0.71601   0.00000  Uiso   1.00
C889   C     0.98612   0.47543   0.71580   0.00000  Uiso   1.00
C890   C     0.83289   0.42079   0.75157   0.00000  Uiso   1.00
C891   C     0.85923   0.49621   0.65019   0.00000  Uiso   1.00
C892   C     0.90081   0.43224   0.52521   0.00000  Uiso   1.00
C893   C     0.87230   0.48378   0.59450   0.00000  Uiso   1.00
C894   C     0.75428   0.53246   0.93235   0.00000  Uiso   1.00
C895   C     0.74663   0.54550   0.98436   0.00000  Uiso   1.00
C896   C     0.77912   0.53221   0.51081   0.00000  Uiso   1.00
Cu897  Cu    0.78645   0.49999   0.75000   0.00000  Uiso   1.00
Cu898  Cu    0.88022   0.50001   0.75000   0.00000  Uiso   1.00
H899   H     0.90610   0.37068   0.75877   0.00000  Uiso   1.00
H900   H     0.75861   0.37077   0.74761   0.00000  Uiso   1.00
H901   H     0.75888   0.62948   0.74669   0.00000  Uiso   1.00
H902   H     0.93883   0.54449   0.81175   0.00000  Uiso   1.00
H903   H     0.69219   0.54441   0.81180   0.00000  Uiso   1.00
H904   H     0.72874   0.45582   0.68882   0.00000  Uiso   1.00
H905   H     0.91671   0.40200   0.51342   0.00000  Uiso   1.00
H906   H     0.83361   0.53486   0.57732   0.00000  Uiso   1.00
H907   H     0.73164   0.54485   0.91031   0.00000  Uiso   1.00
H908   H     0.77217   0.54263   0.55087   0.00000  Uiso   1.00
H909   H     0.85649   0.44199   0.87723   0.00000  Uiso   1.00
H910   H     0.90643   0.62933   0.75768   0.00000  Uiso   1.00
N911   N     0.71598   0.49999   0.74998   0.00000  Uiso   1.00
N912   N     0.95069   0.50002   0.74999   0.00000  Uiso   1.00
O913   O     0.79375   0.56011   0.75000   0.00000  Uiso   1.00
O914   O     0.87294   0.56012   0.75000   0.00000  Uiso   1.00
O915   O     0.77441   0.49998   0.82549   0.00000  Uiso   1.00
O916   O     0.85360   0.49999   0.82549   0.00000  Uiso   1.00
O917   O     0.79373   0.43988   0.74999   0.00000  Uiso   1.00
O918   O     0.87292   0.43989   0.74999   0.00000  Uiso   1.00
O919   O     0.81306   0.50001   0.67451   0.00000  Uiso   1.00
O920   O     0.89225   0.50002   0.67451   0.00000  Uiso   1.00
Br921  Br    0.88821   0.39981   0.62394   0.00000  Uiso   1.00
Br922  Br    0.97378   0.43947   0.66527   0.00000  Uiso   1.00
C923   C     0.92089   0.40675   0.91445   0.00000  Uiso   1.00
O924   O     0.91052   0.38178   0.88484   0.00000  Uiso   1.00
O925   O     0.96735   0.40561   0.92119   0.00000  Uiso   1.00
H926   H     0.98863   0.38240   0.90025   0.00000  Uiso   1.00
C927   C     0.70536   0.57382   0.51086   0.00000  Uiso   1.00
O928   O     0.67724   0.58555   0.98766   0.00000  Uiso   1.00
O929   O     0.69831   0.58709   0.56263   0.00000  Uiso   1.00
H930   H     0.66891   0.60614   0.57633   0.00000  Uiso   1.00
C931   C     0.16651   0.91261   0.75049   0.00000  Uiso   1.00
C932   C     0.15116   0.83757   0.98695   0.00000  Uiso   1.00
C933   C     0.15525   0.82179   0.93616   0.00000  Uiso   1.00
C934   C     0.18358   0.82248   0.51353   0.00000  Uiso   1.00
C935   C     0.21405   0.78778   0.99229   0.00000  Uiso   1.00
C936   C     0.21828   0.77268   0.94142   0.00000  Uiso   1.00
C937   C     0.18822   0.78925   0.91472   0.00000  Uiso   1.00
C938   C     0.18480   0.83926   0.56217   0.00000  Uiso   1.00
C939   C     0.22499   0.77762   0.57729   0.00000  Uiso   1.00
C940   C     0.12583   0.83849   0.90759   0.00000  Uiso   1.00
C941   C     0.20734   0.97872   0.75546   0.00000  Uiso   1.00
C942   C     0.14044   0.83369   0.85017   0.00000  Uiso   1.00
C943   C     0.20712   0.68800   0.75619   0.00000  Uiso   1.00
C944   C     0.16576   0.70950   0.75302   0.00000  Uiso   1.00
C945   C     0.12431   0.68806   0.75004   0.00000  Uiso   1.00
C946   C     0.12449   0.97880   0.74940   0.00000  Uiso   1.00
C947   C     0.16613   0.95728   0.75174   0.00000  Uiso   1.00
C948   C     0.29863   0.85801   0.78430   0.00000  Uiso   1.00
C949   C     0.01485   0.85797   0.78431   0.00000  Uiso   1.00
C950   C     0.03515   0.80883   0.71601   0.00000  Uiso   1.00
C951   C     0.31945   0.80876   0.71580   0.00000  Uiso   1.00
C952   C     0.16622   0.75412   0.75157   0.00000  Uiso   1.00
C953   C     0.19256   0.82954   0.65019   0.00000  Uiso   1.00
C954   C     0.23414   0.76558   0.52521   0.00000  Uiso   1.00
C955   C     0.20563   0.81711   0.59450   0.00000  Uiso   1.00
C956   C     0.08761   0.86580   0.93235   0.00000  Uiso   1.00
C957   C     0.07997   0.87883   0.98436   0.00000  Uiso   1.00
C958   C     0.11245   0.86555   0.51081   0.00000  Uiso   1.00
Cu959  Cu    0.11978   0.83333   0.75000   0.00000  Uiso   1.00
Cu960  Cu    0.21355   0.83334   0.75000   0.00000  Uiso   1.00
H961   H     0.23943   0.70402   0.75877   0.00000  Uiso   1.00
H962   H     0.09194   0.70410   0.74761   0.00000  Uiso   1.00
H963   H     0.09221   0.96281   0.74669   0.00000  Uiso   1.00
H964   H     0.27216   0.87783   0.81175   0.00000  Uiso   1.00
H965   H     0.02553   0.87775   0.81180   0.00000  Uiso   1.00
H966   H     0.06207   0.78916   0.68882   0.00000  Uiso   1.00
H967   H     0.25005   0.73534   0.51342   0.00000  Uiso   1.00
H968   H     0.16694   0.86820   0.57732   0.00000  Uiso   1.00
H969   H     0.06497   0.87819   0.91031   0.00000  Uiso   1.00
H970   H     0.10550   0.87596   0.55087   0.00000  Uiso   1.00
H971   H     0.18983   0.77532   0.87723   0.00000  Uiso   1.00
H972   H     0.23977   0.96267   0.75768   0.00000  Uiso   1.00
N973   N     0.04931   0.83332   0.74998   0.00000  Uiso   1.00
N974   N     0.28402   0.83335   0.74999   0.00000  Uiso   1.00
O975   O     0.12708   0.89345   0.75000   0.00000  Uiso   1.00
O976   O     0.20627   0.89346   0.75000   0.00000  Uiso   1.00
O977   O     0.10775   0.83332   0.82549   0.00000  Uiso   1.00
O978   O     0.18694   0.83333   0.82549   0.00000  Uiso   1.00
O979   O     0.12706   0.77321   0.74999   0.00000  Uiso   1.00
O980   O     0.20625   0.77322   0.74999   0.00000  Uiso   1.00
O981   O     0.14640   0.83334   0.67451   0.00000  Uiso   1.00
O982   O     0.22559   0.83335   0.67451   0.00000  Uiso   1.00
Br983  Br    0.22154   0.73315   0.62394   0.00000  Uiso   1.00
Br984  Br    0.30711   0.77280   0.66527   0.00000  Uiso   1.00
C985   C     0.25423   0.74008   0.91445   0.00000  Uiso   1.00
O986   O     0.24386   0.71512   0.88484   0.00000  Uiso   1.00
O987   O     0.30068   0.73894   0.92119   0.00000  Uiso   1.00
H988   H     0.32197   0.71573   0.90025   0.00000  Uiso   1.00
C989   C     0.03870   0.90716   0.51086   0.00000  Uiso   1.00
O990   O     0.01057   0.91888   0.98766   0.00000  Uiso   1.00
O991   O     0.03164   0.92042   0.56263   0.00000  Uiso   1.00
H992   H     0.00225   0.93947   0.57633   0.00000  Uiso   1.00
C993   C     0.49984   0.91261   0.75049   0.00000  Uiso   1.00
C994   C     0.48450   0.83757   0.98695   0.00000  Uiso   1.00
C995   C     0.48858   0.82179   0.93616   0.00000  Uiso   1.00
C996   C     0.51691   0.82248   0.51353   0.00000  Uiso   1.00
C997   C     0.54739   0.78778   0.99229   0.00000  Uiso   1.00
C998   C     0.55161   0.77268   0.94142   0.00000  Uiso   1.00
C999   C     0.52156   0.78925   0.91472   0.00000  Uiso   1.00
C1000  C     0.51813   0.83926   0.56217   0.00000  Uiso   1.00
C1001  C     0.55832   0.77762   0.57729   0.00000  Uiso   1.00
C1002  C     0.45917   0.83849   0.90759   0.00000  Uiso   1.00
C1003  C     0.54067   0.97872   0.75546   0.00000  Uiso   1.00
C1004  C     0.47377   0.83369   0.85017   0.00000  Uiso   1.00
C1005  C     0.54046   0.68800   0.75619   0.00000  Uiso   1.00
C1006  C     0.49910   0.70950   0.75302   0.00000  Uiso   1.00
C1007  C     0.45764   0.68806   0.75004   0.00000  Uiso   1.00
C1008  C     0.45783   0.97880   0.74940   0.00000  Uiso   1.00
C1009  C     0.49946   0.95728   0.75174   0.00000  Uiso   1.00
C1010  C     0.63196   0.85801   0.78430   0.00000  Uiso   1.00
C1011  C     0.34819   0.85797   0.78431   0.00000  Uiso   1.00
C1012  C     0.36849   0.80883   0.71601   0.00000  Uiso   1.00
C1013  C     0.65279   0.80876   0.71580   0.00000  Uiso   1.00
C1014  C     0.49955   0.75412   0.75157   0.00000  Uiso   1.00
C1015  C     0.52589   0.82954   0.65019   0.00000  Uiso   1.00
C1016  C     0.56748   0.76558   0.52521   0.00000  Uiso   1.00
C1017  C     0.53896   0.81711   0.59450   0.00000  Uiso   1.00
C1018  C     0.42094   0.86580   0.93235   0.00000  Uiso   1.00
C1019  C     0.41330   0.87883   0.98436   0.00000  Uiso   1.00
C1020  C     0.44579   0.86555   0.51081   0.00000  Uiso   1.00
Cu1021 Cu    0.45311   0.83333   0.75000   0.00000  Uiso   1.00
Cu1022 Cu    0.54689   0.83334   0.75000   0.00000  Uiso   1.00
H1023  H     0.57276   0.70402   0.75877   0.00000  Uiso   1.00
H1024  H     0.42528   0.70410   0.74761   0.00000  Uiso   1.00
H1025  H     0.42555   0.96281   0.74669   0.00000  Uiso   1.00
H1026  H     0.60550   0.87783   0.81175   0.00000  Uiso   1.00
H1027  H     0.35886   0.87775   0.81180   0.00000  Uiso   1.00
H1028  H     0.39541   0.78916   0.68882   0.00000  Uiso   1.00
H1029  H     0.58338   0.73534   0.51342   0.00000  Uiso   1.00
H1030  H     0.50028   0.86820   0.57732   0.00000  Uiso   1.00
H1031  H     0.39831   0.87819   0.91031   0.00000  Uiso   1.00
H1032  H     0.43884   0.87596   0.55087   0.00000  Uiso   1.00
H1033  H     0.52316   0.77532   0.87723   0.00000  Uiso   1.00
H1034  H     0.57310   0.96267   0.75768   0.00000  Uiso   1.00
N1035  N     0.38265   0.83332   0.74998   0.00000  Uiso   1.00
N1036  N     0.61735   0.83335   0.74999   0.00000  Uiso   1.00
O1037  O     0.46042   0.89345   0.75000   0.00000  Uiso   1.00
O1038  O     0.53961   0.89346   0.75000   0.00000  Uiso   1.00
O1039  O     0.44108   0.83332   0.82549   0.00000  Uiso   1.00
O1040  O     0.52027   0.83333   0.82549   0.00000  Uiso   1.00
O1041  O     0.46039   0.77321   0.74999   0.00000  Uiso   1.00
O1042  O     0.53958   0.77322   0.74999   0.00000  Uiso   1.00
O1043  O     0.47973   0.83334   0.67451   0.00000  Uiso   1.00
O1044  O     0.55892   0.83335   0.67451   0.00000  Uiso   1.00
Br1045 Br    0.55487   0.73315   0.62394   0.00000  Uiso   1.00
Br1046 Br    0.64044   0.77280   0.66527   0.00000  Uiso   1.00
C1047  C     0.58756   0.74008   0.91445   0.00000  Uiso   1.00
O1048  O     0.57719   0.71512   0.88484   0.00000  Uiso   1.00
O1049  O     0.63402   0.73894   0.92119   0.00000  Uiso   1.00
H1050  H     0.65530   0.71573   0.90025   0.00000  Uiso   1.00
C1051  C     0.37203   0.90716   0.51086   0.00000  Uiso   1.00
O1052  O     0.34391   0.91888   0.98766   0.00000  Uiso   1.00
O1053  O     0.36498   0.92042   0.56263   0.00000  Uiso   1.00
H1054  H     0.33558   0.93947   0.57633   0.00000  Uiso   1.00
C1055  C     0.83318   0.91261   0.75049   0.00000  Uiso   1.00
C1056  C     0.81783   0.83757   0.98695   0.00000  Uiso   1.00
C1057  C     0.82191   0.82179   0.93616   0.00000  Uiso   1.00
C1058  C     0.85025   0.82248   0.51353   0.00000  Uiso   1.00
C1059  C     0.88072   0.78778   0.99229   0.00000  Uiso   1.00
C1060  C     0.88495   0.77268   0.94142   0.00000  Uiso   1.00
C1061  C     0.85489   0.78925   0.91472   0.00000  Uiso   1.00
C1062  C     0.85147   0.83926   0.56217   0.00000  Uiso   1.00
C1063  C     0.89166   0.77762   0.57729   0.00000  Uiso   1.00
C1064  C     0.79250   0.83849   0.90759   0.00000  Uiso   1.00
C1065  C     0.87400   0.97872   0.75546   0.00000  Uiso   1.00
C1066  C     0.80711   0.83369   0.85017   0.00000  Uiso   1.00
C1067  C     0.87379   0.68800   0.75619   0.00000  Uiso   1.00
C1068  C     0.83243   0.70950   0.75302   0.00000  Uiso   1.00
C1069  C     0.79098   0.68806   0.75004   0.00000  Uiso   1.00
C1070  C     0.79116   0.97880   0.74940   0.00000  Uiso   1.00
C1071  C     0.83279   0.95728   0.75174   0.00000  Uiso   1.00
C1072  C     0.96530   0.85801   0.78430   0.00000  Uiso   1.00
C1073  C     0.68152   0.85797   0.78431   0.00000  Uiso   1.00
C1074  C     0.70182   0.80883   0.71601   0.00000  Uiso   1.00
C1075  C     0.98612   0.80876   0.71580   0.00000  Uiso   1.00
C1076  C     0.83289   0.75412   0.75157   0.00000  Uiso   1.00
C1077  C     0.85923   0.82954   0.65019   0.00000  Uiso   1.00
C1078  C     0.90081   0.76558   0.52521   0.00000  Uiso   1.00
C1079  C     0.87230   0.81711   0.59450   0.00000  Uiso   1.00
C1080  C     0.75428   0.86580   0.93235   0.00000  Uiso   1.00
C1081  C     0.74663   0.87883   0.98436   0.00000  Uiso   1.00
C1082  C     0.77912   0.86555   0.51081   0.00000  Uiso   1.00
Cu1083 Cu    0.78645   0.83333   0.75000   0.00000  Uiso   1.00
Cu1084 Cu    0.88022   0.83334   0.75000   0.00000  Uiso   1.00
H1085  H     0.90610   0.70402   0.75877   0.00000  Uiso   1.00
H1086  H     0.75861   0.70410   0.74761   0.00000  Uiso   1.00
H1087  H     0.75888   0.96281   0.74669   0.00000  Uiso   1.00
H1088  H     0.93883   0.87783   0.81175   0.00000  Uiso   1.00
H1089  H     0.69219   0.87775   0.81180   0.00000  Uiso   1.00
H1090  H     0.72874   0.78916   0.68882   0.00000  Uiso   1.00
H1091  H     0.91671   0.73534   0.51342   0.00000  Uiso   1.00
H1092  H     0.83361   0.86820   0.57732   0.00000  Uiso   1.00
H1093  H     0.73164   0.87819   0.91031   0.00000  Uiso   1.00
H1094  H     0.77217   0.87596   0.55087   0.00000  Uiso   1.00
H1095  H     0.85649   0.77532   0.87723   0.00000  Uiso   1.00
H1096  H     0.90643   0.96267   0.75768   0.00000  Uiso   1.00
N1097  N     0.71598   0.83332   0.74998   0.00000  Uiso   1.00
N1098  N     0.95069   0.83335   0.74999   0.00000  Uiso   1.00
O1099  O     0.79375   0.89345   0.75000   0.00000  Uiso   1.00
O1100  O     0.87294   0.89346   0.75000   0.00000  Uiso   1.00
O1101  O     0.77441   0.83332   0.82549   0.00000  Uiso   1.00
O1102  O     0.85360   0.83333   0.82549   0.00000  Uiso   1.00
O1103  O     0.79373   0.77321   0.74999   0.00000  Uiso   1.00
O1104  O     0.87292   0.77322   0.74999   0.00000  Uiso   1.00
O1105  O     0.81306   0.83334   0.67451   0.00000  Uiso   1.00
O1106  O     0.89225   0.83335   0.67451   0.00000  Uiso   1.00
Br1107 Br    0.88821   0.73315   0.62394   0.00000  Uiso   1.00
Br1108 Br    0.97378   0.77280   0.66527   0.00000  Uiso   1.00
C1109  C     0.92089   0.74008   0.91445   0.00000  Uiso   1.00
O1110  O     0.91052   0.71512   0.88484   0.00000  Uiso   1.00
O1111  O     0.96735   0.73894   0.92119   0.00000  Uiso   1.00
H1112  H     0.98863   0.71573   0.90025   0.00000  Uiso   1.00
C1113  C     0.70536   0.90716   0.51086   0.00000  Uiso   1.00
O1114  O     0.67724   0.91888   0.98766   0.00000  Uiso   1.00
O1115  O     0.69831   0.92042   0.56263   0.00000  Uiso   1.00
H1116  H     0.66891   0.93947   0.57633   0.00000  Uiso   1.00
loop_
_geom_bond_atom_site_label_1
_geom_bond_atom_site_label_2
_geom_bond_distance
_geom_bond_site_symmetry_2
_ccdc_geom_bond_type
C1     C17     1.450   .     S
C1     O45     1.295   .     A
C1     O46     1.294   .     A
C2     C3      1.416   .     A
C2     C562    1.424   .     S
C2     C586    1.416   .     S
C3     C10     1.415   .     A
C3     C7      1.408   .     A
C4     C8      1.414   .     A
C4     C560    1.424   1_554 S
C4     C563    1.423   1_554 S
C5     C6      1.410   .     A
C5     C562    1.423   .     S
C5     C582    1.401   .     S
C6     C7      1.391   .     A
C6     C55     1.489   .     S
C7     H41     1.082   .     S
C8     C25     1.401   .     A
C8     H38     1.080   .     S
C9     C24     1.388   .     A
C9     C25     1.408   .     A
C9     Br53    1.911   .     S
C10    C26     1.399   .     A
C10    C12     1.471   .     S
C11    H42     1.083   .     S
C11    C17     1.402   .     A
C11    C199    1.383   .     S
C12    O48     1.295   .     A
C12    O47     1.302   .     A
C13    C14     1.401   .     A
C13    H31     1.083   .     S
C13    C383    1.383   1_545 S
C14    C22     1.450   .     S
C14    C15     1.401   .     A
C15    H32     1.083   .     S
C15    C388    1.383   1_545 S
C16    H33     1.083   .     S
C16    C17     1.401   .     A
C16    C201    1.383   .     S
C18    N44     1.368   .     A
C18    H34     1.082   .     S
C18    C81     1.421   .     S
C19    N43     1.370   .     A
C19    H35     1.082   .     S
C19    C142    1.421   1_455 S
C20    H36     1.082   .     S
C20    N43     1.352   .     A
C20    C145    1.408   1_455 S
C21    N44     1.382   .     A
C21    Br54    1.887   .     S
C21    C82     1.408   .     S
C22    O50     1.296   .     A
C22    O49     1.294   .     A
C23    O52     1.309   .     A
C23    C25     1.472   .     S
C23    O51     1.289   .     A
C24    H37     1.082   .     S
C24    C563    1.401   1_554 S
C26    C27     1.400   .     A
C26    H39     1.084   .     S
C27    C586    1.404   .     S
C27    C617    1.486   .     S
C28    H40     1.078   .     S
C28    C560    1.416   1_554 S
C28    C585    1.404   1_554 S
Cu29   N43     2.021   .     S
Cu29   O47     1.946   .     S
Cu29   Cu30    2.689   .     S
Cu29   O51     1.932   .     S
Cu29   O49     1.963   .     S
Cu29   O45     1.964   .     S
Cu30   O46     1.963   .     S
Cu30   N44     2.021   .     S
Cu30   O48     1.932   .     S
Cu30   O52     1.946   .     S
Cu30   O50     1.964   .     S
C55    O56     1.224   .     D
C55    O57     1.399   .     S
O57    H58     1.014   .     S
C59    O61     1.399   .     S
C59    C585    1.486   1_554 S
C59    O618    1.224   1_554 S
O60    C617    1.224   .     S
O61    H62     1.014   .     S
C63    C79     1.450   .     S
C63    O107    1.295   .     A
C63    O108    1.294   .     A
C64    C65     1.416   .     A
C64    C624    1.424   .     S
C64    C648    1.416   .     S
C65    C72     1.415   .     A
C65    C69     1.408   .     A
C66    C70     1.414   .     A
C66    C622    1.424   1_554 S
C66    C625    1.423   1_554 S
C67    C68     1.410   .     A
C67    C624    1.423   .     S
C67    C644    1.401   .     S
C68    C69     1.391   .     A
C68    C117    1.489   .     S
C69    H103    1.082   .     S
C70    C87     1.401   .     A
C70    H100    1.080   .     S
C71    C86     1.388   .     A
C71    C87     1.408   .     A
C71    Br115   1.911   .     S
C72    C88     1.399   .     A
C72    C74     1.471   .     S
C73    H104    1.083   .     S
C73    C79     1.402   .     A
C73    C261    1.383   .     S
C74    O110    1.295   .     A
C74    O109    1.302   .     A
C75    C76     1.401   .     A
C75    H93     1.083   .     S
C75    C445    1.383   1_545 S
C76    C84     1.450   .     S
C76    C77     1.401   .     A
C77    H94     1.083   .     S
C77    C450    1.383   1_545 S
C78    H95     1.083   .     S
C78    C79     1.401   .     A
C78    C263    1.383   .     S
C80    N106    1.368   .     A
C80    H96     1.082   .     S
C80    C143    1.421   .     S
C81    N105    1.370   .     A
C81    H97     1.082   .     S
C82    H98     1.082   .     S
C82    N105    1.352   .     A
C83    N106    1.382   .     A
C83    Br116   1.887   .     S
C83    C144    1.408   .     S
C84    O112    1.296   .     A
C84    O111    1.294   .     A
C85    O114    1.309   .     A
C85    C87     1.472   .     S
C85    O113    1.289   .     A
C86    H99     1.082   .     S
C86    C625    1.401   1_554 S
C88    C89     1.400   .     A
C88    H101    1.084   .     S
C89    C648    1.404   .     S
C89    C679    1.486   .     S
C90    H102    1.078   .     S
C90    C622    1.416   1_554 S
C90    C647    1.404   1_554 S
Cu91   N105    2.021   .     S
Cu91   O109    1.946   .     S
Cu91   Cu92    2.689   .     S
Cu91   O113    1.932   .     S
Cu91   O111    1.963   .     S
Cu91   O107    1.964   .     S
Cu92   O108    1.963   .     S
Cu92   N106    2.021   .     S
Cu92   O110    1.932   .     S
Cu92   O114    1.946   .     S
Cu92   O112    1.964   .     S
C117   O118    1.224   .     D
C117   O119    1.399   .     S
O119   H120    1.014   .     S
C121   O123    1.399   .     S
C121   C647    1.486   1_554 S
C121   O680    1.224   1_554 S
O122   C679    1.224   .     S
O123   H124    1.014   .     S
C125   C141    1.450   .     S
C125   O169    1.295   .     A
C125   O170    1.294   .     A
C126   C127    1.416   .     A
C126   C686    1.424   .     S
C126   C710    1.416   .     S
C127   C134    1.415   .     A
C127   C131    1.408   .     A
C128   C132    1.414   .     A
C128   C684    1.424   1_554 S
C128   C687    1.423   1_554 S
C129   C130    1.410   .     A
C129   C686    1.423   .     S
C129   C706    1.401   .     S
C130   C131    1.391   .     A
C130   C179    1.489   .     S
C131   H165    1.082   .     S
C132   C149    1.401   .     A
C132   H162    1.080   .     S
C133   C148    1.388   .     A
C133   C149    1.408   .     A
C133   Br177   1.911   .     S
C134   C150    1.399   .     A
C134   C136    1.471   .     S
C135   H166    1.083   .     S
C135   C141    1.402   .     A
C135   C323    1.383   .     S
C136   O172    1.295   .     A
C136   O171    1.302   .     A
C137   C138    1.401   .     A
C137   H155    1.083   .     S
C137   C507    1.383   1_545 S
C138   C146    1.450   .     S
C138   C139    1.401   .     A
C139   H156    1.083   .     S
C139   C512    1.383   1_545 S
C140   H157    1.083   .     S
C140   C141    1.401   .     A
C140   C325    1.383   .     S
C142   N168    1.368   .     A
C142   H158    1.082   .     S
C142   C19     1.421   1_655 S
C143   N167    1.370   .     A
C143   H159    1.082   .     S
C144   H160    1.082   .     S
C144   N167    1.352   .     A
C145   N168    1.382   .     A
C145   Br178   1.887   .     S
C145   C20     1.408   1_655 S
C146   O174    1.296   .     A
C146   O173    1.294   .     A
C147   O176    1.309   .     A
C147   C149    1.472   .     S
C147   O175    1.289   .     A
C148   H161    1.082   .     S
C148   C687    1.401   1_554 S
C150   C151    1.400   .     A
C150   H163    1.084   .     S
C151   C710    1.404   .     S
C151   C741    1.486   .     S
C152   H164    1.078   .     S
C152   C684    1.416   1_554 S
C152   C709    1.404   1_554 S
Cu153  N167    2.021   .     S
Cu153  O171    1.946   .     S
Cu153  Cu154   2.689   .     S
Cu153  O175    1.932   .     S
Cu153  O173    1.963   .     S
Cu153  O169    1.964   .     S
Cu154  O170    1.963   .     S
Cu154  N168    2.021   .     S
Cu154  O172    1.932   .     S
Cu154  O176    1.946   .     S
Cu154  O174    1.964   .     S
C179   O180    1.224   .     D
C179   O181    1.399   .     S
O181   H182    1.014   .     S
C183   O185    1.399   .     S
C183   C709    1.486   1_554 S
C183   O742    1.224   1_554 S
O184   C741    1.224   .     S
O185   H186    1.014   .     S
C187   C203    1.450   .     S
C187   O231    1.295   .     A
C187   O232    1.294   .     A
C188   C189    1.416   .     A
C188   C748    1.424   .     S
C188   C772    1.416   .     S
C189   C196    1.415   .     A
C189   C193    1.408   .     A
C190   C194    1.414   .     A
C190   C746    1.424   1_554 S
C190   C749    1.423   1_554 S
C191   C192    1.410   .     A
C191   C748    1.423   .     S
C191   C768    1.401   .     S
C192   C193    1.391   .     A
C192   C241    1.489   .     S
C193   H227    1.082   .     S
C194   C211    1.401   .     A
C194   H224    1.080   .     S
C195   C210    1.388   .     A
C195   C211    1.408   .     A
C195   Br239   1.911   .     S
C196   C212    1.399   .     A
C196   C198    1.471   .     S
C197   H228    1.083   .     S
C197   C203    1.402   .     A
C197   C385    1.383   .     S
C198   O234    1.295   .     A
C198   O233    1.302   .     A
C199   C200    1.401   .     A
C199   H217    1.083   .     S
C200   C208    1.450   .     S
C200   C201    1.401   .     A
C201   H218    1.083   .     S
C202   H219    1.083   .     S
C202   C203    1.401   .     A
C202   C387    1.383   .     S
C204   N230    1.368   .     A
C204   H220    1.082   .     S
C204   C267    1.421   .     S
C205   N229    1.370   .     A
C205   H221    1.082   .     S
C205   C328    1.421   1_455 S
C206   H222    1.082   .     S
C206   N229    1.352   .     A
C206   C331    1.408   1_455 S
C207   N230    1.382   .     A
C207   Br240   1.887   .     S
C207   C268    1.408   .     S
C208   O236    1.296   .     A
C208   O235    1.294   .     A
C209   O238    1.309   .     A
C209   C211    1.472   .     S
C209   O237    1.289   .     A
C210   H223    1.082   .     S
C210   C749    1.401   1_554 S
C212   C213    1.400   .     A
C212   H225    1.084   .     S
C213   C772    1.404   .     S
C213   C803    1.486   .     S
C214   H226    1.078   .     S
C214   C746    1.416   1_554 S
C214   C771    1.404   1_554 S
Cu215  N229    2.021   .     S
Cu215  O233    1.946   .     S
Cu215  Cu216   2.689   .     S
Cu215  O237    1.932   .     S
Cu215  O235    1.963   .     S
Cu215  O231    1.964   .     S
Cu216  O232    1.963   .     S
Cu216  N230    2.021   .     S
Cu216  O234    1.932   .     S
Cu216  O238    1.946   .     S
Cu216  O236    1.964   .     S
C241   O242    1.224   .     D
C241   O243    1.399   .     S
O243   H244    1.014   .     S
C245   O247    1.399   .     S
C245   C771    1.486   1_554 S
C245   O804    1.224   1_554 S
O246   C803    1.224   .     S
O247   H248    1.014   .     S
C249   C265    1.450   .     S
C249   O293    1.295   .     A
C249   O294    1.294   .     A
C250   C251    1.416   .     A
C250   C810    1.424   .     S
C250   C834    1.416   .     S
C251   C258    1.415   .     A
C251   C255    1.408   .     A
C252   C256    1.414   .     A
C252   C808    1.424   1_554 S
C252   C811    1.423   1_554 S
C253   C254    1.410   .     A
C253   C810    1.423   .     S
C253   C830    1.401   .     S
C254   C255    1.391   .     A
C254   C303    1.489   .     S
C255   H289    1.082   .     S
C256   C273    1.401   .     A
C256   H286    1.080   .     S
C257   C272    1.388   .     A
C257   C273    1.408   .     A
C257   Br301   1.911   .     S
C258   C274    1.399   .     A
C258   C260    1.471   .     S
C259   H290    1.083   .     S
C259   C265    1.402   .     A
C259   C447    1.383   .     S
C260   O296    1.295   .     A
C260   O295    1.302   .     A
C261   C262    1.401   .     A
C261   H279    1.083   .     S
C262   C270    1.450   .     S
C262   C263    1.401   .     A
C263   H280    1.083   .     S
C264   H281    1.083   .     S
C264   C265    1.401   .     A
C264   C449    1.383   .     S
C266   N292    1.368   .     A
C266   H282    1.082   .     S
C266   C329    1.421   .     S
C267   N291    1.370   .     A
C267   H283    1.082   .     S
C268   H284    1.082   .     S
C268   N291    1.352   .     A
C269   N292    1.382   .     A
C269   Br302   1.887   .     S
C269   C330    1.408   .     S
C270   O298    1.296   .     A
C270   O297    1.294   .     A
C271   O300    1.309   .     A
C271   C273    1.472   .     S
C271   O299    1.289   .     A
C272   H285    1.082   .     S
C272   C811    1.401   1_554 S
C274   C275    1.400   .     A
C274   H287    1.084   .     S
C275   C834    1.404   .     S
C275   C865    1.486   .     S
C276   H288    1.078   .     S
C276   C808    1.416   1_554 S
C276   C833    1.404   1_554 S
Cu277  N291    2.021   .     S
Cu277  O295    1.946   .     S
Cu277  Cu278   2.689   .     S
Cu277  O299    1.932   .     S
Cu277  O297    1.963   .     S
Cu277  O293    1.964   .     S
Cu278  O294    1.963   .     S
Cu278  N292    2.021   .     S
Cu278  O296    1.932   .     S
Cu278  O300    1.946   .     S
Cu278  O298    1.964   .     S
C303   O304    1.224   .     D
C303   O305    1.399   .     S
O305   H306    1.014   .     S
C307   O309    1.399   .     S
C307   C833    1.486   1_554 S
C307   O866    1.224   1_554 S
O308   C865    1.224   .     S
O309   H310    1.014   .     S
C311   C327    1.450   .     S
C311   O355    1.295   .     A
C311   O356    1.294   .     A
C312   C313    1.416   .     A
C312   C872    1.424   .     S
C312   C896    1.416   .     S
C313   C320    1.415   .     A
C313   C317    1.408   .     A
C314   C318    1.414   .     A
C314   C870    1.424   1_554 S
C314   C873    1.423   1_554 S
C315   C316    1.410   .     A
C315   C872    1.423   .     S
C315   C892    1.401   .     S
C316   C317    1.391   .     A
C316   C365    1.489   .     S
C317   H351    1.082   .     S
C318   C335    1.401   .     A
C318   H348    1.080   .     S
C319   C334    1.388   .     A
C319   C335    1.408   .     A
C319   Br363   1.911   .     S
C320   C336    1.399   .     A
C320   C322    1.471   .     S
C321   H352    1.083   .     S
C321   C327    1.402   .     A
C321   C509    1.383   .     S
C322   O358    1.295   .     A
C322   O357    1.302   .     A
C323   C324    1.401   .     A
C323   H341    1.083   .     S
C324   C332    1.450   .     S
C324   C325    1.401   .     A
C325   H342    1.083   .     S
C326   H343    1.083   .     S
C326   C327    1.401   .     A
C326   C511    1.383   .     S
C328   N354    1.368   .     A
C328   H344    1.082   .     S
C328   C205    1.421   1_655 S
C329   N353    1.370   .     A
C329   H345    1.082   .     S
C330   H346    1.082   .     S
C330   N353    1.352   .     A
C331   N354    1.382   .     A
C331   Br364   1.887   .     S
C331   C206    1.408   1_655 S
C332   O360    1.296   .     A
C332   O359    1.294   .     A
C333   O362    1.309   .     A
C333   C335    1.472   .     S
C333   O361    1.289   .     A
C334   H347    1.082   .     S
C334   C873    1.401   1_554 S
C336   C337    1.400   .     A
C336   H349    1.084   .     S
C337   C896    1.404   .     S
C337   C927    1.486   .     S
C338   H350    1.078   .     S
C338   C870    1.416   1_554 S
C338   C895    1.404   1_554 S
Cu339  N353    2.021   .     S
Cu339  O357    1.946   .     S
Cu339  Cu340   2.689   .     S
Cu339  O361    1.932   .     S
Cu339  O359    1.963   .     S
Cu339  O355    1.964   .     S
Cu340  O356    1.963   .     S
Cu340  N354    2.021   .     S
Cu340  O358    1.932   .     S
Cu340  O362    1.946   .     S
Cu340  O360    1.964   .     S
C365   O366    1.224   .     D
C365   O367    1.399   .     S
O367   H368    1.014   .     S
C369   O371    1.399   .     S
C369   C895    1.486   1_554 S
C369   O928    1.224   1_554 S
O370   C927    1.224   .     S
O371   H372    1.014   .     S
C373   C389    1.450   .     S
C373   O417    1.295   .     A
C373   O418    1.294   .     A
C374   C375    1.416   .     A
C374   C934    1.424   .     S
C374   C958    1.416   .     S
C375   C382    1.415   .     A
C375   C379    1.408   .     A
C376   C380    1.414   .     A
C376   C932    1.424   1_554 S
C376   C935    1.423   1_554 S
C377   C378    1.410   .     A
C377   C934    1.423   .     S
C377   C954    1.401   .     S
C378   C379    1.391   .     A
C378   C427    1.489   .     S
C379   H413    1.082   .     S
C380   C397    1.401   .     A
C380   H410    1.080   .     S
C381   C396    1.388   .     A
C381   C397    1.408   .     A
C381   Br425   1.911   .     S
C382   C398    1.399   .     A
C382   C384    1.471   .     S
C383   H414    1.083   .     S
C383   C389    1.402   .     A
C383   C13     1.383   1_565 S
C384   O420    1.295   .     A
C384   O419    1.302   .     A
C385   C386    1.401   .     A
C385   H403    1.083   .     S
C386   C394    1.450   .     S
C386   C387    1.401   .     A
C387   H404    1.083   .     S
C388   H405    1.083   .     S
C388   C389    1.401   .     A
C388   C15     1.383   1_565 S
C390   N416    1.368   .     A
C390   H406    1.082   .     S
C390   C453    1.421   .     S
C391   N415    1.370   .     A
C391   H407    1.082   .     S
C391   C514    1.421   1_455 S
C392   H408    1.082   .     S
C392   N415    1.352   .     A
C392   C517    1.408   1_455 S
C393   N416    1.382   .     A
C393   Br426   1.887   .     S
C393   C454    1.408   .     S
C394   O422    1.296   .     A
C394   O421    1.294   .     A
C395   O424    1.309   .     A
C395   C397    1.472   .     S
C395   O423    1.289   .     A
C396   H409    1.082   .     S
C396   C935    1.401   1_554 S
C398   C399    1.400   .     A
C398   H411    1.084   .     S
C399   C958    1.404   .     S
C399   C989    1.486   .     S
C400   H412    1.078   .     S
C400   C932    1.416   1_554 S
C400   C957    1.404   1_554 S
Cu401  N415    2.021   .     S
Cu401  O419    1.946   .     S
Cu401  Cu402   2.689   .     S
Cu401  O423    1.932   .     S
Cu401  O421    1.963   .     S
Cu401  O417    1.964   .     S
Cu402  O418    1.963   .     S
Cu402  N416    2.021   .     S
Cu402  O420    1.932   .     S
Cu402  O424    1.946   .     S
Cu402  O422    1.964   .     S
C427   O428    1.224   .     D
C427   O429    1.399   .     S
O429   H430    1.014   .     S
C431   O433    1.399   .     S
C431   C957    1.486   1_554 S
C431   O990    1.224   1_554 S
O432   C989    1.224   .     S
O433   H434    1.014   .     S
C435   C451    1.450   .     S
C435   O479    1.295   .     A
C435   O480    1.294   .     A
C436   C437    1.416   .     A
C436   C996    1.424   .     S
C436   C1020   1.416   .     S
C437   C444    1.415   .     A
C437   C441    1.408   .     A
C438   C442    1.414   .     A
C438   C994    1.424   1_554 S
C438   C997    1.423   1_554 S
C439   C440    1.410   .     A
C439   C996    1.423   .     S
C439   C1016   1.401   .     S
C440   C441    1.391   .     A
C440   C489    1.489   .     S
C441   H475    1.082   .     S
C442   C459    1.401   .     A
C442   H472    1.080   .     S
C443   C458    1.388   .     A
C443   C459    1.408   .     A
C443   Br487   1.911   .     S
C444   C460    1.399   .     A
C444   C446    1.471   .     S
C445   H476    1.083   .     S
C445   C451    1.402   .     A
C445   C75     1.383   1_565 S
C446   O482    1.295   .     A
C446   O481    1.302   .     A
C447   C448    1.401   .     A
C447   H465    1.083   .     S
C448   C456    1.450   .     S
C448   C449    1.401   .     A
C449   H466    1.083   .     S
C450   H467    1.083   .     S
C450   C451    1.401   .     A
C450   C77     1.383   1_565 S
C452   N478    1.368   .     A
C452   H468    1.082   .     S
C452   C515    1.421   .     S
C453   N477    1.370   .     A
C453   H469    1.082   .     S
C454   H470    1.082   .     S
C454   N477    1.352   .     A
C455   N478    1.382   .     A
C455   Br488   1.887   .     S
C455   C516    1.408   .     S
C456   O484    1.296   .     A
C456   O483    1.294   .     A
C457   O486    1.309   .     A
C457   C459    1.472   .     S
C457   O485    1.289   .     A
C458   H471    1.082   .     S
C458   C997    1.401   1_554 S
C460   C461    1.400   .     A
C460   H473    1.084   .     S
C461   C1020   1.404   .     S
C461   C1051   1.486   .     S
C462   H474    1.078   .     S
C462   C994    1.416   1_554 S
C462   C1019   1.404   1_554 S
Cu463  N477    2.021   .     S
Cu463  O481    1.946   .     S
Cu463  Cu464   2.689   .     S
Cu463  O485    1.932   .     S
Cu463  O483    1.963   .     S
Cu463  O479    1.964   .     S
Cu464  O480    1.963   .     S
Cu464  N478    2.021   .     S
Cu464  O482    1.932   .     S
Cu464  O486    1.946   .     S
Cu464  O484    1.964   .     S
C489   O490    1.224   .     D
C489   O491    1.399   .     S
O491   H492    1.014   .     S
C493   O495    1.399   .     S
C493   C1019   1.486   1_554 S
C493   O1052   1.224   1_554 S
O494   C1051   1.224   .     S
O495   H496    1.014   .     S
C497   C513    1.450   .     S
C497   O541    1.295   .     A
C497   O542    1.294   .     A
C498   C499    1.416   .     A
C498   C1058   1.424   .     S
C498   C1082   1.416   .     S
C499   C506    1.415   .     A
C499   C503    1.408   .     A
C500   C504    1.414   .     A
C500   C1056   1.424   1_554 S
C500   C1059   1.423   1_554 S
C501   C502    1.410   .     A
C501   C1058   1.423   .     S
C501   C1078   1.401   .     S
C502   C503    1.391   .     A
C502   C551    1.489   .     S
C503   H537    1.082   .     S
C504   C521    1.401   .     A
C504   H534    1.080   .     S
C505   C520    1.388   .     A
C505   C521    1.408   .     A
C505   Br549   1.911   .     S
C506   C522    1.399   .     A
C506   C508    1.471   .     S
C507   H538    1.083   .     S
C507   C513    1.402   .     A
C507   C137    1.383   1_565 S
C508   O544    1.295   .     A
C508   O543    1.302   .     A
C509   C510    1.401   .     A
C509   H527    1.083   .     S
C510   C518    1.450   .     S
C510   C511    1.401   .     A
C511   H528    1.083   .     S
C512   H529    1.083   .     S
C512   C513    1.401   .     A
C512   C139    1.383   1_565 S
C514   N540    1.368   .     A
C514   H530    1.082   .     S
C514   C391    1.421   1_655 S
C515   N539    1.370   .     A
C515   H531    1.082   .     S
C516   H532    1.082   .     S
C516   N539    1.352   .     A
C517   N540    1.382   .     A
C517   Br550   1.887   .     S
C517   C392    1.408   1_655 S
C518   O546    1.296   .     A
C518   O545    1.294   .     A
C519   O548    1.309   .     A
C519   C521    1.472   .     S
C519   O547    1.289   .     A
C520   H533    1.082   .     S
C520   C1059   1.401   1_554 S
C522   C523    1.400   .     A
C522   H535    1.084   .     S
C523   C1082   1.404   .     S
C523   C1113   1.486   .     S
C524   H536    1.078   .     S
C524   C1056   1.416   1_554 S
C524   C1081   1.404   1_554 S
Cu525  N539    2.021   .     S
Cu525  O543    1.946   .     S
Cu525  Cu526   2.689   .     S
Cu525  O547    1.932   .     S
Cu525  O545    1.963   .     S
Cu525  O541    1.964   .     S
Cu526  O542    1.963   .     S
Cu526  N540    2.021   .     S
Cu526  O544    1.932   .     S
Cu526  O548    1.946   .     S
Cu526  O546    1.964   .     S
C551   O552    1.224   .     D
C551   O553    1.399   .     S
O553   H554    1.014   .     S
C555   O557    1.399   .     S
C555   C1081   1.486   1_554 S
C555   O1114   1.224   1_554 S
O556   C1113   1.224   .     S
O557   H558    1.014   .     S
C559   C575    1.450   .     S
C559   O603    1.295   .     A
C559   O604    1.294   .     A
C560   C561    1.416   .     A
C560   C4      1.424   1_556 S
C560   C28     1.416   1_556 S
C561   C568    1.415   .     A
C561   C565    1.408   .     A
C562   C566    1.414   .     A
C563   C564    1.410   .     A
C563   C4      1.423   1_556 S
C563   C24     1.401   1_556 S
C564   C565    1.391   .     A
C564   C613    1.489   .     S
C565   H599    1.082   .     S
C566   C583    1.401   .     A
C566   H596    1.080   .     S
C567   C582    1.388   .     A
C567   C583    1.408   .     A
C567   Br611   1.911   .     S
C568   C584    1.399   .     A
C568   C570    1.471   .     S
C569   H600    1.083   .     S
C569   C575    1.402   .     A
C569   C757    1.383   .     S
C570   O606    1.295   .     A
C570   O605    1.302   .     A
C571   C572    1.401   .     A
C571   H589    1.083   .     S
C571   C941    1.383   1_545 S
C572   C580    1.450   .     S
C572   C573    1.401   .     A
C573   H590    1.083   .     S
C573   C946    1.383   1_545 S
C574   H591    1.083   .     S
C574   C575    1.401   .     A
C574   C759    1.383   .     S
C576   N602    1.368   .     A
C576   H592    1.082   .     S
C576   C639    1.421   .     S
C577   N601    1.370   .     A
C577   H593    1.082   .     S
C577   C700    1.421   1_455 S
C578   H594    1.082   .     S
C578   N601    1.352   .     A
C578   C703    1.408   1_455 S
C579   N602    1.382   .     A
C579   Br612   1.887   .     S
C579   C640    1.408   .     S
C580   O608    1.296   .     A
C580   O607    1.294   .     A
C581   O610    1.309   .     A
C581   C583    1.472   .     S
C581   O609    1.289   .     A
C582   H595    1.082   .     S
C584   C585    1.400   .     A
C584   H597    1.084   .     S
C585   C28     1.404   1_556 S
C585   C59     1.486   1_556 S
C586   H598    1.078   .     S
Cu587  N601    2.021   .     S
Cu587  O605    1.946   .     S
Cu587  Cu588   2.689   .     S
Cu587  O609    1.932   .     S
Cu587  O607    1.963   .     S
Cu587  O603    1.964   .     S
Cu588  O604    1.963   .     S
Cu588  N602    2.021   .     S
Cu588  O606    1.932   .     S
Cu588  O610    1.946   .     S
Cu588  O608    1.964   .     S
C613   O614    1.224   .     D
C613   O615    1.399   .     S
O615   H616    1.014   .     S
C617   O619    1.399   .     S
O618   C59     1.224   1_556 S
O619   H620    1.014   .     S
C621   C637    1.450   .     S
C621   O665    1.295   .     A
C621   O666    1.294   .     A
C622   C623    1.416   .     A
C622   C66     1.424   1_556 S
C622   C90     1.416   1_556 S
C623   C630    1.415   .     A
C623   C627    1.408   .     A
C624   C628    1.414   .     A
C625   C626    1.410   .     A
C625   C66     1.423   1_556 S
C625   C86     1.401   1_556 S
C626   C627    1.391   .     A
C626   C675    1.489   .     S
C627   H661    1.082   .     S
C628   C645    1.401   .     A
C628   H658    1.080   .     S
C629   C644    1.388   .     A
C629   C645    1.408   .     A
C629   Br673   1.911   .     S
C630   C646    1.399   .     A
C630   C632    1.471   .     S
C631   H662    1.083   .     S
C631   C637    1.402   .     A
C631   C819    1.383   .     S
C632   O668    1.295   .     A
C632   O667    1.302   .     A
C633   C634    1.401   .     A
C633   H651    1.083   .     S
C633   C1003   1.383   1_545 S
C634   C642    1.450   .     S
C634   C635    1.401   .     A
C635   H652    1.083   .     S
C635   C1008   1.383   1_545 S
C636   H653    1.083   .     S
C636   C637    1.401   .     A
C636   C821    1.383   .     S
C638   N664    1.368   .     A
C638   H654    1.082   .     S
C638   C701    1.421   .     S
C639   N663    1.370   .     A
C639   H655    1.082   .     S
C640   H656    1.082   .     S
C640   N663    1.352   .     A
C641   N664    1.382   .     A
C641   Br674   1.887   .     S
C641   C702    1.408   .     S
C642   O670    1.296   .     A
C642   O669    1.294   .     A
C643   O672    1.309   .     A
C643   C645    1.472   .     S
C643   O671    1.289   .     A
C644   H657    1.082   .     S
C646   C647    1.400   .     A
C646   H659    1.084   .     S
C647   C90     1.404   1_556 S
C647   C121    1.486   1_556 S
C648   H660    1.078   .     S
Cu649  N663    2.021   .     S
Cu649  O667    1.946   .     S
Cu649  Cu650   2.689   .     S
Cu649  O671    1.932   .     S
Cu649  O669    1.963   .     S
Cu649  O665    1.964   .     S
Cu650  O666    1.963   .     S
Cu650  N664    2.021   .     S
Cu650  O668    1.932   .     S
Cu650  O672    1.946   .     S
Cu650  O670    1.964   .     S
C675   O676    1.224   .     D
C675   O677    1.399   .     S
O677   H678    1.014   .     S
C679   O681    1.399   .     S
O680   C121    1.224   1_556 S
O681   H682    1.014   .     S
C683   C699    1.450   .     S
C683   O727    1.295   .     A
C683   O728    1.294   .     A
C684   C685    1.416   .     A
C684   C128    1.424   1_556 S
C684   C152    1.416   1_556 S
C685   C692    1.415   .     A
C685   C689    1.408   .     A
C686   C690    1.414   .     A
C687   C688    1.410   .     A
C687   C128    1.423   1_556 S
C687   C148    1.401   1_556 S
C688   C689    1.391   .     A
C688   C737    1.489   .     S
C689   H723    1.082   .     S
C690   C707    1.401   .     A
C690   H720    1.080   .     S
C691   C706    1.388   .     A
C691   C707    1.408   .     A
C691   Br735   1.911   .     S
C692   C708    1.399   .     A
C692   C694    1.471   .     S
C693   H724    1.083   .     S
C693   C699    1.402   .     A
C693   C881    1.383   .     S
C694   O730    1.295   .     A
C694   O729    1.302   .     A
C695   C696    1.401   .     A
C695   H713    1.083   .     S
C695   C1065   1.383   1_545 S
C696   C704    1.450   .     S
C696   C697    1.401   .     A
C697   H714    1.083   .     S
C697   C1070   1.383   1_545 S
C698   H715    1.083   .     S
C698   C699    1.401   .     A
C698   C883    1.383   .     S
C700   N726    1.368   .     A
C700   H716    1.082   .     S
C700   C577    1.421   1_655 S
C701   N725    1.370   .     A
C701   H717    1.082   .     S
C702   H718    1.082   .     S
C702   N725    1.352   .     A
C703   N726    1.382   .     A
C703   Br736   1.887   .     S
C703   C578    1.408   1_655 S
C704   O732    1.296   .     A
C704   O731    1.294   .     A
C705   O734    1.309   .     A
C705   C707    1.472   .     S
C705   O733    1.289   .     A
C706   H719    1.082   .     S
C708   C709    1.400   .     A
C708   H721    1.084   .     S
C709   C152    1.404   1_556 S
C709   C183    1.486   1_556 S
C710   H722    1.078   .     S
Cu711  N725    2.021   .     S
Cu711  O729    1.946   .     S
Cu711  Cu712   2.689   .     S
Cu711  O733    1.932   .     S
Cu711  O731    1.963   .     S
Cu711  O727    1.964   .     S
Cu712  O728    1.963   .     S
Cu712  N726    2.021   .     S
Cu712  O730    1.932   .     S
Cu712  O734    1.946   .     S
Cu712  O732    1.964   .     S
C737   O738    1.224   .     D
C737   O739    1.399   .     S
O739   H740    1.014   .     S
C741   O743    1.399   .     S
O742   C183    1.224   1_556 S
O743   H744    1.014   .     S
C745   C761    1.450   .     S
C745   O789    1.295   .     A
C745   O790    1.294   .     A
C746   C747    1.416   .     A
C746   C190    1.424   1_556 S
C746   C214    1.416   1_556 S
C747   C754    1.415   .     A
C747   C751    1.408   .     A
C748   C752    1.414   .     A
C749   C750    1.410   .     A
C749   C190    1.423   1_556 S
C749   C210    1.401   1_556 S
C750   C751    1.391   .     A
C750   C799    1.489   .     S
C751   H785    1.082   .     S
C752   C769    1.401   .     A
C752   H782    1.080   .     S
C753   C768    1.388   .     A
C753   C769    1.408   .     A
C753   Br797   1.911   .     S
C754   C770    1.399   .     A
C754   C756    1.471   .     S
C755   H786    1.083   .     S
C755   C761    1.402   .     A
C755   C943    1.383   .     S
C756   O792    1.295   .     A
C756   O791    1.302   .     A
C757   C758    1.401   .     A
C757   H775    1.083   .     S
C758   C766    1.450   .     S
C758   C759    1.401   .     A
C759   H776    1.083   .     S
C760   H777    1.083   .     S
C760   C761    1.401   .     A
C760   C945    1.383   .     S
C762   N788    1.368   .     A
C762   H778    1.082   .     S
C762   C825    1.421   .     S
C763   N787    1.370   .     A
C763   H779    1.082   .     S
C763   C886    1.421   1_455 S
C764   H780    1.082   .     S
C764   N787    1.352   .     A
C764   C889    1.408   1_455 S
C765   N788    1.382   .     A
C765   Br798   1.887   .     S
C765   C826    1.408   .     S
C766   O794    1.296   .     A
C766   O793    1.294   .     A
C767   O796    1.309   .     A
C767   C769    1.472   .     S
C767   O795    1.289   .     A
C768   H781    1.082   .     S
C770   C771    1.400   .     A
C770   H783    1.084   .     S
C771   C214    1.404   1_556 S
C771   C245    1.486   1_556 S
C772   H784    1.078   .     S
Cu773  N787    2.021   .     S
Cu773  O791    1.946   .     S
Cu773  Cu774   2.689   .     S
Cu773  O795    1.932   .     S
Cu773  O793    1.963   .     S
Cu773  O789    1.964   .     S
Cu774  O790    1.963   .     S
Cu774  N788    2.021   .     S
Cu774  O792    1.932   .     S
Cu774  O796    1.946   .     S
Cu774  O794    1.964   .     S
C799   O800    1.224   .     D
C799   O801    1.399   .     S
O801   H802    1.014   .     S
C803   O805    1.399   .     S
O804   C245    1.224   1_556 S
O805   H806    1.014   .     S
C807   C823    1.450   .     S
C807   O851    1.295   .     A
C807   O852    1.294   .     A
C808   C809    1.416   .     A
C808   C252    1.424   1_556 S
C808   C276    1.416   1_556 S
C809   C816    1.415   .     A
C809   C813    1.408   .     A
C810   C814    1.414   .     A
C811   C812    1.410   .     A
C811   C252    1.423   1_556 S
C811   C272    1.401   1_556 S
C812   C813    1.391   .     A
C812   C861    1.489   .     S
C813   H847    1.082   .     S
C814   C831    1.401   .     A
C814   H844    1.080   .     S
C815   C830    1.388   .     A
C815   C831    1.408   .     A
C815   Br859   1.911   .     S
C816   C832    1.399   .     A
C816   C818    1.471   .     S
C817   H848    1.083   .     S
C817   C823    1.402   .     A
C817   C1005   1.383   .     S
C818   O854    1.295   .     A
C818   O853    1.302   .     A
C819   C820    1.401   .     A
C819   H837    1.083   .     S
C820   C828    1.450   .     S
C820   C821    1.401   .     A
C821   H838    1.083   .     S
C822   H839    1.083   .     S
C822   C823    1.401   .     A
C822   C1007   1.383   .     S
C824   N850    1.368   .     A
C824   H840    1.082   .     S
C824   C887    1.421   .     S
C825   N849    1.370   .     A
C825   H841    1.082   .     S
C826   H842    1.082   .     S
C826   N849    1.352   .     A
C827   N850    1.382   .     A
C827   Br860   1.887   .     S
C827   C888    1.408   .     S
C828   O856    1.296   .     A
C828   O855    1.294   .     A
C829   O858    1.309   .     A
C829   C831    1.472   .     S
C829   O857    1.289   .     A
C830   H843    1.082   .     S
C832   C833    1.400   .     A
C832   H845    1.084   .     S
C833   C276    1.404   1_556 S
C833   C307    1.486   1_556 S
C834   H846    1.078   .     S
Cu835  N849    2.021   .     S
Cu835  O853    1.946   .     S
Cu835  Cu836   2.689   .     S
Cu835  O857    1.932   .     S
Cu835  O855    1.963   .     S
Cu835  O851    1.964   .     S
Cu836  O852    1.963   .     S
Cu836  N850    2.021   .     S
Cu836  O854    1.932   .     S
Cu836  O858    1.946   .     S
Cu836  O856    1.964   .     S
C861   O862    1.224   .     D
C861   O863    1.399   .     S
O863   H864    1.014   .     S
C865   O867    1.399   .     S
O866   C307    1.224   1_556 S
O867   H868    1.014   .     S
C869   C885    1.450   .     S
C869   O913    1.295   .     A
C869   O914    1.294   .     A
C870   C871    1.416   .     A
C870   C314    1.424   1_556 S
C870   C338    1.416   1_556 S
C871   C878    1.415   .     A
C871   C875    1.408   .     A
C872   C876    1.414   .     A
C873   C874    1.410   .     A
C873   C314    1.423   1_556 S
C873   C334    1.401   1_556 S
C874   C875    1.391   .     A
C874   C923    1.489   .     S
C875   H909    1.082   .     S
C876   C893    1.401   .     A
C876   H906    1.080   .     S
C877   C892    1.388   .     A
C877   C893    1.408   .     A
C877   Br921   1.911   .     S
C878   C894    1.399   .     A
C878   C880    1.471   .     S
C879   H910    1.083   .     S
C879   C885    1.402   .     A
C879   C1067   1.383   .     S
C880   O916    1.295   .     A
C880   O915    1.302   .     A
C881   C882    1.401   .     A
C881   H899    1.083   .     S
C882   C890    1.450   .     S
C882   C883    1.401   .     A
C883   H900    1.083   .     S
C884   H901    1.083   .     S
C884   C885    1.401   .     A
C884   C1069   1.383   .     S
C886   N912    1.368   .     A
C886   H902    1.082   .     S
C886   C763    1.421   1_655 S
C887   N911    1.370   .     A
C887   H903    1.082   .     S
C888   H904    1.082   .     S
C888   N911    1.352   .     A
C889   N912    1.382   .     A
C889   Br922   1.887   .     S
C889   C764    1.408   1_655 S
C890   O918    1.296   .     A
C890   O917    1.294   .     A
C891   O920    1.309   .     A
C891   C893    1.472   .     S
C891   O919    1.289   .     A
C892   H905    1.082   .     S
C894   C895    1.400   .     A
C894   H907    1.084   .     S
C895   C338    1.404   1_556 S
C895   C369    1.486   1_556 S
C896   H908    1.078   .     S
Cu897  N911    2.021   .     S
Cu897  O915    1.946   .     S
Cu897  Cu898   2.689   .     S
Cu897  O919    1.932   .     S
Cu897  O917    1.963   .     S
Cu897  O913    1.964   .     S
Cu898  O914    1.963   .     S
Cu898  N912    2.021   .     S
Cu898  O916    1.932   .     S
Cu898  O920    1.946   .     S
Cu898  O918    1.964   .     S
C923   O924    1.224   .     D
C923   O925    1.399   .     S
O925   H926    1.014   .     S
C927   O929    1.399   .     S
O928   C369    1.224   1_556 S
O929   H930    1.014   .     S
C931   C947    1.450   .     S
C931   O975    1.295   .     A
C931   O976    1.294   .     A
C932   C933    1.416   .     A
C932   C376    1.424   1_556 S
C932   C400    1.416   1_556 S
C933   C940    1.415   .     A
C933   C937    1.408   .     A
C934   C938    1.414   .     A
C935   C936    1.410   .     A
C935   C376    1.423   1_556 S
C935   C396    1.401   1_556 S
C936   C937    1.391   .     A
C936   C985    1.489   .     S
C937   H971    1.082   .     S
C938   C955    1.401   .     A
C938   H968    1.080   .     S
C939   C954    1.388   .     A
C939   C955    1.408   .     A
C939   Br983   1.911   .     S
C940   C956    1.399   .     A
C940   C942    1.471   .     S
C941   H972    1.083   .     S
C941   C947    1.402   .     A
C941   C571    1.383   1_565 S
C942   O978    1.295   .     A
C942   O977    1.302   .     A
C943   C944    1.401   .     A
C943   H961    1.083   .     S
C944   C952    1.450   .     S
C944   C945    1.401   .     A
C945   H962    1.083   .     S
C946   H963    1.083   .     S
C946   C947    1.401   .     A
C946   C573    1.383   1_565 S
C948   N974    1.368   .     A
C948   H964    1.082   .     S
C948   C1011   1.421   .     S
C949   N973    1.370   .     A
C949   H965    1.082   .     S
C949   C1072   1.421   1_455 S
C950   H966    1.082   .     S
C950   N973    1.352   .     A
C950   C1075   1.408   1_455 S
C951   N974    1.382   .     A
C951   Br984   1.887   .     S
C951   C1012   1.408   .     S
C952   O980    1.296   .     A
C952   O979    1.294   .     A
C953   O982    1.309   .     A
C953   C955    1.472   .     S
C953   O981    1.289   .     A
C954   H967    1.082   .     S
C956   C957    1.400   .     A
C956   H969    1.084   .     S
C957   C400    1.404   1_556 S
C957   C431    1.486   1_556 S
C958   H970    1.078   .     S
Cu959  N973    2.021   .     S
Cu959  O977    1.946   .     S
Cu959  Cu960   2.689   .     S
Cu959  O981    1.932   .     S
Cu959  O979    1.963   .     S
Cu959  O975    1.964   .     S
Cu960  O976    1.963   .     S
Cu960  N974    2.021   .     S
Cu960  O978    1.932   .     S
Cu960  O982    1.946   .     S
Cu960  O980    1.964   .     S
C985   O986    1.224   .     D
C985   O987    1.399   .     S
O987   H988    1.014   .     S
C989   O991    1.399   .     S
O990   C431    1.224   1_556 S
O991   H992    1.014   .     S
C993   C1009   1.450   .     S
C993   O1037   1.295   .     A
C993   O1038   1.294   .     A
C994   C995    1.416   .     A
C994   C438    1.424   1_556 S
C994   C462    1.416   1_556 S
C995   C1002   1.415   .     A
C995   C999    1.408   .     A
C996   C1000   1.414   .     A
C997   C998    1.410   .     A
C997   C438    1.423   1_556 S
C997   C458    1.401   1_556 S
C998   C999    1.391   .     A
C998   C1047   1.489   .     S
C999   H1033   1.082   .     S
C1000  C1017   1.401   .     A
C1000  H1030   1.080   .     S
C1001  C1016   1.388   .     A
C1001  C1017   1.408   .     A
C1001  Br1045  1.911   .     S
C1002  C1018   1.399   .     A
C1002  C1004   1.471   .     S
C1003  H1034   1.083   .     S
C1003  C1009   1.402   .     A
C1003  C633    1.383   1_565 S
C1004  O1040   1.295   .     A
C1004  O1039   1.302   .     A
C1005  C1006   1.401   .     A
C1005  H1023   1.083   .     S
C1006  C1014   1.450   .     S
C1006  C1007   1.401   .     A
C1007  H1024   1.083   .     S
C1008  H1025   1.083   .     S
C1008  C1009   1.401   .     A
C1008  C635    1.383   1_565 S
C1010  N1036   1.368   .     A
C1010  H1026   1.082   .     S
C1010  C1073   1.421   .     S
C1011  N1035   1.370   .     A
C1011  H1027   1.082   .     S
C1012  H1028   1.082   .     S
C1012  N1035   1.352   .     A
C1013  N1036   1.382   .     A
C1013  Br1046  1.887   .     S
C1013  C1074   1.408   .     S
C1014  O1042   1.296   .     A
C1014  O1041   1.294   .     A
C1015  O1044   1.309   .     A
C1015  C1017   1.472   .     S
C1015  O1043   1.289   .     A
C1016  H1029   1.082   .     S
C1018  C1019   1.400   .     A
C1018  H1031   1.084   .     S
C1019  C462    1.404   1_556 S
C1019  C493    1.486   1_556 S
C1020  H1032   1.078   .     S
Cu1021 N1035   2.021   .     S
Cu1021 O1039   1.946   .     S
Cu1021 Cu1022  2.689   .     S
Cu1021 O1043   1.932   .     S
Cu1021 O1041   1.963   .     S
Cu1021 O1037   1.964   .     S
Cu1022 O1038   1.963   .     S
Cu1022 N1036   2.021   .     S
Cu1022 O1040   1.932   .     S
Cu1022 O1044   1.946   .     S
Cu1022 O1042   1.964   .     S
C1047  O1048   1.224   .     D
C1047  O1049   1.399   .     S
O1049  H1050   1.014   .     S
C1051  O1053   1.399   .     S
O1052  C493    1.224   1_556 S
O1053  H1054   1.014   .     S
C1055  C1071   1.450   .     S
C1055  O1099   1.295   .     A
C1055  O1100   1.294   .     A
C1056  C1057   1.416   .     A
C1056  C500    1.424   1_556 S
C1056  C524    1.416   1_556 S
C1057  C1064   1.415   .     A
C1057  C1061   1.408   .     A
C1058  C1062   1.414   .     A
C1059  C1060   1.410   .     A
C1059  C500    1.423   1_556 S
C1059  C520    1.401   1_556 S
C1060  C1061   1.391   .     A
C1060  C1109   1.489   .     S
C1061  H1095   1.082   .     S
C1062  C1079   1.401   .     A
C1062  H1092   1.080   .     S
C1063  C1078   1.388   .     A
C1063  C1079   1.408   .     A
C1063  Br1107  1.911   .     S
C1064  C1080   1.399   .     A
C1064  C1066   1.471   .     S
C1065  H1096   1.083   .     S
C1065  C1071   1.402   .     A
C1065  C695    1.383   1_565 S
C1066  O1102   1.295   .     A
C1066  O1101   1.302   .     A
C1067  C1068   1.401   .     A
C1067  H1085   1.083   .     S
C1068  C1076   1.450   .     S
C1068  C1069   1.401   .     A
C1069  H1086   1.083   .     S
C1070  H1087   1.083   .     S
C1070  C1071   1.401   .     A
C1070  C697    1.383   1_565 S
C1072  N1098   1.368   .     A
C1072  H1088   1.082   .     S
C1072  C949    1.421   1_655 S
C1073  N1097   1.370   .     A
C1073  H1089   1.082   .     S
C1074  H1090   1.082   .     S
C1074  N1097   1.352   .     A
C1075  N1098   1.382   .     A
C1075  Br1108  1.887   .     S
C1075  C950    1.408   1_655 S
C1076  O1104   1.296   .     A
C1076  O1103   1.294   .     A
C1077  O1106   1.309   .     A
C1077  C1079   1.472   .     S
C1077  O1105   1.289   .     A
C1078  H1091   1.082   .     S
C1080  C1081   1.400   .     A
C1080  H1093   1.084   .     S
C1081  C524    1.404   1_556 S
C1081  C555    1.486   1_556 S
C1082  H1094   1.078   .     S
Cu1083 N1097   2.021   .     S
Cu1083 O1101   1.946   .     S
Cu1083 Cu1084  2.689   .     S
Cu1083 O1105   1.932   .     S
Cu1083 O1103   1.963   .     S
Cu1083 O1099   1.964   .     S
Cu1084 O1100   1.963   .     S
Cu1084 N1098   2.021   .     S
Cu1084 O1102   1.932   .     S
Cu1084 O1106   1.946   .     S
Cu1084 O1104   1.964   .     S
C1109  O1110   1.224   .     D
C1109  O1111   1.399   .     S
O1111  H1112   1.014   .     S
C1113  O1115   1.399   .     S
O1114  C555    1.224   1_556 S
O1115  H1116   1.014   .     S
