data_str_m2_o2_o10_pcu_sym.248
_audit_creation_date              2020-01-03
_audit_creation_method            'Materials Studio'
_symmetry_space_group_name_H-M    'P1'
_symmetry_Int_Tables_number       1
_symmetry_cell_setting            triclinic
loop_
_symmetry_equiv_pos_as_xyz
  x,y,z
_cell_length_a                    26.4038
_cell_length_b                    30.2546
_cell_length_c                    27.8436
_cell_angle_alpha                 89.8459
_cell_angle_beta                  97.6516
_cell_angle_gamma                 90.7105
loop_
_atom_site_label
_atom_site_type_symbol
_atom_site_fract_x
_atom_site_fract_y
_atom_site_fract_z
_atom_site_U_iso_or_equiv
_atom_site_adp_type
_atom_site_occupancy
C1     C     0.16661   0.16496   0.25005   0.00000  Uiso   1.00
C2     C     0.16662   0.33505   0.24994   0.00000  Uiso   1.00
C3     C     0.17902   0.28911   0.05527   0.00000  Uiso   1.00
C4     C     0.12393   0.23413   0.44087   0.00000  Uiso   1.00
C5     C     0.18145   0.28716   0.10614   0.00000  Uiso   1.00
C6     C     0.12609   0.23239   0.39039   0.00000  Uiso   1.00
C7     C     0.15160   0.21329   0.10209   0.00000  Uiso   1.00
C8     C     0.20766   0.26648   0.40085   0.00000  Uiso   1.00
C9     C     0.15376   0.21232   0.05186   0.00000  Uiso   1.00
C10    C     0.20942   0.26441   0.45151   0.00000  Uiso   1.00
C11    C     0.16681   0.25055   0.02708   0.00000  Uiso   1.00
C12    C     0.16651   0.24995   0.47259   0.00000  Uiso   1.00
C13    C     0.06816   0.24972   0.23780   0.00000  Uiso   1.00
C14    C     0.26516   0.25060   0.26217   0.00000  Uiso   1.00
C15    C     0.01329   0.24513   0.23156   0.00000  Uiso   1.00
C16    C     0.31997   0.25570   0.26825   0.00000  Uiso   1.00
C17    C     0.14406   0.04712   0.28604   0.00000  Uiso   1.00
C18    C     0.14432   0.45245   0.20823   0.00000  Uiso   1.00
C19    C     0.14461   0.09312   0.28619   0.00000  Uiso   1.00
C20    C     0.14483   0.40647   0.20819   0.00000  Uiso   1.00
C21    C     0.16632   0.11660   0.25015   0.00000  Uiso   1.00
C22    C     0.16629   0.38341   0.24979   0.00000  Uiso   1.00
C23    C     0.18757   0.09339   0.21411   0.00000  Uiso   1.00
C24    C     0.18718   0.40704   0.29134   0.00000  Uiso   1.00
C25    C     0.18700   0.04746   0.21419   0.00000  Uiso   1.00
C26    C     0.18664   0.45297   0.29114   0.00000  Uiso   1.00
C27    C     0.16524   0.02417   0.24998   0.00000  Uiso   1.00
C28    C     0.16522   0.47583   0.24974   0.00000  Uiso   1.00
Cu29   Cu    0.16667   0.25000   0.29821   0.00000  Uiso   1.00
Cu30   Cu    0.16667   0.25001   0.20178   0.00000  Uiso   1.00
H31    H     0.20411   0.02996   0.18662   0.00000  Uiso   1.00
H32    H     0.20348   0.47080   0.32314   0.00000  Uiso   1.00
N33    N     0.16667   0.25001   0.12934   0.00000  Uiso   1.00
N34    N     0.16667   0.24999   0.37065   0.00000  Uiso   1.00
O35    O     0.16667   0.18573   0.29071   0.00000  Uiso   1.00
O36    O     0.16666   0.31428   0.20928   0.00000  Uiso   1.00
O37    O     0.16667   0.18573   0.20928   0.00000  Uiso   1.00
O38    O     0.16666   0.31427   0.29072   0.00000  Uiso   1.00
O39    O     0.09161   0.25000   0.28132   0.00000  Uiso   1.00
O40    O     0.24172   0.25001   0.21868   0.00000  Uiso   1.00
O41    O     0.09161   0.25000   0.19988   0.00000  Uiso   1.00
O42    O     0.24172   0.25000   0.30011   0.00000  Uiso   1.00
N43    N     0.32219   0.22630   0.18681   0.00000  Uiso   1.00
H44    H     0.00517   0.19555   0.18207   0.00000  Uiso   1.00
H45    H     0.32965   0.24692   0.15831   0.00000  Uiso   1.00
N46    N     0.01089   0.27546   0.31255   0.00000  Uiso   1.00
H47    H     0.32812   0.30649   0.31609   0.00000  Uiso   1.00
H48    H     0.00270   0.25584   0.34157   0.00000  Uiso   1.00
F49    F     0.12181   0.02497   0.32038   0.00000  Uiso   1.00
F50    F     0.12235   0.47416   0.16818   0.00000  Uiso   1.00
F51    F     0.12274   0.11456   0.32083   0.00000  Uiso   1.00
F52    F     0.12307   0.38462   0.16797   0.00000  Uiso   1.00
F53    F     0.21003   0.11497   0.17954   0.00000  Uiso   1.00
F54    F     0.20917   0.38590   0.33176   0.00000  Uiso   1.00
N55    N     0.18584   0.33144   0.03354   0.00000  Uiso   1.00
H56    H     0.22107   0.33287   0.02063   0.00000  Uiso   1.00
H57    H     0.15666   0.33612   0.00477   0.00000  Uiso   1.00
N58    N     0.07822   0.22035   0.45951   0.00000  Uiso   1.00
H59    H     0.07023   0.18755   0.44912   0.00000  Uiso   1.00
H60    H     0.04819   0.23975   0.44321   0.00000  Uiso   1.00
F61    F     0.19928   0.32334   0.13173   0.00000  Uiso   1.00
F62    F     0.08742   0.21208   0.36159   0.00000  Uiso   1.00
F63    F     0.13356   0.17684   0.12271   0.00000  Uiso   1.00
F64    F     0.24792   0.28491   0.38248   0.00000  Uiso   1.00
F65    F     0.14298   0.17374   0.02764   0.00000  Uiso   1.00
F66    F     0.25387   0.27501   0.47963   0.00000  Uiso   1.00
C67    C     0.49995   0.16496   0.25005   0.00000  Uiso   1.00
C68    C     0.49996   0.33505   0.24994   0.00000  Uiso   1.00
C69    C     0.51235   0.28911   0.05527   0.00000  Uiso   1.00
C70    C     0.45727   0.23413   0.44087   0.00000  Uiso   1.00
C71    C     0.51478   0.28716   0.10614   0.00000  Uiso   1.00
C72    C     0.45942   0.23239   0.39039   0.00000  Uiso   1.00
C73    C     0.48493   0.21329   0.10209   0.00000  Uiso   1.00
C74    C     0.54099   0.26648   0.40085   0.00000  Uiso   1.00
C75    C     0.48710   0.21232   0.05186   0.00000  Uiso   1.00
C76    C     0.54275   0.26441   0.45151   0.00000  Uiso   1.00
C77    C     0.50015   0.25055   0.02708   0.00000  Uiso   1.00
C78    C     0.49984   0.24995   0.47259   0.00000  Uiso   1.00
C79    C     0.40149   0.24972   0.23780   0.00000  Uiso   1.00
C80    C     0.59850   0.25060   0.26217   0.00000  Uiso   1.00
C81    C     0.34663   0.24513   0.23156   0.00000  Uiso   1.00
C82    C     0.65331   0.25570   0.26825   0.00000  Uiso   1.00
C83    C     0.47739   0.04712   0.28604   0.00000  Uiso   1.00
C84    C     0.47765   0.45245   0.20823   0.00000  Uiso   1.00
C85    C     0.47794   0.09312   0.28619   0.00000  Uiso   1.00
C86    C     0.47817   0.40647   0.20819   0.00000  Uiso   1.00
C87    C     0.49965   0.11660   0.25015   0.00000  Uiso   1.00
C88    C     0.49963   0.38341   0.24979   0.00000  Uiso   1.00
C89    C     0.52090   0.09339   0.21411   0.00000  Uiso   1.00
C90    C     0.52051   0.40704   0.29134   0.00000  Uiso   1.00
C91    C     0.52033   0.04746   0.21419   0.00000  Uiso   1.00
C92    C     0.51997   0.45297   0.29114   0.00000  Uiso   1.00
C93    C     0.49857   0.02417   0.24998   0.00000  Uiso   1.00
C94    C     0.49856   0.47583   0.24974   0.00000  Uiso   1.00
Cu95   Cu    0.50000   0.25000   0.29821   0.00000  Uiso   1.00
Cu96   Cu    0.50000   0.25001   0.20178   0.00000  Uiso   1.00
H97    H     0.53744   0.02996   0.18662   0.00000  Uiso   1.00
H98    H     0.53682   0.47080   0.32314   0.00000  Uiso   1.00
N99    N     0.50000   0.25001   0.12934   0.00000  Uiso   1.00
N100   N     0.50000   0.24999   0.37065   0.00000  Uiso   1.00
O101   O     0.50000   0.18573   0.29071   0.00000  Uiso   1.00
O102   O     0.50000   0.31428   0.20928   0.00000  Uiso   1.00
O103   O     0.50000   0.18573   0.20928   0.00000  Uiso   1.00
O104   O     0.50000   0.31427   0.29072   0.00000  Uiso   1.00
O105   O     0.42495   0.25000   0.28132   0.00000  Uiso   1.00
O106   O     0.57505   0.25001   0.21868   0.00000  Uiso   1.00
O107   O     0.42495   0.25000   0.19988   0.00000  Uiso   1.00
O108   O     0.57505   0.25000   0.30011   0.00000  Uiso   1.00
N109   N     0.65553   0.22630   0.18681   0.00000  Uiso   1.00
H110   H     0.33851   0.19555   0.18207   0.00000  Uiso   1.00
H111   H     0.66298   0.24692   0.15831   0.00000  Uiso   1.00
N112   N     0.34422   0.27546   0.31255   0.00000  Uiso   1.00
H113   H     0.66145   0.30649   0.31609   0.00000  Uiso   1.00
H114   H     0.33603   0.25584   0.34157   0.00000  Uiso   1.00
F115   F     0.45515   0.02497   0.32038   0.00000  Uiso   1.00
F116   F     0.45569   0.47416   0.16818   0.00000  Uiso   1.00
F117   F     0.45607   0.11456   0.32083   0.00000  Uiso   1.00
F118   F     0.45640   0.38462   0.16797   0.00000  Uiso   1.00
F119   F     0.54336   0.11497   0.17954   0.00000  Uiso   1.00
F120   F     0.54250   0.38590   0.33176   0.00000  Uiso   1.00
N121   N     0.51917   0.33144   0.03354   0.00000  Uiso   1.00
H122   H     0.55441   0.33287   0.02063   0.00000  Uiso   1.00
H123   H     0.48999   0.33612   0.00477   0.00000  Uiso   1.00
N124   N     0.41155   0.22035   0.45951   0.00000  Uiso   1.00
H125   H     0.40357   0.18755   0.44912   0.00000  Uiso   1.00
H126   H     0.38152   0.23975   0.44321   0.00000  Uiso   1.00
F127   F     0.53261   0.32334   0.13173   0.00000  Uiso   1.00
F128   F     0.42076   0.21208   0.36159   0.00000  Uiso   1.00
F129   F     0.46689   0.17684   0.12271   0.00000  Uiso   1.00
F130   F     0.58125   0.28491   0.38248   0.00000  Uiso   1.00
F131   F     0.47631   0.17374   0.02764   0.00000  Uiso   1.00
F132   F     0.58721   0.27501   0.47963   0.00000  Uiso   1.00
C133   C     0.83328   0.16496   0.25005   0.00000  Uiso   1.00
C134   C     0.83329   0.33505   0.24994   0.00000  Uiso   1.00
C135   C     0.84569   0.28911   0.05527   0.00000  Uiso   1.00
C136   C     0.79060   0.23413   0.44087   0.00000  Uiso   1.00
C137   C     0.84811   0.28716   0.10614   0.00000  Uiso   1.00
C138   C     0.79276   0.23239   0.39039   0.00000  Uiso   1.00
C139   C     0.81827   0.21329   0.10209   0.00000  Uiso   1.00
C140   C     0.87433   0.26648   0.40085   0.00000  Uiso   1.00
C141   C     0.82043   0.21232   0.05186   0.00000  Uiso   1.00
C142   C     0.87608   0.26441   0.45151   0.00000  Uiso   1.00
C143   C     0.83348   0.25055   0.02708   0.00000  Uiso   1.00
C144   C     0.83318   0.24995   0.47259   0.00000  Uiso   1.00
C145   C     0.73482   0.24972   0.23780   0.00000  Uiso   1.00
C146   C     0.93183   0.25060   0.26217   0.00000  Uiso   1.00
C147   C     0.67996   0.24513   0.23156   0.00000  Uiso   1.00
C148   C     0.98664   0.25570   0.26825   0.00000  Uiso   1.00
C149   C     0.81072   0.04712   0.28604   0.00000  Uiso   1.00
C150   C     0.81099   0.45245   0.20823   0.00000  Uiso   1.00
C151   C     0.81127   0.09312   0.28619   0.00000  Uiso   1.00
C152   C     0.81150   0.40647   0.20819   0.00000  Uiso   1.00
C153   C     0.83299   0.11660   0.25015   0.00000  Uiso   1.00
C154   C     0.83296   0.38341   0.24979   0.00000  Uiso   1.00
C155   C     0.85423   0.09339   0.21411   0.00000  Uiso   1.00
C156   C     0.85385   0.40704   0.29134   0.00000  Uiso   1.00
C157   C     0.85367   0.04746   0.21419   0.00000  Uiso   1.00
C158   C     0.85331   0.45297   0.29114   0.00000  Uiso   1.00
C159   C     0.83190   0.02417   0.24998   0.00000  Uiso   1.00
C160   C     0.83189   0.47583   0.24974   0.00000  Uiso   1.00
Cu161  Cu    0.83333   0.25000   0.29821   0.00000  Uiso   1.00
Cu162  Cu    0.83333   0.25001   0.20178   0.00000  Uiso   1.00
H163   H     0.87078   0.02996   0.18662   0.00000  Uiso   1.00
H164   H     0.87015   0.47080   0.32314   0.00000  Uiso   1.00
N165   N     0.83333   0.25001   0.12934   0.00000  Uiso   1.00
N166   N     0.83333   0.24999   0.37065   0.00000  Uiso   1.00
O167   O     0.83334   0.18573   0.29071   0.00000  Uiso   1.00
O168   O     0.83333   0.31428   0.20928   0.00000  Uiso   1.00
O169   O     0.83334   0.18573   0.20928   0.00000  Uiso   1.00
O170   O     0.83333   0.31427   0.29072   0.00000  Uiso   1.00
O171   O     0.75828   0.25000   0.28132   0.00000  Uiso   1.00
O172   O     0.90839   0.25001   0.21868   0.00000  Uiso   1.00
O173   O     0.75828   0.25000   0.19988   0.00000  Uiso   1.00
O174   O     0.90839   0.25000   0.30011   0.00000  Uiso   1.00
N175   N     0.98886   0.22630   0.18681   0.00000  Uiso   1.00
H176   H     0.67184   0.19555   0.18207   0.00000  Uiso   1.00
H177   H     0.99631   0.24692   0.15831   0.00000  Uiso   1.00
N178   N     0.67755   0.27546   0.31255   0.00000  Uiso   1.00
H179   H     0.99478   0.30649   0.31609   0.00000  Uiso   1.00
H180   H     0.66936   0.25584   0.34157   0.00000  Uiso   1.00
F181   F     0.78848   0.02497   0.32038   0.00000  Uiso   1.00
F182   F     0.78902   0.47416   0.16818   0.00000  Uiso   1.00
F183   F     0.78941   0.11456   0.32083   0.00000  Uiso   1.00
F184   F     0.78974   0.38462   0.16797   0.00000  Uiso   1.00
F185   F     0.87670   0.11497   0.17954   0.00000  Uiso   1.00
F186   F     0.87583   0.38590   0.33176   0.00000  Uiso   1.00
N187   N     0.85250   0.33144   0.03354   0.00000  Uiso   1.00
H188   H     0.88774   0.33287   0.02063   0.00000  Uiso   1.00
H189   H     0.82332   0.33612   0.00477   0.00000  Uiso   1.00
N190   N     0.74489   0.22035   0.45951   0.00000  Uiso   1.00
H191   H     0.73690   0.18755   0.44912   0.00000  Uiso   1.00
H192   H     0.71485   0.23975   0.44321   0.00000  Uiso   1.00
F193   F     0.86594   0.32334   0.13173   0.00000  Uiso   1.00
F194   F     0.75409   0.21208   0.36159   0.00000  Uiso   1.00
F195   F     0.80023   0.17684   0.12271   0.00000  Uiso   1.00
F196   F     0.91458   0.28491   0.38248   0.00000  Uiso   1.00
F197   F     0.80964   0.17374   0.02764   0.00000  Uiso   1.00
F198   F     0.92054   0.27501   0.47963   0.00000  Uiso   1.00
C199   C     0.16661   0.66496   0.25005   0.00000  Uiso   1.00
C200   C     0.16662   0.83505   0.24994   0.00000  Uiso   1.00
C201   C     0.17902   0.78911   0.05527   0.00000  Uiso   1.00
C202   C     0.12393   0.73413   0.44087   0.00000  Uiso   1.00
C203   C     0.18145   0.78716   0.10614   0.00000  Uiso   1.00
C204   C     0.12609   0.73239   0.39039   0.00000  Uiso   1.00
C205   C     0.15160   0.71329   0.10209   0.00000  Uiso   1.00
C206   C     0.20766   0.76648   0.40085   0.00000  Uiso   1.00
C207   C     0.15376   0.71232   0.05186   0.00000  Uiso   1.00
C208   C     0.20942   0.76441   0.45151   0.00000  Uiso   1.00
C209   C     0.16681   0.75055   0.02708   0.00000  Uiso   1.00
C210   C     0.16651   0.74995   0.47259   0.00000  Uiso   1.00
C211   C     0.06816   0.74972   0.23780   0.00000  Uiso   1.00
C212   C     0.26516   0.75060   0.26217   0.00000  Uiso   1.00
C213   C     0.01329   0.74513   0.23156   0.00000  Uiso   1.00
C214   C     0.31997   0.75570   0.26825   0.00000  Uiso   1.00
C215   C     0.14406   0.54712   0.28604   0.00000  Uiso   1.00
C216   C     0.14432   0.95245   0.20823   0.00000  Uiso   1.00
C217   C     0.14461   0.59312   0.28619   0.00000  Uiso   1.00
C218   C     0.14483   0.90647   0.20819   0.00000  Uiso   1.00
C219   C     0.16632   0.61660   0.25015   0.00000  Uiso   1.00
C220   C     0.16629   0.88341   0.24979   0.00000  Uiso   1.00
C221   C     0.18757   0.59339   0.21411   0.00000  Uiso   1.00
C222   C     0.18718   0.90704   0.29134   0.00000  Uiso   1.00
C223   C     0.18700   0.54746   0.21419   0.00000  Uiso   1.00
C224   C     0.18664   0.95297   0.29114   0.00000  Uiso   1.00
C225   C     0.16524   0.52417   0.24998   0.00000  Uiso   1.00
C226   C     0.16522   0.97583   0.24974   0.00000  Uiso   1.00
Cu227  Cu    0.16667   0.75000   0.29821   0.00000  Uiso   1.00
Cu228  Cu    0.16667   0.75001   0.20178   0.00000  Uiso   1.00
H229   H     0.20411   0.52996   0.18662   0.00000  Uiso   1.00
H230   H     0.20348   0.97080   0.32314   0.00000  Uiso   1.00
N231   N     0.16667   0.75001   0.12934   0.00000  Uiso   1.00
N232   N     0.16667   0.74999   0.37065   0.00000  Uiso   1.00
O233   O     0.16667   0.68573   0.29071   0.00000  Uiso   1.00
O234   O     0.16666   0.81428   0.20928   0.00000  Uiso   1.00
O235   O     0.16667   0.68573   0.20928   0.00000  Uiso   1.00
O236   O     0.16666   0.81427   0.29072   0.00000  Uiso   1.00
O237   O     0.09161   0.75000   0.28132   0.00000  Uiso   1.00
O238   O     0.24172   0.75001   0.21868   0.00000  Uiso   1.00
O239   O     0.09161   0.75000   0.19988   0.00000  Uiso   1.00
O240   O     0.24172   0.75000   0.30011   0.00000  Uiso   1.00
N241   N     0.32219   0.72630   0.18681   0.00000  Uiso   1.00
H242   H     0.00517   0.69555   0.18207   0.00000  Uiso   1.00
H243   H     0.32965   0.74692   0.15831   0.00000  Uiso   1.00
N244   N     0.01089   0.77546   0.31255   0.00000  Uiso   1.00
H245   H     0.32812   0.80649   0.31609   0.00000  Uiso   1.00
H246   H     0.00270   0.75584   0.34157   0.00000  Uiso   1.00
F247   F     0.12181   0.52497   0.32038   0.00000  Uiso   1.00
F248   F     0.12235   0.97416   0.16818   0.00000  Uiso   1.00
F249   F     0.12274   0.61456   0.32083   0.00000  Uiso   1.00
F250   F     0.12307   0.88462   0.16797   0.00000  Uiso   1.00
F251   F     0.21003   0.61497   0.17954   0.00000  Uiso   1.00
F252   F     0.20917   0.88590   0.33176   0.00000  Uiso   1.00
N253   N     0.18584   0.83144   0.03354   0.00000  Uiso   1.00
H254   H     0.22107   0.83287   0.02063   0.00000  Uiso   1.00
H255   H     0.15666   0.83612   0.00477   0.00000  Uiso   1.00
N256   N     0.07822   0.72035   0.45951   0.00000  Uiso   1.00
H257   H     0.07023   0.68755   0.44912   0.00000  Uiso   1.00
H258   H     0.04819   0.73975   0.44321   0.00000  Uiso   1.00
F259   F     0.19928   0.82334   0.13173   0.00000  Uiso   1.00
F260   F     0.08742   0.71208   0.36159   0.00000  Uiso   1.00
F261   F     0.13356   0.67684   0.12271   0.00000  Uiso   1.00
F262   F     0.24792   0.78491   0.38248   0.00000  Uiso   1.00
F263   F     0.14298   0.67374   0.02764   0.00000  Uiso   1.00
F264   F     0.25387   0.77501   0.47963   0.00000  Uiso   1.00
C265   C     0.49995   0.66496   0.25005   0.00000  Uiso   1.00
C266   C     0.49996   0.83505   0.24994   0.00000  Uiso   1.00
C267   C     0.51235   0.78911   0.05527   0.00000  Uiso   1.00
C268   C     0.45727   0.73413   0.44087   0.00000  Uiso   1.00
C269   C     0.51478   0.78716   0.10614   0.00000  Uiso   1.00
C270   C     0.45942   0.73239   0.39039   0.00000  Uiso   1.00
C271   C     0.48493   0.71329   0.10209   0.00000  Uiso   1.00
C272   C     0.54099   0.76648   0.40085   0.00000  Uiso   1.00
C273   C     0.48710   0.71232   0.05186   0.00000  Uiso   1.00
C274   C     0.54275   0.76441   0.45151   0.00000  Uiso   1.00
C275   C     0.50015   0.75055   0.02708   0.00000  Uiso   1.00
C276   C     0.49984   0.74995   0.47259   0.00000  Uiso   1.00
C277   C     0.40149   0.74972   0.23780   0.00000  Uiso   1.00
C278   C     0.59850   0.75060   0.26217   0.00000  Uiso   1.00
C279   C     0.34663   0.74513   0.23156   0.00000  Uiso   1.00
C280   C     0.65331   0.75570   0.26825   0.00000  Uiso   1.00
C281   C     0.47739   0.54712   0.28604   0.00000  Uiso   1.00
C282   C     0.47765   0.95245   0.20823   0.00000  Uiso   1.00
C283   C     0.47794   0.59312   0.28619   0.00000  Uiso   1.00
C284   C     0.47817   0.90647   0.20819   0.00000  Uiso   1.00
C285   C     0.49965   0.61660   0.25015   0.00000  Uiso   1.00
C286   C     0.49963   0.88341   0.24979   0.00000  Uiso   1.00
C287   C     0.52090   0.59339   0.21411   0.00000  Uiso   1.00
C288   C     0.52051   0.90704   0.29134   0.00000  Uiso   1.00
C289   C     0.52033   0.54746   0.21419   0.00000  Uiso   1.00
C290   C     0.51997   0.95297   0.29114   0.00000  Uiso   1.00
C291   C     0.49857   0.52417   0.24998   0.00000  Uiso   1.00
C292   C     0.49856   0.97583   0.24974   0.00000  Uiso   1.00
Cu293  Cu    0.50000   0.75000   0.29821   0.00000  Uiso   1.00
Cu294  Cu    0.50000   0.75001   0.20178   0.00000  Uiso   1.00
H295   H     0.53744   0.52996   0.18662   0.00000  Uiso   1.00
H296   H     0.53682   0.97080   0.32314   0.00000  Uiso   1.00
N297   N     0.50000   0.75001   0.12934   0.00000  Uiso   1.00
N298   N     0.50000   0.74999   0.37065   0.00000  Uiso   1.00
O299   O     0.50000   0.68573   0.29071   0.00000  Uiso   1.00
O300   O     0.50000   0.81428   0.20928   0.00000  Uiso   1.00
O301   O     0.50000   0.68573   0.20928   0.00000  Uiso   1.00
O302   O     0.50000   0.81427   0.29072   0.00000  Uiso   1.00
O303   O     0.42495   0.75000   0.28132   0.00000  Uiso   1.00
O304   O     0.57505   0.75001   0.21868   0.00000  Uiso   1.00
O305   O     0.42495   0.75000   0.19988   0.00000  Uiso   1.00
O306   O     0.57505   0.75000   0.30011   0.00000  Uiso   1.00
N307   N     0.65553   0.72630   0.18681   0.00000  Uiso   1.00
H308   H     0.33851   0.69555   0.18207   0.00000  Uiso   1.00
H309   H     0.66298   0.74692   0.15831   0.00000  Uiso   1.00
N310   N     0.34422   0.77546   0.31255   0.00000  Uiso   1.00
H311   H     0.66145   0.80649   0.31609   0.00000  Uiso   1.00
H312   H     0.33603   0.75584   0.34157   0.00000  Uiso   1.00
F313   F     0.45515   0.52497   0.32038   0.00000  Uiso   1.00
F314   F     0.45569   0.97416   0.16818   0.00000  Uiso   1.00
F315   F     0.45607   0.61456   0.32083   0.00000  Uiso   1.00
F316   F     0.45640   0.88462   0.16797   0.00000  Uiso   1.00
F317   F     0.54336   0.61497   0.17954   0.00000  Uiso   1.00
F318   F     0.54250   0.88590   0.33176   0.00000  Uiso   1.00
N319   N     0.51917   0.83144   0.03354   0.00000  Uiso   1.00
H320   H     0.55441   0.83287   0.02063   0.00000  Uiso   1.00
H321   H     0.48999   0.83612   0.00477   0.00000  Uiso   1.00
N322   N     0.41155   0.72035   0.45951   0.00000  Uiso   1.00
H323   H     0.40357   0.68755   0.44912   0.00000  Uiso   1.00
H324   H     0.38152   0.73975   0.44321   0.00000  Uiso   1.00
F325   F     0.53261   0.82334   0.13173   0.00000  Uiso   1.00
F326   F     0.42076   0.71208   0.36159   0.00000  Uiso   1.00
F327   F     0.46689   0.67684   0.12271   0.00000  Uiso   1.00
F328   F     0.58125   0.78491   0.38248   0.00000  Uiso   1.00
F329   F     0.47631   0.67374   0.02764   0.00000  Uiso   1.00
F330   F     0.58721   0.77501   0.47963   0.00000  Uiso   1.00
C331   C     0.83328   0.66496   0.25005   0.00000  Uiso   1.00
C332   C     0.83329   0.83505   0.24994   0.00000  Uiso   1.00
C333   C     0.84569   0.78911   0.05527   0.00000  Uiso   1.00
C334   C     0.79060   0.73413   0.44087   0.00000  Uiso   1.00
C335   C     0.84811   0.78716   0.10614   0.00000  Uiso   1.00
C336   C     0.79276   0.73239   0.39039   0.00000  Uiso   1.00
C337   C     0.81827   0.71329   0.10209   0.00000  Uiso   1.00
C338   C     0.87433   0.76648   0.40085   0.00000  Uiso   1.00
C339   C     0.82043   0.71232   0.05186   0.00000  Uiso   1.00
C340   C     0.87608   0.76441   0.45151   0.00000  Uiso   1.00
C341   C     0.83348   0.75055   0.02708   0.00000  Uiso   1.00
C342   C     0.83318   0.74995   0.47259   0.00000  Uiso   1.00
C343   C     0.73482   0.74972   0.23780   0.00000  Uiso   1.00
C344   C     0.93183   0.75060   0.26217   0.00000  Uiso   1.00
C345   C     0.67996   0.74513   0.23156   0.00000  Uiso   1.00
C346   C     0.98664   0.75570   0.26825   0.00000  Uiso   1.00
C347   C     0.81072   0.54712   0.28604   0.00000  Uiso   1.00
C348   C     0.81099   0.95245   0.20823   0.00000  Uiso   1.00
C349   C     0.81127   0.59312   0.28619   0.00000  Uiso   1.00
C350   C     0.81150   0.90647   0.20819   0.00000  Uiso   1.00
C351   C     0.83299   0.61660   0.25015   0.00000  Uiso   1.00
C352   C     0.83296   0.88341   0.24979   0.00000  Uiso   1.00
C353   C     0.85423   0.59339   0.21411   0.00000  Uiso   1.00
C354   C     0.85385   0.90704   0.29134   0.00000  Uiso   1.00
C355   C     0.85367   0.54746   0.21419   0.00000  Uiso   1.00
C356   C     0.85331   0.95297   0.29114   0.00000  Uiso   1.00
C357   C     0.83190   0.52417   0.24998   0.00000  Uiso   1.00
C358   C     0.83189   0.97583   0.24974   0.00000  Uiso   1.00
Cu359  Cu    0.83333   0.75000   0.29821   0.00000  Uiso   1.00
Cu360  Cu    0.83333   0.75001   0.20178   0.00000  Uiso   1.00
H361   H     0.87078   0.52996   0.18662   0.00000  Uiso   1.00
H362   H     0.87015   0.97080   0.32314   0.00000  Uiso   1.00
N363   N     0.83333   0.75001   0.12934   0.00000  Uiso   1.00
N364   N     0.83333   0.74999   0.37065   0.00000  Uiso   1.00
O365   O     0.83334   0.68573   0.29071   0.00000  Uiso   1.00
O366   O     0.83333   0.81428   0.20928   0.00000  Uiso   1.00
O367   O     0.83334   0.68573   0.20928   0.00000  Uiso   1.00
O368   O     0.83333   0.81427   0.29072   0.00000  Uiso   1.00
O369   O     0.75828   0.75000   0.28132   0.00000  Uiso   1.00
O370   O     0.90839   0.75001   0.21868   0.00000  Uiso   1.00
O371   O     0.75828   0.75000   0.19988   0.00000  Uiso   1.00
O372   O     0.90839   0.75000   0.30011   0.00000  Uiso   1.00
N373   N     0.98886   0.72630   0.18681   0.00000  Uiso   1.00
H374   H     0.67184   0.69555   0.18207   0.00000  Uiso   1.00
H375   H     0.99631   0.74692   0.15831   0.00000  Uiso   1.00
N376   N     0.67755   0.77546   0.31255   0.00000  Uiso   1.00
H377   H     0.99478   0.80649   0.31609   0.00000  Uiso   1.00
H378   H     0.66936   0.75584   0.34157   0.00000  Uiso   1.00
F379   F     0.78848   0.52497   0.32038   0.00000  Uiso   1.00
F380   F     0.78902   0.97416   0.16818   0.00000  Uiso   1.00
F381   F     0.78941   0.61456   0.32083   0.00000  Uiso   1.00
F382   F     0.78974   0.88462   0.16797   0.00000  Uiso   1.00
F383   F     0.87670   0.61497   0.17954   0.00000  Uiso   1.00
F384   F     0.87583   0.88590   0.33176   0.00000  Uiso   1.00
N385   N     0.85250   0.83144   0.03354   0.00000  Uiso   1.00
H386   H     0.88774   0.83287   0.02063   0.00000  Uiso   1.00
H387   H     0.82332   0.83612   0.00477   0.00000  Uiso   1.00
N388   N     0.74489   0.72035   0.45951   0.00000  Uiso   1.00
H389   H     0.73690   0.68755   0.44912   0.00000  Uiso   1.00
H390   H     0.71485   0.73975   0.44321   0.00000  Uiso   1.00
F391   F     0.86594   0.82334   0.13173   0.00000  Uiso   1.00
F392   F     0.75409   0.71208   0.36159   0.00000  Uiso   1.00
F393   F     0.80023   0.67684   0.12271   0.00000  Uiso   1.00
F394   F     0.91458   0.78491   0.38248   0.00000  Uiso   1.00
F395   F     0.80964   0.67374   0.02764   0.00000  Uiso   1.00
F396   F     0.92054   0.77501   0.47963   0.00000  Uiso   1.00
C397   C     0.16661   0.16496   0.75005   0.00000  Uiso   1.00
C398   C     0.16662   0.33505   0.74994   0.00000  Uiso   1.00
C399   C     0.17902   0.28911   0.55527   0.00000  Uiso   1.00
C400   C     0.12393   0.23413   0.94087   0.00000  Uiso   1.00
C401   C     0.18145   0.28716   0.60614   0.00000  Uiso   1.00
C402   C     0.12609   0.23239   0.89039   0.00000  Uiso   1.00
C403   C     0.15160   0.21329   0.60209   0.00000  Uiso   1.00
C404   C     0.20766   0.26648   0.90085   0.00000  Uiso   1.00
C405   C     0.15376   0.21232   0.55186   0.00000  Uiso   1.00
C406   C     0.20942   0.26441   0.95151   0.00000  Uiso   1.00
C407   C     0.16681   0.25055   0.52708   0.00000  Uiso   1.00
C408   C     0.16651   0.24995   0.97259   0.00000  Uiso   1.00
C409   C     0.06816   0.24972   0.73780   0.00000  Uiso   1.00
C410   C     0.26516   0.25060   0.76217   0.00000  Uiso   1.00
C411   C     0.01329   0.24513   0.73156   0.00000  Uiso   1.00
C412   C     0.31997   0.25570   0.76825   0.00000  Uiso   1.00
C413   C     0.14406   0.04712   0.78604   0.00000  Uiso   1.00
C414   C     0.14432   0.45245   0.70823   0.00000  Uiso   1.00
C415   C     0.14461   0.09312   0.78619   0.00000  Uiso   1.00
C416   C     0.14483   0.40647   0.70819   0.00000  Uiso   1.00
C417   C     0.16632   0.11660   0.75015   0.00000  Uiso   1.00
C418   C     0.16629   0.38341   0.74979   0.00000  Uiso   1.00
C419   C     0.18757   0.09339   0.71411   0.00000  Uiso   1.00
C420   C     0.18718   0.40704   0.79134   0.00000  Uiso   1.00
C421   C     0.18700   0.04746   0.71419   0.00000  Uiso   1.00
C422   C     0.18664   0.45297   0.79114   0.00000  Uiso   1.00
C423   C     0.16524   0.02417   0.74998   0.00000  Uiso   1.00
C424   C     0.16522   0.47583   0.74974   0.00000  Uiso   1.00
Cu425  Cu    0.16667   0.25000   0.79821   0.00000  Uiso   1.00
Cu426  Cu    0.16667   0.25001   0.70178   0.00000  Uiso   1.00
H427   H     0.20411   0.02996   0.68662   0.00000  Uiso   1.00
H428   H     0.20348   0.47080   0.82314   0.00000  Uiso   1.00
N429   N     0.16667   0.25001   0.62934   0.00000  Uiso   1.00
N430   N     0.16667   0.24999   0.87065   0.00000  Uiso   1.00
O431   O     0.16667   0.18573   0.79071   0.00000  Uiso   1.00
O432   O     0.16666   0.31428   0.70928   0.00000  Uiso   1.00
O433   O     0.16667   0.18573   0.70928   0.00000  Uiso   1.00
O434   O     0.16666   0.31427   0.79072   0.00000  Uiso   1.00
O435   O     0.09161   0.25000   0.78132   0.00000  Uiso   1.00
O436   O     0.24172   0.25001   0.71868   0.00000  Uiso   1.00
O437   O     0.09161   0.25000   0.69988   0.00000  Uiso   1.00
O438   O     0.24172   0.25000   0.80011   0.00000  Uiso   1.00
N439   N     0.32219   0.22630   0.68681   0.00000  Uiso   1.00
H440   H     0.00517   0.19555   0.68207   0.00000  Uiso   1.00
H441   H     0.32965   0.24692   0.65831   0.00000  Uiso   1.00
N442   N     0.01089   0.27546   0.81255   0.00000  Uiso   1.00
H443   H     0.32812   0.30649   0.81609   0.00000  Uiso   1.00
H444   H     0.00270   0.25584   0.84157   0.00000  Uiso   1.00
F445   F     0.12181   0.02497   0.82038   0.00000  Uiso   1.00
F446   F     0.12235   0.47416   0.66818   0.00000  Uiso   1.00
F447   F     0.12274   0.11456   0.82083   0.00000  Uiso   1.00
F448   F     0.12307   0.38462   0.66797   0.00000  Uiso   1.00
F449   F     0.21003   0.11497   0.67954   0.00000  Uiso   1.00
F450   F     0.20917   0.38590   0.83176   0.00000  Uiso   1.00
N451   N     0.18584   0.33144   0.53354   0.00000  Uiso   1.00
H452   H     0.22107   0.33287   0.52063   0.00000  Uiso   1.00
H453   H     0.15666   0.33612   0.50477   0.00000  Uiso   1.00
N454   N     0.07822   0.22035   0.95951   0.00000  Uiso   1.00
H455   H     0.07023   0.18755   0.94912   0.00000  Uiso   1.00
H456   H     0.04819   0.23975   0.94321   0.00000  Uiso   1.00
F457   F     0.19928   0.32334   0.63173   0.00000  Uiso   1.00
F458   F     0.08742   0.21208   0.86159   0.00000  Uiso   1.00
F459   F     0.13356   0.17684   0.62271   0.00000  Uiso   1.00
F460   F     0.24792   0.28491   0.88248   0.00000  Uiso   1.00
F461   F     0.14298   0.17374   0.52764   0.00000  Uiso   1.00
F462   F     0.25387   0.27501   0.97963   0.00000  Uiso   1.00
C463   C     0.49995   0.16496   0.75005   0.00000  Uiso   1.00
C464   C     0.49996   0.33505   0.74994   0.00000  Uiso   1.00
C465   C     0.51235   0.28911   0.55527   0.00000  Uiso   1.00
C466   C     0.45727   0.23413   0.94087   0.00000  Uiso   1.00
C467   C     0.51478   0.28716   0.60614   0.00000  Uiso   1.00
C468   C     0.45942   0.23239   0.89039   0.00000  Uiso   1.00
C469   C     0.48493   0.21329   0.60209   0.00000  Uiso   1.00
C470   C     0.54099   0.26648   0.90085   0.00000  Uiso   1.00
C471   C     0.48710   0.21232   0.55186   0.00000  Uiso   1.00
C472   C     0.54275   0.26441   0.95151   0.00000  Uiso   1.00
C473   C     0.50015   0.25055   0.52708   0.00000  Uiso   1.00
C474   C     0.49984   0.24995   0.97259   0.00000  Uiso   1.00
C475   C     0.40149   0.24972   0.73780   0.00000  Uiso   1.00
C476   C     0.59850   0.25060   0.76217   0.00000  Uiso   1.00
C477   C     0.34663   0.24513   0.73156   0.00000  Uiso   1.00
C478   C     0.65331   0.25570   0.76825   0.00000  Uiso   1.00
C479   C     0.47739   0.04712   0.78604   0.00000  Uiso   1.00
C480   C     0.47765   0.45245   0.70823   0.00000  Uiso   1.00
C481   C     0.47794   0.09312   0.78619   0.00000  Uiso   1.00
C482   C     0.47817   0.40647   0.70819   0.00000  Uiso   1.00
C483   C     0.49965   0.11660   0.75015   0.00000  Uiso   1.00
C484   C     0.49963   0.38341   0.74979   0.00000  Uiso   1.00
C485   C     0.52090   0.09339   0.71411   0.00000  Uiso   1.00
C486   C     0.52051   0.40704   0.79134   0.00000  Uiso   1.00
C487   C     0.52033   0.04746   0.71419   0.00000  Uiso   1.00
C488   C     0.51997   0.45297   0.79114   0.00000  Uiso   1.00
C489   C     0.49857   0.02417   0.74998   0.00000  Uiso   1.00
C490   C     0.49856   0.47583   0.74974   0.00000  Uiso   1.00
Cu491  Cu    0.50000   0.25000   0.79821   0.00000  Uiso   1.00
Cu492  Cu    0.50000   0.25001   0.70178   0.00000  Uiso   1.00
H493   H     0.53744   0.02996   0.68662   0.00000  Uiso   1.00
H494   H     0.53682   0.47080   0.82314   0.00000  Uiso   1.00
N495   N     0.50000   0.25001   0.62934   0.00000  Uiso   1.00
N496   N     0.50000   0.24999   0.87065   0.00000  Uiso   1.00
O497   O     0.50000   0.18573   0.79071   0.00000  Uiso   1.00
O498   O     0.50000   0.31428   0.70928   0.00000  Uiso   1.00
O499   O     0.50000   0.18573   0.70928   0.00000  Uiso   1.00
O500   O     0.50000   0.31427   0.79072   0.00000  Uiso   1.00
O501   O     0.42495   0.25000   0.78132   0.00000  Uiso   1.00
O502   O     0.57505   0.25001   0.71868   0.00000  Uiso   1.00
O503   O     0.42495   0.25000   0.69988   0.00000  Uiso   1.00
O504   O     0.57505   0.25000   0.80011   0.00000  Uiso   1.00
N505   N     0.65553   0.22630   0.68681   0.00000  Uiso   1.00
H506   H     0.33851   0.19555   0.68207   0.00000  Uiso   1.00
H507   H     0.66298   0.24692   0.65831   0.00000  Uiso   1.00
N508   N     0.34422   0.27546   0.81255   0.00000  Uiso   1.00
H509   H     0.66145   0.30649   0.81609   0.00000  Uiso   1.00
H510   H     0.33603   0.25584   0.84157   0.00000  Uiso   1.00
F511   F     0.45515   0.02497   0.82038   0.00000  Uiso   1.00
F512   F     0.45569   0.47416   0.66818   0.00000  Uiso   1.00
F513   F     0.45607   0.11456   0.82083   0.00000  Uiso   1.00
F514   F     0.45640   0.38462   0.66797   0.00000  Uiso   1.00
F515   F     0.54336   0.11497   0.67954   0.00000  Uiso   1.00
F516   F     0.54250   0.38590   0.83176   0.00000  Uiso   1.00
N517   N     0.51917   0.33144   0.53354   0.00000  Uiso   1.00
H518   H     0.55441   0.33287   0.52063   0.00000  Uiso   1.00
H519   H     0.48999   0.33612   0.50477   0.00000  Uiso   1.00
N520   N     0.41155   0.22035   0.95951   0.00000  Uiso   1.00
H521   H     0.40357   0.18755   0.94912   0.00000  Uiso   1.00
H522   H     0.38152   0.23975   0.94321   0.00000  Uiso   1.00
F523   F     0.53261   0.32334   0.63173   0.00000  Uiso   1.00
F524   F     0.42076   0.21208   0.86159   0.00000  Uiso   1.00
F525   F     0.46689   0.17684   0.62271   0.00000  Uiso   1.00
F526   F     0.58125   0.28491   0.88248   0.00000  Uiso   1.00
F527   F     0.47631   0.17374   0.52764   0.00000  Uiso   1.00
F528   F     0.58721   0.27501   0.97963   0.00000  Uiso   1.00
C529   C     0.83328   0.16496   0.75005   0.00000  Uiso   1.00
C530   C     0.83329   0.33505   0.74994   0.00000  Uiso   1.00
C531   C     0.84569   0.28911   0.55527   0.00000  Uiso   1.00
C532   C     0.79060   0.23413   0.94087   0.00000  Uiso   1.00
C533   C     0.84811   0.28716   0.60614   0.00000  Uiso   1.00
C534   C     0.79276   0.23239   0.89039   0.00000  Uiso   1.00
C535   C     0.81827   0.21329   0.60209   0.00000  Uiso   1.00
C536   C     0.87433   0.26648   0.90085   0.00000  Uiso   1.00
C537   C     0.82043   0.21232   0.55186   0.00000  Uiso   1.00
C538   C     0.87608   0.26441   0.95151   0.00000  Uiso   1.00
C539   C     0.83348   0.25055   0.52708   0.00000  Uiso   1.00
C540   C     0.83318   0.24995   0.97259   0.00000  Uiso   1.00
C541   C     0.73482   0.24972   0.73780   0.00000  Uiso   1.00
C542   C     0.93183   0.25060   0.76217   0.00000  Uiso   1.00
C543   C     0.67996   0.24513   0.73156   0.00000  Uiso   1.00
C544   C     0.98664   0.25570   0.76825   0.00000  Uiso   1.00
C545   C     0.81072   0.04712   0.78604   0.00000  Uiso   1.00
C546   C     0.81099   0.45245   0.70823   0.00000  Uiso   1.00
C547   C     0.81127   0.09312   0.78619   0.00000  Uiso   1.00
C548   C     0.81150   0.40647   0.70819   0.00000  Uiso   1.00
C549   C     0.83299   0.11660   0.75015   0.00000  Uiso   1.00
C550   C     0.83296   0.38341   0.74979   0.00000  Uiso   1.00
C551   C     0.85423   0.09339   0.71411   0.00000  Uiso   1.00
C552   C     0.85385   0.40704   0.79134   0.00000  Uiso   1.00
C553   C     0.85367   0.04746   0.71419   0.00000  Uiso   1.00
C554   C     0.85331   0.45297   0.79114   0.00000  Uiso   1.00
C555   C     0.83190   0.02417   0.74998   0.00000  Uiso   1.00
C556   C     0.83189   0.47583   0.74974   0.00000  Uiso   1.00
Cu557  Cu    0.83333   0.25000   0.79821   0.00000  Uiso   1.00
Cu558  Cu    0.83333   0.25001   0.70178   0.00000  Uiso   1.00
H559   H     0.87078   0.02996   0.68662   0.00000  Uiso   1.00
H560   H     0.87015   0.47080   0.82314   0.00000  Uiso   1.00
N561   N     0.83333   0.25001   0.62934   0.00000  Uiso   1.00
N562   N     0.83333   0.24999   0.87065   0.00000  Uiso   1.00
O563   O     0.83334   0.18573   0.79071   0.00000  Uiso   1.00
O564   O     0.83333   0.31428   0.70928   0.00000  Uiso   1.00
O565   O     0.83334   0.18573   0.70928   0.00000  Uiso   1.00
O566   O     0.83333   0.31427   0.79072   0.00000  Uiso   1.00
O567   O     0.75828   0.25000   0.78132   0.00000  Uiso   1.00
O568   O     0.90839   0.25001   0.71868   0.00000  Uiso   1.00
O569   O     0.75828   0.25000   0.69988   0.00000  Uiso   1.00
O570   O     0.90839   0.25000   0.80011   0.00000  Uiso   1.00
N571   N     0.98886   0.22630   0.68681   0.00000  Uiso   1.00
H572   H     0.67184   0.19555   0.68207   0.00000  Uiso   1.00
H573   H     0.99631   0.24692   0.65831   0.00000  Uiso   1.00
N574   N     0.67755   0.27546   0.81255   0.00000  Uiso   1.00
H575   H     0.99478   0.30649   0.81609   0.00000  Uiso   1.00
H576   H     0.66936   0.25584   0.84157   0.00000  Uiso   1.00
F577   F     0.78848   0.02497   0.82038   0.00000  Uiso   1.00
F578   F     0.78902   0.47416   0.66818   0.00000  Uiso   1.00
F579   F     0.78941   0.11456   0.82083   0.00000  Uiso   1.00
F580   F     0.78974   0.38462   0.66797   0.00000  Uiso   1.00
F581   F     0.87670   0.11497   0.67954   0.00000  Uiso   1.00
F582   F     0.87583   0.38590   0.83176   0.00000  Uiso   1.00
N583   N     0.85250   0.33144   0.53354   0.00000  Uiso   1.00
H584   H     0.88774   0.33287   0.52063   0.00000  Uiso   1.00
H585   H     0.82332   0.33612   0.50477   0.00000  Uiso   1.00
N586   N     0.74489   0.22035   0.95951   0.00000  Uiso   1.00
H587   H     0.73690   0.18755   0.94912   0.00000  Uiso   1.00
H588   H     0.71485   0.23975   0.94321   0.00000  Uiso   1.00
F589   F     0.86594   0.32334   0.63173   0.00000  Uiso   1.00
F590   F     0.75409   0.21208   0.86159   0.00000  Uiso   1.00
F591   F     0.80023   0.17684   0.62271   0.00000  Uiso   1.00
F592   F     0.91458   0.28491   0.88248   0.00000  Uiso   1.00
F593   F     0.80964   0.17374   0.52764   0.00000  Uiso   1.00
F594   F     0.92054   0.27501   0.97963   0.00000  Uiso   1.00
C595   C     0.16661   0.66496   0.75005   0.00000  Uiso   1.00
C596   C     0.16662   0.83505   0.74994   0.00000  Uiso   1.00
C597   C     0.17902   0.78911   0.55527   0.00000  Uiso   1.00
C598   C     0.12393   0.73413   0.94087   0.00000  Uiso   1.00
C599   C     0.18145   0.78716   0.60614   0.00000  Uiso   1.00
C600   C     0.12609   0.73239   0.89039   0.00000  Uiso   1.00
C601   C     0.15160   0.71329   0.60209   0.00000  Uiso   1.00
C602   C     0.20766   0.76648   0.90085   0.00000  Uiso   1.00
C603   C     0.15376   0.71232   0.55186   0.00000  Uiso   1.00
C604   C     0.20942   0.76441   0.95151   0.00000  Uiso   1.00
C605   C     0.16681   0.75055   0.52708   0.00000  Uiso   1.00
C606   C     0.16651   0.74995   0.97259   0.00000  Uiso   1.00
C607   C     0.06816   0.74972   0.73780   0.00000  Uiso   1.00
C608   C     0.26516   0.75060   0.76217   0.00000  Uiso   1.00
C609   C     0.01329   0.74513   0.73156   0.00000  Uiso   1.00
C610   C     0.31997   0.75570   0.76825   0.00000  Uiso   1.00
C611   C     0.14406   0.54712   0.78604   0.00000  Uiso   1.00
C612   C     0.14432   0.95245   0.70823   0.00000  Uiso   1.00
C613   C     0.14461   0.59312   0.78619   0.00000  Uiso   1.00
C614   C     0.14483   0.90647   0.70819   0.00000  Uiso   1.00
C615   C     0.16632   0.61660   0.75015   0.00000  Uiso   1.00
C616   C     0.16629   0.88341   0.74979   0.00000  Uiso   1.00
C617   C     0.18757   0.59339   0.71411   0.00000  Uiso   1.00
C618   C     0.18718   0.90704   0.79134   0.00000  Uiso   1.00
C619   C     0.18700   0.54746   0.71419   0.00000  Uiso   1.00
C620   C     0.18664   0.95297   0.79114   0.00000  Uiso   1.00
C621   C     0.16524   0.52417   0.74998   0.00000  Uiso   1.00
C622   C     0.16522   0.97583   0.74974   0.00000  Uiso   1.00
Cu623  Cu    0.16667   0.75000   0.79821   0.00000  Uiso   1.00
Cu624  Cu    0.16667   0.75001   0.70178   0.00000  Uiso   1.00
H625   H     0.20411   0.52996   0.68662   0.00000  Uiso   1.00
H626   H     0.20348   0.97080   0.82314   0.00000  Uiso   1.00
N627   N     0.16667   0.75001   0.62934   0.00000  Uiso   1.00
N628   N     0.16667   0.74999   0.87065   0.00000  Uiso   1.00
O629   O     0.16667   0.68573   0.79071   0.00000  Uiso   1.00
O630   O     0.16666   0.81428   0.70928   0.00000  Uiso   1.00
O631   O     0.16667   0.68573   0.70928   0.00000  Uiso   1.00
O632   O     0.16666   0.81427   0.79072   0.00000  Uiso   1.00
O633   O     0.09161   0.75000   0.78132   0.00000  Uiso   1.00
O634   O     0.24172   0.75001   0.71868   0.00000  Uiso   1.00
O635   O     0.09161   0.75000   0.69988   0.00000  Uiso   1.00
O636   O     0.24172   0.75000   0.80011   0.00000  Uiso   1.00
N637   N     0.32219   0.72630   0.68681   0.00000  Uiso   1.00
H638   H     0.00517   0.69555   0.68207   0.00000  Uiso   1.00
H639   H     0.32965   0.74692   0.65831   0.00000  Uiso   1.00
N640   N     0.01089   0.77546   0.81255   0.00000  Uiso   1.00
H641   H     0.32812   0.80649   0.81609   0.00000  Uiso   1.00
H642   H     0.00270   0.75584   0.84157   0.00000  Uiso   1.00
F643   F     0.12181   0.52497   0.82038   0.00000  Uiso   1.00
F644   F     0.12235   0.97416   0.66818   0.00000  Uiso   1.00
F645   F     0.12274   0.61456   0.82083   0.00000  Uiso   1.00
F646   F     0.12307   0.88462   0.66797   0.00000  Uiso   1.00
F647   F     0.21003   0.61497   0.67954   0.00000  Uiso   1.00
F648   F     0.20917   0.88590   0.83176   0.00000  Uiso   1.00
N649   N     0.18584   0.83144   0.53354   0.00000  Uiso   1.00
H650   H     0.22107   0.83287   0.52063   0.00000  Uiso   1.00
H651   H     0.15666   0.83612   0.50477   0.00000  Uiso   1.00
N652   N     0.07822   0.72035   0.95951   0.00000  Uiso   1.00
H653   H     0.07023   0.68755   0.94912   0.00000  Uiso   1.00
H654   H     0.04819   0.73975   0.94321   0.00000  Uiso   1.00
F655   F     0.19928   0.82334   0.63173   0.00000  Uiso   1.00
F656   F     0.08742   0.71208   0.86159   0.00000  Uiso   1.00
F657   F     0.13356   0.67684   0.62271   0.00000  Uiso   1.00
F658   F     0.24792   0.78491   0.88248   0.00000  Uiso   1.00
F659   F     0.14298   0.67374   0.52764   0.00000  Uiso   1.00
F660   F     0.25387   0.77501   0.97963   0.00000  Uiso   1.00
C661   C     0.49995   0.66496   0.75005   0.00000  Uiso   1.00
C662   C     0.49996   0.83505   0.74994   0.00000  Uiso   1.00
C663   C     0.51235   0.78911   0.55527   0.00000  Uiso   1.00
C664   C     0.45727   0.73413   0.94087   0.00000  Uiso   1.00
C665   C     0.51478   0.78716   0.60614   0.00000  Uiso   1.00
C666   C     0.45942   0.73239   0.89039   0.00000  Uiso   1.00
C667   C     0.48493   0.71329   0.60209   0.00000  Uiso   1.00
C668   C     0.54099   0.76648   0.90085   0.00000  Uiso   1.00
C669   C     0.48710   0.71232   0.55186   0.00000  Uiso   1.00
C670   C     0.54275   0.76441   0.95151   0.00000  Uiso   1.00
C671   C     0.50015   0.75055   0.52708   0.00000  Uiso   1.00
C672   C     0.49984   0.74995   0.97259   0.00000  Uiso   1.00
C673   C     0.40149   0.74972   0.73780   0.00000  Uiso   1.00
C674   C     0.59850   0.75060   0.76217   0.00000  Uiso   1.00
C675   C     0.34663   0.74513   0.73156   0.00000  Uiso   1.00
C676   C     0.65331   0.75570   0.76825   0.00000  Uiso   1.00
C677   C     0.47739   0.54712   0.78604   0.00000  Uiso   1.00
C678   C     0.47765   0.95245   0.70823   0.00000  Uiso   1.00
C679   C     0.47794   0.59312   0.78619   0.00000  Uiso   1.00
C680   C     0.47817   0.90647   0.70819   0.00000  Uiso   1.00
C681   C     0.49965   0.61660   0.75015   0.00000  Uiso   1.00
C682   C     0.49963   0.88341   0.74979   0.00000  Uiso   1.00
C683   C     0.52090   0.59339   0.71411   0.00000  Uiso   1.00
C684   C     0.52051   0.90704   0.79134   0.00000  Uiso   1.00
C685   C     0.52033   0.54746   0.71419   0.00000  Uiso   1.00
C686   C     0.51997   0.95297   0.79114   0.00000  Uiso   1.00
C687   C     0.49857   0.52417   0.74998   0.00000  Uiso   1.00
C688   C     0.49856   0.97583   0.74974   0.00000  Uiso   1.00
Cu689  Cu    0.50000   0.75000   0.79821   0.00000  Uiso   1.00
Cu690  Cu    0.50000   0.75001   0.70178   0.00000  Uiso   1.00
H691   H     0.53744   0.52996   0.68662   0.00000  Uiso   1.00
H692   H     0.53682   0.97080   0.82314   0.00000  Uiso   1.00
N693   N     0.50000   0.75001   0.62934   0.00000  Uiso   1.00
N694   N     0.50000   0.74999   0.87065   0.00000  Uiso   1.00
O695   O     0.50000   0.68573   0.79071   0.00000  Uiso   1.00
O696   O     0.50000   0.81428   0.70928   0.00000  Uiso   1.00
O697   O     0.50000   0.68573   0.70928   0.00000  Uiso   1.00
O698   O     0.50000   0.81427   0.79072   0.00000  Uiso   1.00
O699   O     0.42495   0.75000   0.78132   0.00000  Uiso   1.00
O700   O     0.57505   0.75001   0.71868   0.00000  Uiso   1.00
O701   O     0.42495   0.75000   0.69988   0.00000  Uiso   1.00
O702   O     0.57505   0.75000   0.80011   0.00000  Uiso   1.00
N703   N     0.65553   0.72630   0.68681   0.00000  Uiso   1.00
H704   H     0.33851   0.69555   0.68207   0.00000  Uiso   1.00
H705   H     0.66298   0.74692   0.65831   0.00000  Uiso   1.00
N706   N     0.34422   0.77546   0.81255   0.00000  Uiso   1.00
H707   H     0.66145   0.80649   0.81609   0.00000  Uiso   1.00
H708   H     0.33603   0.75584   0.84157   0.00000  Uiso   1.00
F709   F     0.45515   0.52497   0.82038   0.00000  Uiso   1.00
F710   F     0.45569   0.97416   0.66818   0.00000  Uiso   1.00
F711   F     0.45607   0.61456   0.82083   0.00000  Uiso   1.00
F712   F     0.45640   0.88462   0.66797   0.00000  Uiso   1.00
F713   F     0.54336   0.61497   0.67954   0.00000  Uiso   1.00
F714   F     0.54250   0.88590   0.83176   0.00000  Uiso   1.00
N715   N     0.51917   0.83144   0.53354   0.00000  Uiso   1.00
H716   H     0.55441   0.83287   0.52063   0.00000  Uiso   1.00
H717   H     0.48999   0.83612   0.50477   0.00000  Uiso   1.00
N718   N     0.41155   0.72035   0.95951   0.00000  Uiso   1.00
H719   H     0.40357   0.68755   0.94912   0.00000  Uiso   1.00
H720   H     0.38152   0.73975   0.94321   0.00000  Uiso   1.00
F721   F     0.53261   0.82334   0.63173   0.00000  Uiso   1.00
F722   F     0.42076   0.71208   0.86159   0.00000  Uiso   1.00
F723   F     0.46689   0.67684   0.62271   0.00000  Uiso   1.00
F724   F     0.58125   0.78491   0.88248   0.00000  Uiso   1.00
F725   F     0.47631   0.67374   0.52764   0.00000  Uiso   1.00
F726   F     0.58721   0.77501   0.97963   0.00000  Uiso   1.00
C727   C     0.83328   0.66496   0.75005   0.00000  Uiso   1.00
C728   C     0.83329   0.83505   0.74994   0.00000  Uiso   1.00
C729   C     0.84569   0.78911   0.55527   0.00000  Uiso   1.00
C730   C     0.79060   0.73413   0.94087   0.00000  Uiso   1.00
C731   C     0.84811   0.78716   0.60614   0.00000  Uiso   1.00
C732   C     0.79276   0.73239   0.89039   0.00000  Uiso   1.00
C733   C     0.81827   0.71329   0.60209   0.00000  Uiso   1.00
C734   C     0.87433   0.76648   0.90085   0.00000  Uiso   1.00
C735   C     0.82043   0.71232   0.55186   0.00000  Uiso   1.00
C736   C     0.87608   0.76441   0.95151   0.00000  Uiso   1.00
C737   C     0.83348   0.75055   0.52708   0.00000  Uiso   1.00
C738   C     0.83318   0.74995   0.97259   0.00000  Uiso   1.00
C739   C     0.73482   0.74972   0.73780   0.00000  Uiso   1.00
C740   C     0.93183   0.75060   0.76217   0.00000  Uiso   1.00
C741   C     0.67996   0.74513   0.73156   0.00000  Uiso   1.00
C742   C     0.98664   0.75570   0.76825   0.00000  Uiso   1.00
C743   C     0.81072   0.54712   0.78604   0.00000  Uiso   1.00
C744   C     0.81099   0.95245   0.70823   0.00000  Uiso   1.00
C745   C     0.81127   0.59312   0.78619   0.00000  Uiso   1.00
C746   C     0.81150   0.90647   0.70819   0.00000  Uiso   1.00
C747   C     0.83299   0.61660   0.75015   0.00000  Uiso   1.00
C748   C     0.83296   0.88341   0.74979   0.00000  Uiso   1.00
C749   C     0.85423   0.59339   0.71411   0.00000  Uiso   1.00
C750   C     0.85385   0.90704   0.79134   0.00000  Uiso   1.00
C751   C     0.85367   0.54746   0.71419   0.00000  Uiso   1.00
C752   C     0.85331   0.95297   0.79114   0.00000  Uiso   1.00
C753   C     0.83190   0.52417   0.74998   0.00000  Uiso   1.00
C754   C     0.83189   0.97583   0.74974   0.00000  Uiso   1.00
Cu755  Cu    0.83333   0.75000   0.79821   0.00000  Uiso   1.00
Cu756  Cu    0.83333   0.75001   0.70178   0.00000  Uiso   1.00
H757   H     0.87078   0.52996   0.68662   0.00000  Uiso   1.00
H758   H     0.87015   0.97080   0.82314   0.00000  Uiso   1.00
N759   N     0.83333   0.75001   0.62934   0.00000  Uiso   1.00
N760   N     0.83333   0.74999   0.87065   0.00000  Uiso   1.00
O761   O     0.83334   0.68573   0.79071   0.00000  Uiso   1.00
O762   O     0.83333   0.81428   0.70928   0.00000  Uiso   1.00
O763   O     0.83334   0.68573   0.70928   0.00000  Uiso   1.00
O764   O     0.83333   0.81427   0.79072   0.00000  Uiso   1.00
O765   O     0.75828   0.75000   0.78132   0.00000  Uiso   1.00
O766   O     0.90839   0.75001   0.71868   0.00000  Uiso   1.00
O767   O     0.75828   0.75000   0.69988   0.00000  Uiso   1.00
O768   O     0.90839   0.75000   0.80011   0.00000  Uiso   1.00
N769   N     0.98886   0.72630   0.68681   0.00000  Uiso   1.00
H770   H     0.67184   0.69555   0.68207   0.00000  Uiso   1.00
H771   H     0.99631   0.74692   0.65831   0.00000  Uiso   1.00
N772   N     0.67755   0.77546   0.81255   0.00000  Uiso   1.00
H773   H     0.99478   0.80649   0.81609   0.00000  Uiso   1.00
H774   H     0.66936   0.75584   0.84157   0.00000  Uiso   1.00
F775   F     0.78848   0.52497   0.82038   0.00000  Uiso   1.00
F776   F     0.78902   0.97416   0.66818   0.00000  Uiso   1.00
F777   F     0.78941   0.61456   0.82083   0.00000  Uiso   1.00
F778   F     0.78974   0.88462   0.66797   0.00000  Uiso   1.00
F779   F     0.87670   0.61497   0.67954   0.00000  Uiso   1.00
F780   F     0.87583   0.88590   0.83176   0.00000  Uiso   1.00
N781   N     0.85250   0.83144   0.53354   0.00000  Uiso   1.00
H782   H     0.88774   0.83287   0.52063   0.00000  Uiso   1.00
H783   H     0.82332   0.83612   0.50477   0.00000  Uiso   1.00
N784   N     0.74489   0.72035   0.95951   0.00000  Uiso   1.00
H785   H     0.73690   0.68755   0.94912   0.00000  Uiso   1.00
H786   H     0.71485   0.73975   0.94321   0.00000  Uiso   1.00
F787   F     0.86594   0.82334   0.63173   0.00000  Uiso   1.00
F788   F     0.75409   0.71208   0.86159   0.00000  Uiso   1.00
F789   F     0.80023   0.67684   0.62271   0.00000  Uiso   1.00
F790   F     0.91458   0.78491   0.88248   0.00000  Uiso   1.00
F791   F     0.80964   0.67374   0.52764   0.00000  Uiso   1.00
F792   F     0.92054   0.77501   0.97963   0.00000  Uiso   1.00
loop_
_geom_bond_atom_site_label_1
_geom_bond_atom_site_label_2
_geom_bond_distance
_geom_bond_site_symmetry_2
_ccdc_geom_bond_type
C1     C21     1.463   .     S
C1     O37     1.296   .     A
C1     O35     1.296   .     A
C2     C22     1.463   .     S
C2     O36     1.296   .     A
C2     O38     1.296   .     A
C3     C5      1.411   .     A
C3     C11     1.418   .     A
C3     N55     1.435   .     S
C4     C6      1.415   .     A
C4     C12     1.413   .     A
C4     N58     1.433   .     S
C5     F61     1.353   .     S
C5     N33     1.373   .     A
C6     F62     1.354   .     S
C6     N34     1.369   .     A
C7     F63     1.353   .     S
C7     N33     1.372   .     A
C7     C9      1.408   .     A
C8     N34     1.369   .     A
C8     F64     1.353   .     S
C8     C10     1.406   .     A
C9     C11     1.408   .     A
C9     F65     1.358   .     S
C10    F66     1.357   .     S
C10    C12     1.408   .     A
C11    C408    1.516   1_554 S
C12    C407    1.516   .     S
C13    O41     1.293   .     A
C13    C15     1.441   .     S
C13    O39     1.285   .     A
C14    C16     1.441   .     S
C14    O42     1.294   .     A
C14    O40     1.285   .     A
C15    C148    1.356   1_455 S
C15    N175    1.440   1_455 S
C16    C81     1.356   .     S
C16    N112    1.440   .     S
C17    C19     1.391   .     A
C17    C27     1.402   .     A
C17    F49     1.358   .     S
C18    C28     1.402   .     A
C18    F50     1.358   .     S
C18    C20     1.391   .     A
C19    F51     1.358   .     S
C19    C21     1.407   .     A
C20    F52     1.358   .     S
C20    C22     1.407   .     A
C21    C23     1.406   .     A
C22    C24     1.407   .     A
C23    F53     1.358   .     S
C23    C25     1.390   .     A
C24    C26     1.390   .     A
C24    F54     1.358   .     S
C25    C27     1.399   .     A
C25    H31     1.084   .     S
C26    C28     1.399   .     A
C26    H32     1.084   .     S
C27    C226    1.463   1_545 S
C28    C225    1.463   .     S
Cu29   O38     1.955   .     S
Cu29   Cu30    2.685   .     S
Cu29   O42     1.975   .     S
Cu29   O35     1.956   .     S
Cu29   O39     1.975   .     S
Cu29   N34     2.017   .     S
Cu30   O41     1.975   .     S
Cu30   O36     1.956   .     S
Cu30   O37     1.955   .     S
Cu30   O40     1.975   .     S
Cu30   N33     2.017   .     S
N43    H45     1.046   .     S
N43    C81     1.440   .     S
N43    H110    1.046   .     S
H44    N175    1.046   1_455 S
N46    H48     1.045   .     S
N46    C148    1.440   1_455 S
N46    H179    1.046   1_455 S
H47    N112    1.046   .     S
N55    H56     1.041   .     S
N55    H57     1.046   .     S
N58    H60     1.046   .     S
N58    H59     1.046   .     S
C67    C87     1.463   .     S
C67    O103    1.296   .     A
C67    O101    1.296   .     A
C68    C88     1.463   .     S
C68    O102    1.296   .     A
C68    O104    1.296   .     A
C69    C71     1.411   .     A
C69    C77     1.418   .     A
C69    N121    1.435   .     S
C70    C72     1.415   .     A
C70    C78     1.413   .     A
C70    N124    1.433   .     S
C71    F127    1.353   .     S
C71    N99     1.373   .     A
C72    F128    1.354   .     S
C72    N100    1.369   .     A
C73    F129    1.353   .     S
C73    N99     1.372   .     A
C73    C75     1.408   .     A
C74    N100    1.369   .     A
C74    F130    1.353   .     S
C74    C76     1.406   .     A
C75    C77     1.408   .     A
C75    F131    1.358   .     S
C76    F132    1.357   .     S
C76    C78     1.408   .     A
C77    C474    1.516   1_554 S
C78    C473    1.516   .     S
C79    O107    1.293   .     A
C79    C81     1.441   .     S
C79    O105    1.285   .     A
C80    C82     1.441   .     S
C80    O108    1.294   .     A
C80    O106    1.285   .     A
C82    C147    1.356   .     S
C82    N178    1.440   .     S
C83    C85     1.391   .     A
C83    C93     1.402   .     A
C83    F115    1.358   .     S
C84    C94     1.402   .     A
C84    F116    1.358   .     S
C84    C86     1.391   .     A
C85    F117    1.358   .     S
C85    C87     1.407   .     A
C86    F118    1.358   .     S
C86    C88     1.407   .     A
C87    C89     1.406   .     A
C88    C90     1.407   .     A
C89    F119    1.358   .     S
C89    C91     1.390   .     A
C90    C92     1.390   .     A
C90    F120    1.358   .     S
C91    C93     1.399   .     A
C91    H97     1.084   .     S
C92    C94     1.399   .     A
C92    H98     1.084   .     S
C93    C292    1.463   1_545 S
C94    C291    1.463   .     S
Cu95   O104    1.955   .     S
Cu95   Cu96    2.685   .     S
Cu95   O108    1.975   .     S
Cu95   O101    1.956   .     S
Cu95   O105    1.975   .     S
Cu95   N100    2.017   .     S
Cu96   O107    1.975   .     S
Cu96   O102    1.956   .     S
Cu96   O103    1.955   .     S
Cu96   O106    1.975   .     S
Cu96   N99     2.017   .     S
N109   H111    1.046   .     S
N109   C147    1.440   .     S
N109   H176    1.046   .     S
N112   H114    1.045   .     S
H113   N178    1.046   .     S
N121   H122    1.041   .     S
N121   H123    1.046   .     S
N124   H126    1.046   .     S
N124   H125    1.046   .     S
C133   C153    1.463   .     S
C133   O169    1.296   .     A
C133   O167    1.296   .     A
C134   C154    1.463   .     S
C134   O168    1.296   .     A
C134   O170    1.296   .     A
C135   C137    1.411   .     A
C135   C143    1.418   .     A
C135   N187    1.435   .     S
C136   C138    1.415   .     A
C136   C144    1.413   .     A
C136   N190    1.433   .     S
C137   F193    1.353   .     S
C137   N165    1.373   .     A
C138   F194    1.354   .     S
C138   N166    1.369   .     A
C139   F195    1.353   .     S
C139   N165    1.372   .     A
C139   C141    1.408   .     A
C140   N166    1.369   .     A
C140   F196    1.353   .     S
C140   C142    1.406   .     A
C141   C143    1.408   .     A
C141   F197    1.358   .     S
C142   F198    1.357   .     S
C142   C144    1.408   .     A
C143   C540    1.516   1_554 S
C144   C539    1.516   .     S
C145   O173    1.293   .     A
C145   C147    1.441   .     S
C145   O171    1.285   .     A
C146   C148    1.441   .     S
C146   O174    1.294   .     A
C146   O172    1.285   .     A
C148   C15     1.356   1_655 S
C148   N46     1.440   1_655 S
C149   C151    1.391   .     A
C149   C159    1.402   .     A
C149   F181    1.358   .     S
C150   C160    1.402   .     A
C150   F182    1.358   .     S
C150   C152    1.391   .     A
C151   F183    1.358   .     S
C151   C153    1.407   .     A
C152   F184    1.358   .     S
C152   C154    1.407   .     A
C153   C155    1.406   .     A
C154   C156    1.407   .     A
C155   F185    1.358   .     S
C155   C157    1.390   .     A
C156   C158    1.390   .     A
C156   F186    1.358   .     S
C157   C159    1.399   .     A
C157   H163    1.084   .     S
C158   C160    1.399   .     A
C158   H164    1.084   .     S
C159   C358    1.463   1_545 S
C160   C357    1.463   .     S
Cu161  O170    1.955   .     S
Cu161  Cu162   2.685   .     S
Cu161  O174    1.975   .     S
Cu161  O167    1.956   .     S
Cu161  O171    1.975   .     S
Cu161  N166    2.017   .     S
Cu162  O173    1.975   .     S
Cu162  O168    1.956   .     S
Cu162  O169    1.955   .     S
Cu162  O172    1.975   .     S
Cu162  N165    2.017   .     S
N175   H177    1.046   .     S
N175   C15     1.440   1_655 S
N175   H44     1.046   1_655 S
N178   H180    1.045   .     S
H179   N46     1.046   1_655 S
N187   H188    1.041   .     S
N187   H189    1.046   .     S
N190   H192    1.046   .     S
N190   H191    1.046   .     S
C199   C219    1.463   .     S
C199   O235    1.296   .     A
C199   O233    1.296   .     A
C200   C220    1.463   .     S
C200   O234    1.296   .     A
C200   O236    1.296   .     A
C201   C203    1.411   .     A
C201   C209    1.418   .     A
C201   N253    1.435   .     S
C202   C204    1.415   .     A
C202   C210    1.413   .     A
C202   N256    1.433   .     S
C203   F259    1.353   .     S
C203   N231    1.373   .     A
C204   F260    1.354   .     S
C204   N232    1.369   .     A
C205   F261    1.353   .     S
C205   N231    1.372   .     A
C205   C207    1.408   .     A
C206   N232    1.369   .     A
C206   F262    1.353   .     S
C206   C208    1.406   .     A
C207   C209    1.408   .     A
C207   F263    1.358   .     S
C208   F264    1.357   .     S
C208   C210    1.408   .     A
C209   C606    1.516   1_554 S
C210   C605    1.516   .     S
C211   O239    1.293   .     A
C211   C213    1.441   .     S
C211   O237    1.285   .     A
C212   C214    1.441   .     S
C212   O240    1.294   .     A
C212   O238    1.285   .     A
C213   C346    1.356   1_455 S
C213   N373    1.440   1_455 S
C214   C279    1.356   .     S
C214   N310    1.440   .     S
C215   C217    1.391   .     A
C215   C225    1.402   .     A
C215   F247    1.358   .     S
C216   C226    1.402   .     A
C216   F248    1.358   .     S
C216   C218    1.391   .     A
C217   F249    1.358   .     S
C217   C219    1.407   .     A
C218   F250    1.358   .     S
C218   C220    1.407   .     A
C219   C221    1.406   .     A
C220   C222    1.407   .     A
C221   F251    1.358   .     S
C221   C223    1.390   .     A
C222   C224    1.390   .     A
C222   F252    1.358   .     S
C223   C225    1.399   .     A
C223   H229    1.084   .     S
C224   C226    1.399   .     A
C224   H230    1.084   .     S
C226   C27     1.463   1_565 S
Cu227  O236    1.955   .     S
Cu227  Cu228   2.685   .     S
Cu227  O240    1.975   .     S
Cu227  O233    1.956   .     S
Cu227  O237    1.975   .     S
Cu227  N232    2.017   .     S
Cu228  O239    1.975   .     S
Cu228  O234    1.956   .     S
Cu228  O235    1.955   .     S
Cu228  O238    1.975   .     S
Cu228  N231    2.017   .     S
N241   H243    1.046   .     S
N241   C279    1.440   .     S
N241   H308    1.046   .     S
H242   N373    1.046   1_455 S
N244   H246    1.045   .     S
N244   C346    1.440   1_455 S
N244   H377    1.046   1_455 S
H245   N310    1.046   .     S
N253   H254    1.041   .     S
N253   H255    1.046   .     S
N256   H258    1.046   .     S
N256   H257    1.046   .     S
C265   C285    1.463   .     S
C265   O301    1.296   .     A
C265   O299    1.296   .     A
C266   C286    1.463   .     S
C266   O300    1.296   .     A
C266   O302    1.296   .     A
C267   C269    1.411   .     A
C267   C275    1.418   .     A
C267   N319    1.435   .     S
C268   C270    1.415   .     A
C268   C276    1.413   .     A
C268   N322    1.433   .     S
C269   F325    1.353   .     S
C269   N297    1.373   .     A
C270   F326    1.354   .     S
C270   N298    1.369   .     A
C271   F327    1.353   .     S
C271   N297    1.372   .     A
C271   C273    1.408   .     A
C272   N298    1.369   .     A
C272   F328    1.353   .     S
C272   C274    1.406   .     A
C273   C275    1.408   .     A
C273   F329    1.358   .     S
C274   F330    1.357   .     S
C274   C276    1.408   .     A
C275   C672    1.516   1_554 S
C276   C671    1.516   .     S
C277   O305    1.293   .     A
C277   C279    1.441   .     S
C277   O303    1.285   .     A
C278   C280    1.441   .     S
C278   O306    1.294   .     A
C278   O304    1.285   .     A
C280   C345    1.356   .     S
C280   N376    1.440   .     S
C281   C283    1.391   .     A
C281   C291    1.402   .     A
C281   F313    1.358   .     S
C282   C292    1.402   .     A
C282   F314    1.358   .     S
C282   C284    1.391   .     A
C283   F315    1.358   .     S
C283   C285    1.407   .     A
C284   F316    1.358   .     S
C284   C286    1.407   .     A
C285   C287    1.406   .     A
C286   C288    1.407   .     A
C287   F317    1.358   .     S
C287   C289    1.390   .     A
C288   C290    1.390   .     A
C288   F318    1.358   .     S
C289   C291    1.399   .     A
C289   H295    1.084   .     S
C290   C292    1.399   .     A
C290   H296    1.084   .     S
C292   C93     1.463   1_565 S
Cu293  O302    1.955   .     S
Cu293  Cu294   2.685   .     S
Cu293  O306    1.975   .     S
Cu293  O299    1.956   .     S
Cu293  O303    1.975   .     S
Cu293  N298    2.017   .     S
Cu294  O305    1.975   .     S
Cu294  O300    1.956   .     S
Cu294  O301    1.955   .     S
Cu294  O304    1.975   .     S
Cu294  N297    2.017   .     S
N307   H309    1.046   .     S
N307   C345    1.440   .     S
N307   H374    1.046   .     S
N310   H312    1.045   .     S
H311   N376    1.046   .     S
N319   H320    1.041   .     S
N319   H321    1.046   .     S
N322   H324    1.046   .     S
N322   H323    1.046   .     S
C331   C351    1.463   .     S
C331   O367    1.296   .     A
C331   O365    1.296   .     A
C332   C352    1.463   .     S
C332   O366    1.296   .     A
C332   O368    1.296   .     A
C333   C335    1.411   .     A
C333   C341    1.418   .     A
C333   N385    1.435   .     S
C334   C336    1.415   .     A
C334   C342    1.413   .     A
C334   N388    1.433   .     S
C335   F391    1.353   .     S
C335   N363    1.373   .     A
C336   F392    1.354   .     S
C336   N364    1.369   .     A
C337   F393    1.353   .     S
C337   N363    1.372   .     A
C337   C339    1.408   .     A
C338   N364    1.369   .     A
C338   F394    1.353   .     S
C338   C340    1.406   .     A
C339   C341    1.408   .     A
C339   F395    1.358   .     S
C340   F396    1.357   .     S
C340   C342    1.408   .     A
C341   C738    1.516   1_554 S
C342   C737    1.516   .     S
C343   O371    1.293   .     A
C343   C345    1.441   .     S
C343   O369    1.285   .     A
C344   C346    1.441   .     S
C344   O372    1.294   .     A
C344   O370    1.285   .     A
C346   C213    1.356   1_655 S
C346   N244    1.440   1_655 S
C347   C349    1.391   .     A
C347   C357    1.402   .     A
C347   F379    1.358   .     S
C348   C358    1.402   .     A
C348   F380    1.358   .     S
C348   C350    1.391   .     A
C349   F381    1.358   .     S
C349   C351    1.407   .     A
C350   F382    1.358   .     S
C350   C352    1.407   .     A
C351   C353    1.406   .     A
C352   C354    1.407   .     A
C353   F383    1.358   .     S
C353   C355    1.390   .     A
C354   C356    1.390   .     A
C354   F384    1.358   .     S
C355   C357    1.399   .     A
C355   H361    1.084   .     S
C356   C358    1.399   .     A
C356   H362    1.084   .     S
C358   C159    1.463   1_565 S
Cu359  O368    1.955   .     S
Cu359  Cu360   2.685   .     S
Cu359  O372    1.975   .     S
Cu359  O365    1.956   .     S
Cu359  O369    1.975   .     S
Cu359  N364    2.017   .     S
Cu360  O371    1.975   .     S
Cu360  O366    1.956   .     S
Cu360  O367    1.955   .     S
Cu360  O370    1.975   .     S
Cu360  N363    2.017   .     S
N373   H375    1.046   .     S
N373   C213    1.440   1_655 S
N373   H242    1.046   1_655 S
N376   H378    1.045   .     S
H377   N244    1.046   1_655 S
N385   H386    1.041   .     S
N385   H387    1.046   .     S
N388   H390    1.046   .     S
N388   H389    1.046   .     S
C397   C417    1.463   .     S
C397   O433    1.296   .     A
C397   O431    1.296   .     A
C398   C418    1.463   .     S
C398   O432    1.296   .     A
C398   O434    1.296   .     A
C399   C401    1.411   .     A
C399   C407    1.418   .     A
C399   N451    1.435   .     S
C400   C402    1.415   .     A
C400   C408    1.413   .     A
C400   N454    1.433   .     S
C401   F457    1.353   .     S
C401   N429    1.373   .     A
C402   F458    1.354   .     S
C402   N430    1.369   .     A
C403   F459    1.353   .     S
C403   N429    1.372   .     A
C403   C405    1.408   .     A
C404   N430    1.369   .     A
C404   F460    1.353   .     S
C404   C406    1.406   .     A
C405   C407    1.408   .     A
C405   F461    1.358   .     S
C406   F462    1.357   .     S
C406   C408    1.408   .     A
C408   C11     1.516   1_556 S
C409   O437    1.293   .     A
C409   C411    1.441   .     S
C409   O435    1.285   .     A
C410   C412    1.441   .     S
C410   O438    1.294   .     A
C410   O436    1.285   .     A
C411   C544    1.356   1_455 S
C411   N571    1.440   1_455 S
C412   C477    1.356   .     S
C412   N508    1.440   .     S
C413   C415    1.391   .     A
C413   C423    1.402   .     A
C413   F445    1.358   .     S
C414   C424    1.402   .     A
C414   F446    1.358   .     S
C414   C416    1.391   .     A
C415   F447    1.358   .     S
C415   C417    1.407   .     A
C416   F448    1.358   .     S
C416   C418    1.407   .     A
C417   C419    1.406   .     A
C418   C420    1.407   .     A
C419   F449    1.358   .     S
C419   C421    1.390   .     A
C420   C422    1.390   .     A
C420   F450    1.358   .     S
C421   C423    1.399   .     A
C421   H427    1.084   .     S
C422   C424    1.399   .     A
C422   H428    1.084   .     S
C423   C622    1.463   1_545 S
C424   C621    1.463   .     S
Cu425  O434    1.955   .     S
Cu425  Cu426   2.685   .     S
Cu425  O438    1.975   .     S
Cu425  O431    1.956   .     S
Cu425  O435    1.975   .     S
Cu425  N430    2.017   .     S
Cu426  O437    1.975   .     S
Cu426  O432    1.956   .     S
Cu426  O433    1.955   .     S
Cu426  O436    1.975   .     S
Cu426  N429    2.017   .     S
N439   H441    1.046   .     S
N439   C477    1.440   .     S
N439   H506    1.046   .     S
H440   N571    1.046   1_455 S
N442   H444    1.045   .     S
N442   C544    1.440   1_455 S
N442   H575    1.046   1_455 S
H443   N508    1.046   .     S
N451   H452    1.041   .     S
N451   H453    1.046   .     S
N454   H456    1.046   .     S
N454   H455    1.046   .     S
C463   C483    1.463   .     S
C463   O499    1.296   .     A
C463   O497    1.296   .     A
C464   C484    1.463   .     S
C464   O498    1.296   .     A
C464   O500    1.296   .     A
C465   C467    1.411   .     A
C465   C473    1.418   .     A
C465   N517    1.435   .     S
C466   C468    1.415   .     A
C466   C474    1.413   .     A
C466   N520    1.433   .     S
C467   F523    1.353   .     S
C467   N495    1.373   .     A
C468   F524    1.354   .     S
C468   N496    1.369   .     A
C469   F525    1.353   .     S
C469   N495    1.372   .     A
C469   C471    1.408   .     A
C470   N496    1.369   .     A
C470   F526    1.353   .     S
C470   C472    1.406   .     A
C471   C473    1.408   .     A
C471   F527    1.358   .     S
C472   F528    1.357   .     S
C472   C474    1.408   .     A
C474   C77     1.516   1_556 S
C475   O503    1.293   .     A
C475   C477    1.441   .     S
C475   O501    1.285   .     A
C476   C478    1.441   .     S
C476   O504    1.294   .     A
C476   O502    1.285   .     A
C478   C543    1.356   .     S
C478   N574    1.440   .     S
C479   C481    1.391   .     A
C479   C489    1.402   .     A
C479   F511    1.358   .     S
C480   C490    1.402   .     A
C480   F512    1.358   .     S
C480   C482    1.391   .     A
C481   F513    1.358   .     S
C481   C483    1.407   .     A
C482   F514    1.358   .     S
C482   C484    1.407   .     A
C483   C485    1.406   .     A
C484   C486    1.407   .     A
C485   F515    1.358   .     S
C485   C487    1.390   .     A
C486   C488    1.390   .     A
C486   F516    1.358   .     S
C487   C489    1.399   .     A
C487   H493    1.084   .     S
C488   C490    1.399   .     A
C488   H494    1.084   .     S
C489   C688    1.463   1_545 S
C490   C687    1.463   .     S
Cu491  O500    1.955   .     S
Cu491  Cu492   2.685   .     S
Cu491  O504    1.975   .     S
Cu491  O497    1.956   .     S
Cu491  O501    1.975   .     S
Cu491  N496    2.017   .     S
Cu492  O503    1.975   .     S
Cu492  O498    1.956   .     S
Cu492  O499    1.955   .     S
Cu492  O502    1.975   .     S
Cu492  N495    2.017   .     S
N505   H507    1.046   .     S
N505   C543    1.440   .     S
N505   H572    1.046   .     S
N508   H510    1.045   .     S
H509   N574    1.046   .     S
N517   H518    1.041   .     S
N517   H519    1.046   .     S
N520   H522    1.046   .     S
N520   H521    1.046   .     S
C529   C549    1.463   .     S
C529   O565    1.296   .     A
C529   O563    1.296   .     A
C530   C550    1.463   .     S
C530   O564    1.296   .     A
C530   O566    1.296   .     A
C531   C533    1.411   .     A
C531   C539    1.418   .     A
C531   N583    1.435   .     S
C532   C534    1.415   .     A
C532   C540    1.413   .     A
C532   N586    1.433   .     S
C533   F589    1.353   .     S
C533   N561    1.373   .     A
C534   F590    1.354   .     S
C534   N562    1.369   .     A
C535   F591    1.353   .     S
C535   N561    1.372   .     A
C535   C537    1.408   .     A
C536   N562    1.369   .     A
C536   F592    1.353   .     S
C536   C538    1.406   .     A
C537   C539    1.408   .     A
C537   F593    1.358   .     S
C538   F594    1.357   .     S
C538   C540    1.408   .     A
C540   C143    1.516   1_556 S
C541   O569    1.293   .     A
C541   C543    1.441   .     S
C541   O567    1.285   .     A
C542   C544    1.441   .     S
C542   O570    1.294   .     A
C542   O568    1.285   .     A
C544   C411    1.356   1_655 S
C544   N442    1.440   1_655 S
C545   C547    1.391   .     A
C545   C555    1.402   .     A
C545   F577    1.358   .     S
C546   C556    1.402   .     A
C546   F578    1.358   .     S
C546   C548    1.391   .     A
C547   F579    1.358   .     S
C547   C549    1.407   .     A
C548   F580    1.358   .     S
C548   C550    1.407   .     A
C549   C551    1.406   .     A
C550   C552    1.407   .     A
C551   F581    1.358   .     S
C551   C553    1.390   .     A
C552   C554    1.390   .     A
C552   F582    1.358   .     S
C553   C555    1.399   .     A
C553   H559    1.084   .     S
C554   C556    1.399   .     A
C554   H560    1.084   .     S
C555   C754    1.463   1_545 S
C556   C753    1.463   .     S
Cu557  O566    1.955   .     S
Cu557  Cu558   2.685   .     S
Cu557  O570    1.975   .     S
Cu557  O563    1.956   .     S
Cu557  O567    1.975   .     S
Cu557  N562    2.017   .     S
Cu558  O569    1.975   .     S
Cu558  O564    1.956   .     S
Cu558  O565    1.955   .     S
Cu558  O568    1.975   .     S
Cu558  N561    2.017   .     S
N571   H573    1.046   .     S
N571   C411    1.440   1_655 S
N571   H440    1.046   1_655 S
N574   H576    1.045   .     S
H575   N442    1.046   1_655 S
N583   H584    1.041   .     S
N583   H585    1.046   .     S
N586   H588    1.046   .     S
N586   H587    1.046   .     S
C595   C615    1.463   .     S
C595   O631    1.296   .     A
C595   O629    1.296   .     A
C596   C616    1.463   .     S
C596   O630    1.296   .     A
C596   O632    1.296   .     A
C597   C599    1.411   .     A
C597   C605    1.418   .     A
C597   N649    1.435   .     S
C598   C600    1.415   .     A
C598   C606    1.413   .     A
C598   N652    1.433   .     S
C599   F655    1.353   .     S
C599   N627    1.373   .     A
C600   F656    1.354   .     S
C600   N628    1.369   .     A
C601   F657    1.353   .     S
C601   N627    1.372   .     A
C601   C603    1.408   .     A
C602   N628    1.369   .     A
C602   F658    1.353   .     S
C602   C604    1.406   .     A
C603   C605    1.408   .     A
C603   F659    1.358   .     S
C604   F660    1.357   .     S
C604   C606    1.408   .     A
C606   C209    1.516   1_556 S
C607   O635    1.293   .     A
C607   C609    1.441   .     S
C607   O633    1.285   .     A
C608   C610    1.441   .     S
C608   O636    1.294   .     A
C608   O634    1.285   .     A
C609   C742    1.356   1_455 S
C609   N769    1.440   1_455 S
C610   C675    1.356   .     S
C610   N706    1.440   .     S
C611   C613    1.391   .     A
C611   C621    1.402   .     A
C611   F643    1.358   .     S
C612   C622    1.402   .     A
C612   F644    1.358   .     S
C612   C614    1.391   .     A
C613   F645    1.358   .     S
C613   C615    1.407   .     A
C614   F646    1.358   .     S
C614   C616    1.407   .     A
C615   C617    1.406   .     A
C616   C618    1.407   .     A
C617   F647    1.358   .     S
C617   C619    1.390   .     A
C618   C620    1.390   .     A
C618   F648    1.358   .     S
C619   C621    1.399   .     A
C619   H625    1.084   .     S
C620   C622    1.399   .     A
C620   H626    1.084   .     S
C622   C423    1.463   1_565 S
Cu623  O632    1.955   .     S
Cu623  Cu624   2.685   .     S
Cu623  O636    1.975   .     S
Cu623  O629    1.956   .     S
Cu623  O633    1.975   .     S
Cu623  N628    2.017   .     S
Cu624  O635    1.975   .     S
Cu624  O630    1.956   .     S
Cu624  O631    1.955   .     S
Cu624  O634    1.975   .     S
Cu624  N627    2.017   .     S
N637   H639    1.046   .     S
N637   C675    1.440   .     S
N637   H704    1.046   .     S
H638   N769    1.046   1_455 S
N640   H642    1.045   .     S
N640   C742    1.440   1_455 S
N640   H773    1.046   1_455 S
H641   N706    1.046   .     S
N649   H650    1.041   .     S
N649   H651    1.046   .     S
N652   H654    1.046   .     S
N652   H653    1.046   .     S
C661   C681    1.463   .     S
C661   O697    1.296   .     A
C661   O695    1.296   .     A
C662   C682    1.463   .     S
C662   O696    1.296   .     A
C662   O698    1.296   .     A
C663   C665    1.411   .     A
C663   C671    1.418   .     A
C663   N715    1.435   .     S
C664   C666    1.415   .     A
C664   C672    1.413   .     A
C664   N718    1.433   .     S
C665   F721    1.353   .     S
C665   N693    1.373   .     A
C666   F722    1.354   .     S
C666   N694    1.369   .     A
C667   F723    1.353   .     S
C667   N693    1.372   .     A
C667   C669    1.408   .     A
C668   N694    1.369   .     A
C668   F724    1.353   .     S
C668   C670    1.406   .     A
C669   C671    1.408   .     A
C669   F725    1.358   .     S
C670   F726    1.357   .     S
C670   C672    1.408   .     A
C672   C275    1.516   1_556 S
C673   O701    1.293   .     A
C673   C675    1.441   .     S
C673   O699    1.285   .     A
C674   C676    1.441   .     S
C674   O702    1.294   .     A
C674   O700    1.285   .     A
C676   C741    1.356   .     S
C676   N772    1.440   .     S
C677   C679    1.391   .     A
C677   C687    1.402   .     A
C677   F709    1.358   .     S
C678   C688    1.402   .     A
C678   F710    1.358   .     S
C678   C680    1.391   .     A
C679   F711    1.358   .     S
C679   C681    1.407   .     A
C680   F712    1.358   .     S
C680   C682    1.407   .     A
C681   C683    1.406   .     A
C682   C684    1.407   .     A
C683   F713    1.358   .     S
C683   C685    1.390   .     A
C684   C686    1.390   .     A
C684   F714    1.358   .     S
C685   C687    1.399   .     A
C685   H691    1.084   .     S
C686   C688    1.399   .     A
C686   H692    1.084   .     S
C688   C489    1.463   1_565 S
Cu689  O698    1.955   .     S
Cu689  Cu690   2.685   .     S
Cu689  O702    1.975   .     S
Cu689  O695    1.956   .     S
Cu689  O699    1.975   .     S
Cu689  N694    2.017   .     S
Cu690  O701    1.975   .     S
Cu690  O696    1.956   .     S
Cu690  O697    1.955   .     S
Cu690  O700    1.975   .     S
Cu690  N693    2.017   .     S
N703   H705    1.046   .     S
N703   C741    1.440   .     S
N703   H770    1.046   .     S
N706   H708    1.045   .     S
H707   N772    1.046   .     S
N715   H716    1.041   .     S
N715   H717    1.046   .     S
N718   H720    1.046   .     S
N718   H719    1.046   .     S
C727   C747    1.463   .     S
C727   O763    1.296   .     A
C727   O761    1.296   .     A
C728   C748    1.463   .     S
C728   O762    1.296   .     A
C728   O764    1.296   .     A
C729   C731    1.411   .     A
C729   C737    1.418   .     A
C729   N781    1.435   .     S
C730   C732    1.415   .     A
C730   C738    1.413   .     A
C730   N784    1.433   .     S
C731   F787    1.353   .     S
C731   N759    1.373   .     A
C732   F788    1.354   .     S
C732   N760    1.369   .     A
C733   F789    1.353   .     S
C733   N759    1.372   .     A
C733   C735    1.408   .     A
C734   N760    1.369   .     A
C734   F790    1.353   .     S
C734   C736    1.406   .     A
C735   C737    1.408   .     A
C735   F791    1.358   .     S
C736   F792    1.357   .     S
C736   C738    1.408   .     A
C738   C341    1.516   1_556 S
C739   O767    1.293   .     A
C739   C741    1.441   .     S
C739   O765    1.285   .     A
C740   C742    1.441   .     S
C740   O768    1.294   .     A
C740   O766    1.285   .     A
C742   C609    1.356   1_655 S
C742   N640    1.440   1_655 S
C743   C745    1.391   .     A
C743   C753    1.402   .     A
C743   F775    1.358   .     S
C744   C754    1.402   .     A
C744   F776    1.358   .     S
C744   C746    1.391   .     A
C745   F777    1.358   .     S
C745   C747    1.407   .     A
C746   F778    1.358   .     S
C746   C748    1.407   .     A
C747   C749    1.406   .     A
C748   C750    1.407   .     A
C749   F779    1.358   .     S
C749   C751    1.390   .     A
C750   C752    1.390   .     A
C750   F780    1.358   .     S
C751   C753    1.399   .     A
C751   H757    1.084   .     S
C752   C754    1.399   .     A
C752   H758    1.084   .     S
C754   C555    1.463   1_565 S
Cu755  O764    1.955   .     S
Cu755  Cu756   2.685   .     S
Cu755  O768    1.975   .     S
Cu755  O761    1.956   .     S
Cu755  O765    1.975   .     S
Cu755  N760    2.017   .     S
Cu756  O767    1.975   .     S
Cu756  O762    1.956   .     S
Cu756  O763    1.955   .     S
Cu756  O766    1.975   .     S
Cu756  N759    2.017   .     S
N769   H771    1.046   .     S
N769   C609    1.440   1_655 S
N769   H638    1.046   1_655 S
N772   H774    1.045   .     S
H773   N640    1.046   1_655 S
N781   H782    1.041   .     S
N781   H783    1.046   .     S
N784   H786    1.046   .     S
N784   H785    1.046   .     S
