data_str_m2_o1_o10_pcu_sym.6
_audit_creation_date              2020-01-03
_audit_creation_method            'Materials Studio'
_symmetry_space_group_name_H-M    'P1'
_symmetry_Int_Tables_number       1
_symmetry_cell_setting            triclinic
loop_
_symmetry_equiv_pos_as_xyz
  x,y,z
_cell_length_a                    26.1384
_cell_length_b                    32.4014
_cell_length_c                    28.9088
_cell_angle_alpha                 89.2252
_cell_angle_beta                  97.7737
_cell_angle_gamma                 92.4807
loop_
_atom_site_label
_atom_site_type_symbol
_atom_site_fract_x
_atom_site_fract_y
_atom_site_fract_z
_atom_site_U_iso_or_equiv
_atom_site_adp_type
_atom_site_occupancy
O1     O     0.16666   0.10655   0.20625   0.00000  Uiso   1.00
O2     O     0.16667   0.22678   0.12709   0.00000  Uiso   1.00
O3     O     0.16666   0.10654   0.12706   0.00000  Uiso   1.00
O4     O     0.16667   0.22679   0.20628   0.00000  Uiso   1.00
C5     C     0.16810   0.08759   0.16705   0.00000  Uiso   1.00
C6     C     0.16523   0.24574   0.16628   0.00000  Uiso   1.00
O7     O     0.09161   0.16667   0.19712   0.00000  Uiso   1.00
O8     O     0.24172   0.16666   0.13621   0.00000  Uiso   1.00
O9     O     0.09161   0.16666   0.11793   0.00000  Uiso   1.00
O10    O     0.24172   0.16667   0.21540   0.00000  Uiso   1.00
C11    C     0.06806   0.16632   0.15469   0.00000  Uiso   1.00
C12    C     0.26528   0.16701   0.17864   0.00000  Uiso   1.00
Cu13   Cu    0.16667   0.16667   0.21355   0.00000  Uiso   1.00
Cu14   Cu    0.16667   0.16666   0.11978   0.00000  Uiso   1.00
N15    N     0.16668   0.16668   0.28403   0.00000  Uiso   1.00
N16    N     0.16665   0.16666   0.04931   0.00000  Uiso   1.00
C17    C     0.01267   0.16538   0.14824   0.00000  Uiso   1.00
C18    C     0.32066   0.16796   0.18510   0.00000  Uiso   1.00
H19    H     0.32601   0.16213   0.11295   0.00000  Uiso   1.00
H20    H     0.00733   0.17120   0.22038   0.00000  Uiso   1.00
C21    C     0.19697   0.02203   0.13689   0.00000  Uiso   1.00
C22    C     0.13636   0.31130   0.19644   0.00000  Uiso   1.00
C23    C     0.19296   0.31247   0.13583   0.00000  Uiso   1.00
C24    C     0.14037   0.02087   0.19751   0.00000  Uiso   1.00
H25    H     0.21483   0.29624   0.11311   0.00000  Uiso   1.00
H26    H     0.11850   0.03709   0.22022   0.00000  Uiso   1.00
C27    C     0.16367   0.29039   0.16566   0.00000  Uiso   1.00
C28    C     0.16966   0.04294   0.16767   0.00000  Uiso   1.00
C29    C     0.13088   0.14305   0.02104   0.00000  Uiso   1.00
C30    C     0.20245   0.19029   0.31230   0.00000  Uiso   1.00
C31    C     0.13022   0.14343   0.30476   0.00000  Uiso   1.00
C32    C     0.20311   0.18990   0.02858   0.00000  Uiso   1.00
N33    N     0.23066   0.04353   0.10836   0.00000  Uiso   1.00
O34    O     0.26231   0.07313   0.12596   0.00000  Uiso   1.00
O35    O     0.23550   0.02952   0.06727   0.00000  Uiso   1.00
N36    N     0.10268   0.28980   0.22498   0.00000  Uiso   1.00
O37    O     0.07102   0.26021   0.20738   0.00000  Uiso   1.00
O38    O     0.09783   0.30382   0.26607   0.00000  Uiso   1.00
N39    N     0.09629   0.11519   0.04171   0.00000  Uiso   1.00
O40    O     0.10694   0.07637   0.04602   0.00000  Uiso   1.00
O41    O     0.04923   0.12572   0.04404   0.00000  Uiso   1.00
N42    N     0.23704   0.21814   0.29162   0.00000  Uiso   1.00
O43    O     0.22639   0.25697   0.28732   0.00000  Uiso   1.00
O44    O     0.28410   0.20761   0.28929   0.00000  Uiso   1.00
C45    C     0.08916   0.11851   0.27589   0.00000  Uiso   1.00
H46    H     0.09691   0.10192   0.24598   0.00000  Uiso   1.00
O47    O     0.04485   0.11670   0.28491   0.00000  Uiso   1.00
C48    C     0.24417   0.21482   0.05744   0.00000  Uiso   1.00
H49    H     0.23642   0.23142   0.08735   0.00000  Uiso   1.00
O50    O     0.28849   0.21663   0.04842   0.00000  Uiso   1.00
O51    O     0.50000   0.10655   0.20625   0.00000  Uiso   1.00
O52    O     0.50000   0.22678   0.12709   0.00000  Uiso   1.00
O53    O     0.50000   0.10654   0.12706   0.00000  Uiso   1.00
O54    O     0.50000   0.22679   0.20628   0.00000  Uiso   1.00
C55    C     0.50143   0.08759   0.16705   0.00000  Uiso   1.00
C56    C     0.49857   0.24574   0.16628   0.00000  Uiso   1.00
O57    O     0.42495   0.16667   0.19712   0.00000  Uiso   1.00
O58    O     0.57505   0.16666   0.13621   0.00000  Uiso   1.00
O59    O     0.42494   0.16666   0.11793   0.00000  Uiso   1.00
O60    O     0.57506   0.16667   0.21540   0.00000  Uiso   1.00
C61    C     0.40139   0.16632   0.15469   0.00000  Uiso   1.00
C62    C     0.59861   0.16701   0.17864   0.00000  Uiso   1.00
Cu63   Cu    0.50000   0.16667   0.21355   0.00000  Uiso   1.00
Cu64   Cu    0.50000   0.16666   0.11978   0.00000  Uiso   1.00
N65    N     0.50001   0.16668   0.28403   0.00000  Uiso   1.00
N66    N     0.49999   0.16666   0.04931   0.00000  Uiso   1.00
C67    C     0.34601   0.16538   0.14824   0.00000  Uiso   1.00
C68    C     0.65399   0.16796   0.18510   0.00000  Uiso   1.00
H69    H     0.65934   0.16213   0.11295   0.00000  Uiso   1.00
H70    H     0.34066   0.17120   0.22038   0.00000  Uiso   1.00
C71    C     0.53030   0.02203   0.13689   0.00000  Uiso   1.00
C72    C     0.46970   0.31130   0.19644   0.00000  Uiso   1.00
C73    C     0.52630   0.31247   0.13583   0.00000  Uiso   1.00
C74    C     0.47370   0.02087   0.19751   0.00000  Uiso   1.00
H75    H     0.54816   0.29624   0.11311   0.00000  Uiso   1.00
H76    H     0.45184   0.03709   0.22022   0.00000  Uiso   1.00
C77    C     0.49700   0.29039   0.16566   0.00000  Uiso   1.00
C78    C     0.50299   0.04294   0.16767   0.00000  Uiso   1.00
C79    C     0.46421   0.14305   0.02104   0.00000  Uiso   1.00
C80    C     0.53579   0.19029   0.31230   0.00000  Uiso   1.00
C81    C     0.46356   0.14343   0.30476   0.00000  Uiso   1.00
C82    C     0.53644   0.18990   0.02858   0.00000  Uiso   1.00
N83    N     0.56399   0.04353   0.10836   0.00000  Uiso   1.00
O84    O     0.59564   0.07313   0.12596   0.00000  Uiso   1.00
O85    O     0.56883   0.02952   0.06727   0.00000  Uiso   1.00
N86    N     0.43601   0.28980   0.22498   0.00000  Uiso   1.00
O87    O     0.40436   0.26021   0.20738   0.00000  Uiso   1.00
O88    O     0.43117   0.30382   0.26607   0.00000  Uiso   1.00
N89    N     0.42962   0.11519   0.04171   0.00000  Uiso   1.00
O90    O     0.44027   0.07637   0.04602   0.00000  Uiso   1.00
O91    O     0.38257   0.12572   0.04404   0.00000  Uiso   1.00
N92    N     0.57038   0.21814   0.29162   0.00000  Uiso   1.00
O93    O     0.55973   0.25697   0.28732   0.00000  Uiso   1.00
O94    O     0.61743   0.20761   0.28929   0.00000  Uiso   1.00
C95    C     0.42250   0.11851   0.27589   0.00000  Uiso   1.00
H96    H     0.43025   0.10192   0.24598   0.00000  Uiso   1.00
O97    O     0.37818   0.11670   0.28491   0.00000  Uiso   1.00
C98    C     0.57750   0.21482   0.05744   0.00000  Uiso   1.00
H99    H     0.56975   0.23142   0.08735   0.00000  Uiso   1.00
O100   O     0.62182   0.21663   0.04842   0.00000  Uiso   1.00
O101   O     0.83333   0.10655   0.20625   0.00000  Uiso   1.00
O102   O     0.83334   0.22678   0.12709   0.00000  Uiso   1.00
O103   O     0.83333   0.10654   0.12706   0.00000  Uiso   1.00
O104   O     0.83334   0.22679   0.20628   0.00000  Uiso   1.00
C105   C     0.83476   0.08759   0.16705   0.00000  Uiso   1.00
C106   C     0.83190   0.24574   0.16628   0.00000  Uiso   1.00
O107   O     0.75828   0.16667   0.19712   0.00000  Uiso   1.00
O108   O     0.90839   0.16666   0.13621   0.00000  Uiso   1.00
O109   O     0.75828   0.16666   0.11793   0.00000  Uiso   1.00
O110   O     0.90839   0.16667   0.21540   0.00000  Uiso   1.00
C111   C     0.73472   0.16632   0.15469   0.00000  Uiso   1.00
C112   C     0.93194   0.16701   0.17864   0.00000  Uiso   1.00
Cu113  Cu    0.83333   0.16667   0.21355   0.00000  Uiso   1.00
Cu114  Cu    0.83333   0.16666   0.11978   0.00000  Uiso   1.00
N115   N     0.83335   0.16668   0.28403   0.00000  Uiso   1.00
N116   N     0.83332   0.16666   0.04931   0.00000  Uiso   1.00
C117   C     0.67934   0.16538   0.14824   0.00000  Uiso   1.00
C118   C     0.98733   0.16796   0.18510   0.00000  Uiso   1.00
H119   H     0.99267   0.16213   0.11295   0.00000  Uiso   1.00
H120   H     0.67399   0.17120   0.22038   0.00000  Uiso   1.00
C121   C     0.86364   0.02203   0.13689   0.00000  Uiso   1.00
C122   C     0.80303   0.31130   0.19644   0.00000  Uiso   1.00
C123   C     0.85963   0.31247   0.13583   0.00000  Uiso   1.00
C124   C     0.80703   0.02087   0.19751   0.00000  Uiso   1.00
H125   H     0.88150   0.29624   0.11311   0.00000  Uiso   1.00
H126   H     0.78517   0.03709   0.22022   0.00000  Uiso   1.00
C127   C     0.83034   0.29039   0.16566   0.00000  Uiso   1.00
C128   C     0.83633   0.04294   0.16767   0.00000  Uiso   1.00
C129   C     0.79755   0.14305   0.02104   0.00000  Uiso   1.00
C130   C     0.86912   0.19029   0.31230   0.00000  Uiso   1.00
C131   C     0.79689   0.14343   0.30476   0.00000  Uiso   1.00
C132   C     0.86978   0.18990   0.02858   0.00000  Uiso   1.00
N133   N     0.89732   0.04353   0.10836   0.00000  Uiso   1.00
O134   O     0.92898   0.07313   0.12596   0.00000  Uiso   1.00
O135   O     0.90217   0.02952   0.06727   0.00000  Uiso   1.00
N136   N     0.76934   0.28980   0.22498   0.00000  Uiso   1.00
O137   O     0.73769   0.26021   0.20738   0.00000  Uiso   1.00
O138   O     0.76450   0.30382   0.26607   0.00000  Uiso   1.00
N139   N     0.76296   0.11519   0.04171   0.00000  Uiso   1.00
O140   O     0.77361   0.07637   0.04602   0.00000  Uiso   1.00
O141   O     0.71590   0.12572   0.04404   0.00000  Uiso   1.00
N142   N     0.90371   0.21814   0.29162   0.00000  Uiso   1.00
O143   O     0.89306   0.25697   0.28732   0.00000  Uiso   1.00
O144   O     0.95076   0.20761   0.28929   0.00000  Uiso   1.00
C145   C     0.75583   0.11851   0.27589   0.00000  Uiso   1.00
H146   H     0.76358   0.10192   0.24598   0.00000  Uiso   1.00
O147   O     0.71151   0.11670   0.28491   0.00000  Uiso   1.00
C148   C     0.91084   0.21482   0.05744   0.00000  Uiso   1.00
H149   H     0.90309   0.23142   0.08735   0.00000  Uiso   1.00
O150   O     0.95515   0.21663   0.04842   0.00000  Uiso   1.00
O151   O     0.16666   0.43989   0.20625   0.00000  Uiso   1.00
O152   O     0.16667   0.56011   0.12709   0.00000  Uiso   1.00
O153   O     0.16666   0.43988   0.12706   0.00000  Uiso   1.00
O154   O     0.16667   0.56012   0.20628   0.00000  Uiso   1.00
C155   C     0.16810   0.42092   0.16705   0.00000  Uiso   1.00
C156   C     0.16523   0.57908   0.16628   0.00000  Uiso   1.00
O157   O     0.09161   0.50000   0.19712   0.00000  Uiso   1.00
O158   O     0.24172   0.50000   0.13621   0.00000  Uiso   1.00
O159   O     0.09161   0.49999   0.11793   0.00000  Uiso   1.00
O160   O     0.24172   0.50001   0.21540   0.00000  Uiso   1.00
C161   C     0.06806   0.49966   0.15469   0.00000  Uiso   1.00
C162   C     0.26528   0.50034   0.17864   0.00000  Uiso   1.00
Cu163  Cu    0.16667   0.50001   0.21355   0.00000  Uiso   1.00
Cu164  Cu    0.16667   0.49999   0.11978   0.00000  Uiso   1.00
N165   N     0.16668   0.50001   0.28403   0.00000  Uiso   1.00
N166   N     0.16665   0.49999   0.04931   0.00000  Uiso   1.00
C167   C     0.01267   0.49871   0.14824   0.00000  Uiso   1.00
C168   C     0.32066   0.50129   0.18510   0.00000  Uiso   1.00
H169   H     0.32601   0.49547   0.11295   0.00000  Uiso   1.00
H170   H     0.00733   0.50453   0.22038   0.00000  Uiso   1.00
C171   C     0.19697   0.35536   0.13689   0.00000  Uiso   1.00
C172   C     0.13636   0.64464   0.19644   0.00000  Uiso   1.00
C173   C     0.19296   0.64580   0.13583   0.00000  Uiso   1.00
C174   C     0.14037   0.35420   0.19751   0.00000  Uiso   1.00
H175   H     0.21483   0.62958   0.11311   0.00000  Uiso   1.00
H176   H     0.11850   0.37042   0.22022   0.00000  Uiso   1.00
C177   C     0.16367   0.62373   0.16566   0.00000  Uiso   1.00
C178   C     0.16966   0.37627   0.16767   0.00000  Uiso   1.00
C179   C     0.13088   0.47638   0.02104   0.00000  Uiso   1.00
C180   C     0.20245   0.52362   0.31230   0.00000  Uiso   1.00
C181   C     0.13022   0.47677   0.30476   0.00000  Uiso   1.00
C182   C     0.20311   0.52323   0.02858   0.00000  Uiso   1.00
N183   N     0.23066   0.37687   0.10836   0.00000  Uiso   1.00
O184   O     0.26231   0.40646   0.12596   0.00000  Uiso   1.00
O185   O     0.23550   0.36285   0.06727   0.00000  Uiso   1.00
N186   N     0.10268   0.62313   0.22498   0.00000  Uiso   1.00
O187   O     0.07102   0.59354   0.20738   0.00000  Uiso   1.00
O188   O     0.09783   0.63715   0.26607   0.00000  Uiso   1.00
N189   N     0.09629   0.44852   0.04171   0.00000  Uiso   1.00
O190   O     0.10694   0.40970   0.04602   0.00000  Uiso   1.00
O191   O     0.04923   0.45905   0.04404   0.00000  Uiso   1.00
N192   N     0.23704   0.55148   0.29162   0.00000  Uiso   1.00
O193   O     0.22639   0.59030   0.28732   0.00000  Uiso   1.00
O194   O     0.28410   0.54095   0.28929   0.00000  Uiso   1.00
C195   C     0.08916   0.45185   0.27589   0.00000  Uiso   1.00
H196   H     0.09691   0.43525   0.24598   0.00000  Uiso   1.00
O197   O     0.04485   0.45003   0.28491   0.00000  Uiso   1.00
C198   C     0.24417   0.54815   0.05744   0.00000  Uiso   1.00
H199   H     0.23642   0.56475   0.08735   0.00000  Uiso   1.00
O200   O     0.28849   0.54997   0.04842   0.00000  Uiso   1.00
O201   O     0.50000   0.43989   0.20625   0.00000  Uiso   1.00
O202   O     0.50000   0.56011   0.12709   0.00000  Uiso   1.00
O203   O     0.50000   0.43988   0.12706   0.00000  Uiso   1.00
O204   O     0.50000   0.56012   0.20628   0.00000  Uiso   1.00
C205   C     0.50143   0.42092   0.16705   0.00000  Uiso   1.00
C206   C     0.49857   0.57908   0.16628   0.00000  Uiso   1.00
O207   O     0.42495   0.50000   0.19712   0.00000  Uiso   1.00
O208   O     0.57505   0.50000   0.13621   0.00000  Uiso   1.00
O209   O     0.42494   0.49999   0.11793   0.00000  Uiso   1.00
O210   O     0.57506   0.50001   0.21540   0.00000  Uiso   1.00
C211   C     0.40139   0.49966   0.15469   0.00000  Uiso   1.00
C212   C     0.59861   0.50034   0.17864   0.00000  Uiso   1.00
Cu213  Cu    0.50000   0.50001   0.21355   0.00000  Uiso   1.00
Cu214  Cu    0.50000   0.49999   0.11978   0.00000  Uiso   1.00
N215   N     0.50001   0.50001   0.28403   0.00000  Uiso   1.00
N216   N     0.49999   0.49999   0.04931   0.00000  Uiso   1.00
C217   C     0.34601   0.49871   0.14824   0.00000  Uiso   1.00
C218   C     0.65399   0.50129   0.18510   0.00000  Uiso   1.00
H219   H     0.65934   0.49547   0.11295   0.00000  Uiso   1.00
H220   H     0.34066   0.50453   0.22038   0.00000  Uiso   1.00
C221   C     0.53030   0.35536   0.13689   0.00000  Uiso   1.00
C222   C     0.46970   0.64464   0.19644   0.00000  Uiso   1.00
C223   C     0.52630   0.64580   0.13583   0.00000  Uiso   1.00
C224   C     0.47370   0.35420   0.19751   0.00000  Uiso   1.00
H225   H     0.54816   0.62958   0.11311   0.00000  Uiso   1.00
H226   H     0.45184   0.37042   0.22022   0.00000  Uiso   1.00
C227   C     0.49700   0.62373   0.16566   0.00000  Uiso   1.00
C228   C     0.50299   0.37627   0.16767   0.00000  Uiso   1.00
C229   C     0.46421   0.47638   0.02104   0.00000  Uiso   1.00
C230   C     0.53579   0.52362   0.31230   0.00000  Uiso   1.00
C231   C     0.46356   0.47677   0.30476   0.00000  Uiso   1.00
C232   C     0.53644   0.52323   0.02858   0.00000  Uiso   1.00
N233   N     0.56399   0.37687   0.10836   0.00000  Uiso   1.00
O234   O     0.59564   0.40646   0.12596   0.00000  Uiso   1.00
O235   O     0.56883   0.36285   0.06727   0.00000  Uiso   1.00
N236   N     0.43601   0.62313   0.22498   0.00000  Uiso   1.00
O237   O     0.40436   0.59354   0.20738   0.00000  Uiso   1.00
O238   O     0.43117   0.63715   0.26607   0.00000  Uiso   1.00
N239   N     0.42962   0.44852   0.04171   0.00000  Uiso   1.00
O240   O     0.44027   0.40970   0.04602   0.00000  Uiso   1.00
O241   O     0.38257   0.45905   0.04404   0.00000  Uiso   1.00
N242   N     0.57038   0.55148   0.29162   0.00000  Uiso   1.00
O243   O     0.55973   0.59030   0.28732   0.00000  Uiso   1.00
O244   O     0.61743   0.54095   0.28929   0.00000  Uiso   1.00
C245   C     0.42250   0.45185   0.27589   0.00000  Uiso   1.00
H246   H     0.43025   0.43525   0.24598   0.00000  Uiso   1.00
O247   O     0.37818   0.45003   0.28491   0.00000  Uiso   1.00
C248   C     0.57750   0.54815   0.05744   0.00000  Uiso   1.00
H249   H     0.56975   0.56475   0.08735   0.00000  Uiso   1.00
O250   O     0.62182   0.54997   0.04842   0.00000  Uiso   1.00
O251   O     0.83333   0.43989   0.20625   0.00000  Uiso   1.00
O252   O     0.83334   0.56011   0.12709   0.00000  Uiso   1.00
O253   O     0.83333   0.43988   0.12706   0.00000  Uiso   1.00
O254   O     0.83334   0.56012   0.20628   0.00000  Uiso   1.00
C255   C     0.83476   0.42092   0.16705   0.00000  Uiso   1.00
C256   C     0.83190   0.57908   0.16628   0.00000  Uiso   1.00
O257   O     0.75828   0.50000   0.19712   0.00000  Uiso   1.00
O258   O     0.90839   0.50000   0.13621   0.00000  Uiso   1.00
O259   O     0.75828   0.49999   0.11793   0.00000  Uiso   1.00
O260   O     0.90839   0.50001   0.21540   0.00000  Uiso   1.00
C261   C     0.73472   0.49966   0.15469   0.00000  Uiso   1.00
C262   C     0.93194   0.50034   0.17864   0.00000  Uiso   1.00
Cu263  Cu    0.83333   0.50001   0.21355   0.00000  Uiso   1.00
Cu264  Cu    0.83333   0.49999   0.11978   0.00000  Uiso   1.00
N265   N     0.83335   0.50001   0.28403   0.00000  Uiso   1.00
N266   N     0.83332   0.49999   0.04931   0.00000  Uiso   1.00
C267   C     0.67934   0.49871   0.14824   0.00000  Uiso   1.00
C268   C     0.98733   0.50129   0.18510   0.00000  Uiso   1.00
H269   H     0.99267   0.49547   0.11295   0.00000  Uiso   1.00
H270   H     0.67399   0.50453   0.22038   0.00000  Uiso   1.00
C271   C     0.86364   0.35536   0.13689   0.00000  Uiso   1.00
C272   C     0.80303   0.64464   0.19644   0.00000  Uiso   1.00
C273   C     0.85963   0.64580   0.13583   0.00000  Uiso   1.00
C274   C     0.80703   0.35420   0.19751   0.00000  Uiso   1.00
H275   H     0.88150   0.62958   0.11311   0.00000  Uiso   1.00
H276   H     0.78517   0.37042   0.22022   0.00000  Uiso   1.00
C277   C     0.83034   0.62373   0.16566   0.00000  Uiso   1.00
C278   C     0.83633   0.37627   0.16767   0.00000  Uiso   1.00
C279   C     0.79755   0.47638   0.02104   0.00000  Uiso   1.00
C280   C     0.86912   0.52362   0.31230   0.00000  Uiso   1.00
C281   C     0.79689   0.47677   0.30476   0.00000  Uiso   1.00
C282   C     0.86978   0.52323   0.02858   0.00000  Uiso   1.00
N283   N     0.89732   0.37687   0.10836   0.00000  Uiso   1.00
O284   O     0.92898   0.40646   0.12596   0.00000  Uiso   1.00
O285   O     0.90217   0.36285   0.06727   0.00000  Uiso   1.00
N286   N     0.76934   0.62313   0.22498   0.00000  Uiso   1.00
O287   O     0.73769   0.59354   0.20738   0.00000  Uiso   1.00
O288   O     0.76450   0.63715   0.26607   0.00000  Uiso   1.00
N289   N     0.76296   0.44852   0.04171   0.00000  Uiso   1.00
O290   O     0.77361   0.40970   0.04602   0.00000  Uiso   1.00
O291   O     0.71590   0.45905   0.04404   0.00000  Uiso   1.00
N292   N     0.90371   0.55148   0.29162   0.00000  Uiso   1.00
O293   O     0.89306   0.59030   0.28732   0.00000  Uiso   1.00
O294   O     0.95076   0.54095   0.28929   0.00000  Uiso   1.00
C295   C     0.75583   0.45185   0.27589   0.00000  Uiso   1.00
H296   H     0.76358   0.43525   0.24598   0.00000  Uiso   1.00
O297   O     0.71151   0.45003   0.28491   0.00000  Uiso   1.00
C298   C     0.91084   0.54815   0.05744   0.00000  Uiso   1.00
H299   H     0.90309   0.56475   0.08735   0.00000  Uiso   1.00
O300   O     0.95515   0.54997   0.04842   0.00000  Uiso   1.00
O301   O     0.16666   0.77322   0.20625   0.00000  Uiso   1.00
O302   O     0.16667   0.89345   0.12709   0.00000  Uiso   1.00
O303   O     0.16666   0.77321   0.12706   0.00000  Uiso   1.00
O304   O     0.16667   0.89346   0.20628   0.00000  Uiso   1.00
C305   C     0.16810   0.75426   0.16705   0.00000  Uiso   1.00
C306   C     0.16523   0.91241   0.16628   0.00000  Uiso   1.00
O307   O     0.09161   0.83334   0.19712   0.00000  Uiso   1.00
O308   O     0.24172   0.83333   0.13621   0.00000  Uiso   1.00
O309   O     0.09161   0.83333   0.11793   0.00000  Uiso   1.00
O310   O     0.24172   0.83334   0.21540   0.00000  Uiso   1.00
C311   C     0.06806   0.83299   0.15469   0.00000  Uiso   1.00
C312   C     0.26528   0.83368   0.17864   0.00000  Uiso   1.00
Cu313  Cu    0.16667   0.83334   0.21355   0.00000  Uiso   1.00
Cu314  Cu    0.16667   0.83333   0.11978   0.00000  Uiso   1.00
N315   N     0.16668   0.83334   0.28403   0.00000  Uiso   1.00
N316   N     0.16665   0.83332   0.04931   0.00000  Uiso   1.00
C317   C     0.01267   0.83204   0.14824   0.00000  Uiso   1.00
C318   C     0.32066   0.83462   0.18510   0.00000  Uiso   1.00
H319   H     0.32601   0.82880   0.11295   0.00000  Uiso   1.00
H320   H     0.00733   0.83787   0.22038   0.00000  Uiso   1.00
C321   C     0.19697   0.68870   0.13689   0.00000  Uiso   1.00
C322   C     0.13636   0.97797   0.19644   0.00000  Uiso   1.00
C323   C     0.19296   0.97913   0.13583   0.00000  Uiso   1.00
C324   C     0.14037   0.68753   0.19751   0.00000  Uiso   1.00
H325   H     0.21483   0.96291   0.11311   0.00000  Uiso   1.00
H326   H     0.11850   0.70376   0.22022   0.00000  Uiso   1.00
C327   C     0.16367   0.95706   0.16566   0.00000  Uiso   1.00
C328   C     0.16966   0.70961   0.16767   0.00000  Uiso   1.00
C329   C     0.13088   0.80972   0.02104   0.00000  Uiso   1.00
C330   C     0.20245   0.85695   0.31230   0.00000  Uiso   1.00
C331   C     0.13022   0.81010   0.30476   0.00000  Uiso   1.00
C332   C     0.20311   0.85657   0.02858   0.00000  Uiso   1.00
N333   N     0.23066   0.71020   0.10836   0.00000  Uiso   1.00
O334   O     0.26231   0.73979   0.12596   0.00000  Uiso   1.00
O335   O     0.23550   0.69618   0.06727   0.00000  Uiso   1.00
N336   N     0.10268   0.95647   0.22498   0.00000  Uiso   1.00
O337   O     0.07102   0.92687   0.20738   0.00000  Uiso   1.00
O338   O     0.09783   0.97048   0.26607   0.00000  Uiso   1.00
N339   N     0.09629   0.78186   0.04171   0.00000  Uiso   1.00
O340   O     0.10694   0.74303   0.04602   0.00000  Uiso   1.00
O341   O     0.04923   0.79239   0.04404   0.00000  Uiso   1.00
N342   N     0.23704   0.88481   0.29162   0.00000  Uiso   1.00
O343   O     0.22639   0.92363   0.28732   0.00000  Uiso   1.00
O344   O     0.28410   0.87428   0.28929   0.00000  Uiso   1.00
C345   C     0.08916   0.78518   0.27589   0.00000  Uiso   1.00
H346   H     0.09691   0.76858   0.24598   0.00000  Uiso   1.00
O347   O     0.04485   0.78337   0.28491   0.00000  Uiso   1.00
C348   C     0.24417   0.88149   0.05744   0.00000  Uiso   1.00
H349   H     0.23642   0.89808   0.08735   0.00000  Uiso   1.00
O350   O     0.28849   0.88330   0.04842   0.00000  Uiso   1.00
O351   O     0.50000   0.77322   0.20625   0.00000  Uiso   1.00
O352   O     0.50000   0.89345   0.12709   0.00000  Uiso   1.00
O353   O     0.50000   0.77321   0.12706   0.00000  Uiso   1.00
O354   O     0.50000   0.89346   0.20628   0.00000  Uiso   1.00
C355   C     0.50143   0.75426   0.16705   0.00000  Uiso   1.00
C356   C     0.49857   0.91241   0.16628   0.00000  Uiso   1.00
O357   O     0.42495   0.83334   0.19712   0.00000  Uiso   1.00
O358   O     0.57505   0.83333   0.13621   0.00000  Uiso   1.00
O359   O     0.42494   0.83333   0.11793   0.00000  Uiso   1.00
O360   O     0.57506   0.83334   0.21540   0.00000  Uiso   1.00
C361   C     0.40139   0.83299   0.15469   0.00000  Uiso   1.00
C362   C     0.59861   0.83368   0.17864   0.00000  Uiso   1.00
Cu363  Cu    0.50000   0.83334   0.21355   0.00000  Uiso   1.00
Cu364  Cu    0.50000   0.83333   0.11978   0.00000  Uiso   1.00
N365   N     0.50001   0.83334   0.28403   0.00000  Uiso   1.00
N366   N     0.49999   0.83332   0.04931   0.00000  Uiso   1.00
C367   C     0.34601   0.83204   0.14824   0.00000  Uiso   1.00
C368   C     0.65399   0.83462   0.18510   0.00000  Uiso   1.00
H369   H     0.65934   0.82880   0.11295   0.00000  Uiso   1.00
H370   H     0.34066   0.83787   0.22038   0.00000  Uiso   1.00
C371   C     0.53030   0.68870   0.13689   0.00000  Uiso   1.00
C372   C     0.46970   0.97797   0.19644   0.00000  Uiso   1.00
C373   C     0.52630   0.97913   0.13583   0.00000  Uiso   1.00
C374   C     0.47370   0.68753   0.19751   0.00000  Uiso   1.00
H375   H     0.54816   0.96291   0.11311   0.00000  Uiso   1.00
H376   H     0.45184   0.70376   0.22022   0.00000  Uiso   1.00
C377   C     0.49700   0.95706   0.16566   0.00000  Uiso   1.00
C378   C     0.50299   0.70961   0.16767   0.00000  Uiso   1.00
C379   C     0.46421   0.80972   0.02104   0.00000  Uiso   1.00
C380   C     0.53579   0.85695   0.31230   0.00000  Uiso   1.00
C381   C     0.46356   0.81010   0.30476   0.00000  Uiso   1.00
C382   C     0.53644   0.85657   0.02858   0.00000  Uiso   1.00
N383   N     0.56399   0.71020   0.10836   0.00000  Uiso   1.00
O384   O     0.59564   0.73979   0.12596   0.00000  Uiso   1.00
O385   O     0.56883   0.69618   0.06727   0.00000  Uiso   1.00
N386   N     0.43601   0.95647   0.22498   0.00000  Uiso   1.00
O387   O     0.40436   0.92687   0.20738   0.00000  Uiso   1.00
O388   O     0.43117   0.97048   0.26607   0.00000  Uiso   1.00
N389   N     0.42962   0.78186   0.04171   0.00000  Uiso   1.00
O390   O     0.44027   0.74303   0.04602   0.00000  Uiso   1.00
O391   O     0.38257   0.79239   0.04404   0.00000  Uiso   1.00
N392   N     0.57038   0.88481   0.29162   0.00000  Uiso   1.00
O393   O     0.55973   0.92363   0.28732   0.00000  Uiso   1.00
O394   O     0.61743   0.87428   0.28929   0.00000  Uiso   1.00
C395   C     0.42250   0.78518   0.27589   0.00000  Uiso   1.00
H396   H     0.43025   0.76858   0.24598   0.00000  Uiso   1.00
O397   O     0.37818   0.78337   0.28491   0.00000  Uiso   1.00
C398   C     0.57750   0.88149   0.05744   0.00000  Uiso   1.00
H399   H     0.56975   0.89808   0.08735   0.00000  Uiso   1.00
O400   O     0.62182   0.88330   0.04842   0.00000  Uiso   1.00
O401   O     0.83333   0.77322   0.20625   0.00000  Uiso   1.00
O402   O     0.83334   0.89345   0.12709   0.00000  Uiso   1.00
O403   O     0.83333   0.77321   0.12706   0.00000  Uiso   1.00
O404   O     0.83334   0.89346   0.20628   0.00000  Uiso   1.00
C405   C     0.83476   0.75426   0.16705   0.00000  Uiso   1.00
C406   C     0.83190   0.91241   0.16628   0.00000  Uiso   1.00
O407   O     0.75828   0.83334   0.19712   0.00000  Uiso   1.00
O408   O     0.90839   0.83333   0.13621   0.00000  Uiso   1.00
O409   O     0.75828   0.83333   0.11793   0.00000  Uiso   1.00
O410   O     0.90839   0.83334   0.21540   0.00000  Uiso   1.00
C411   C     0.73472   0.83299   0.15469   0.00000  Uiso   1.00
C412   C     0.93194   0.83368   0.17864   0.00000  Uiso   1.00
Cu413  Cu    0.83333   0.83334   0.21355   0.00000  Uiso   1.00
Cu414  Cu    0.83333   0.83333   0.11978   0.00000  Uiso   1.00
N415   N     0.83335   0.83334   0.28403   0.00000  Uiso   1.00
N416   N     0.83332   0.83332   0.04931   0.00000  Uiso   1.00
C417   C     0.67934   0.83204   0.14824   0.00000  Uiso   1.00
C418   C     0.98733   0.83462   0.18510   0.00000  Uiso   1.00
H419   H     0.99267   0.82880   0.11295   0.00000  Uiso   1.00
H420   H     0.67399   0.83787   0.22038   0.00000  Uiso   1.00
C421   C     0.86364   0.68870   0.13689   0.00000  Uiso   1.00
C422   C     0.80303   0.97797   0.19644   0.00000  Uiso   1.00
C423   C     0.85963   0.97913   0.13583   0.00000  Uiso   1.00
C424   C     0.80703   0.68753   0.19751   0.00000  Uiso   1.00
H425   H     0.88150   0.96291   0.11311   0.00000  Uiso   1.00
H426   H     0.78517   0.70376   0.22022   0.00000  Uiso   1.00
C427   C     0.83034   0.95706   0.16566   0.00000  Uiso   1.00
C428   C     0.83633   0.70961   0.16767   0.00000  Uiso   1.00
C429   C     0.79755   0.80972   0.02104   0.00000  Uiso   1.00
C430   C     0.86912   0.85695   0.31230   0.00000  Uiso   1.00
C431   C     0.79689   0.81010   0.30476   0.00000  Uiso   1.00
C432   C     0.86978   0.85657   0.02858   0.00000  Uiso   1.00
N433   N     0.89732   0.71020   0.10836   0.00000  Uiso   1.00
O434   O     0.92898   0.73979   0.12596   0.00000  Uiso   1.00
O435   O     0.90217   0.69618   0.06727   0.00000  Uiso   1.00
N436   N     0.76934   0.95647   0.22498   0.00000  Uiso   1.00
O437   O     0.73769   0.92687   0.20738   0.00000  Uiso   1.00
O438   O     0.76450   0.97048   0.26607   0.00000  Uiso   1.00
N439   N     0.76296   0.78186   0.04171   0.00000  Uiso   1.00
O440   O     0.77361   0.74303   0.04602   0.00000  Uiso   1.00
O441   O     0.71590   0.79239   0.04404   0.00000  Uiso   1.00
N442   N     0.90371   0.88481   0.29162   0.00000  Uiso   1.00
O443   O     0.89306   0.92363   0.28732   0.00000  Uiso   1.00
O444   O     0.95076   0.87428   0.28929   0.00000  Uiso   1.00
C445   C     0.75583   0.78518   0.27589   0.00000  Uiso   1.00
H446   H     0.76358   0.76858   0.24598   0.00000  Uiso   1.00
O447   O     0.71151   0.78337   0.28491   0.00000  Uiso   1.00
C448   C     0.91084   0.88149   0.05744   0.00000  Uiso   1.00
H449   H     0.90309   0.89808   0.08735   0.00000  Uiso   1.00
O450   O     0.95515   0.88330   0.04842   0.00000  Uiso   1.00
O451   O     0.16666   0.10655   0.53958   0.00000  Uiso   1.00
O452   O     0.16667   0.22678   0.46042   0.00000  Uiso   1.00
O453   O     0.16666   0.10654   0.46039   0.00000  Uiso   1.00
O454   O     0.16667   0.22679   0.53961   0.00000  Uiso   1.00
C455   C     0.16810   0.08759   0.50039   0.00000  Uiso   1.00
C456   C     0.16523   0.24574   0.49961   0.00000  Uiso   1.00
O457   O     0.09161   0.16667   0.53046   0.00000  Uiso   1.00
O458   O     0.24172   0.16666   0.46954   0.00000  Uiso   1.00
O459   O     0.09161   0.16666   0.45127   0.00000  Uiso   1.00
O460   O     0.24172   0.16667   0.54873   0.00000  Uiso   1.00
C461   C     0.06806   0.16632   0.48802   0.00000  Uiso   1.00
C462   C     0.26528   0.16701   0.51197   0.00000  Uiso   1.00
Cu463  Cu    0.16667   0.16667   0.54689   0.00000  Uiso   1.00
Cu464  Cu    0.16667   0.16666   0.45311   0.00000  Uiso   1.00
N465   N     0.16668   0.16668   0.61736   0.00000  Uiso   1.00
N466   N     0.16665   0.16666   0.38264   0.00000  Uiso   1.00
C467   C     0.01267   0.16538   0.48157   0.00000  Uiso   1.00
C468   C     0.32066   0.16796   0.51843   0.00000  Uiso   1.00
H469   H     0.32601   0.16213   0.44628   0.00000  Uiso   1.00
H470   H     0.00733   0.17120   0.55372   0.00000  Uiso   1.00
C471   C     0.19697   0.02203   0.47023   0.00000  Uiso   1.00
C472   C     0.13636   0.31130   0.52977   0.00000  Uiso   1.00
C473   C     0.19296   0.31247   0.46916   0.00000  Uiso   1.00
C474   C     0.14037   0.02087   0.53084   0.00000  Uiso   1.00
H475   H     0.21483   0.29624   0.44644   0.00000  Uiso   1.00
H476   H     0.11850   0.03709   0.55356   0.00000  Uiso   1.00
C477   C     0.16367   0.29039   0.49899   0.00000  Uiso   1.00
C478   C     0.16966   0.04294   0.50101   0.00000  Uiso   1.00
C479   C     0.13088   0.14305   0.35437   0.00000  Uiso   1.00
C480   C     0.20245   0.19029   0.64563   0.00000  Uiso   1.00
C481   C     0.13022   0.14343   0.63809   0.00000  Uiso   1.00
C482   C     0.20311   0.18990   0.36191   0.00000  Uiso   1.00
N483   N     0.23066   0.04353   0.44169   0.00000  Uiso   1.00
O484   O     0.26231   0.07313   0.45929   0.00000  Uiso   1.00
O485   O     0.23550   0.02952   0.40060   0.00000  Uiso   1.00
N486   N     0.10268   0.28980   0.55831   0.00000  Uiso   1.00
O487   O     0.07102   0.26021   0.54071   0.00000  Uiso   1.00
O488   O     0.09783   0.30382   0.59940   0.00000  Uiso   1.00
N489   N     0.09629   0.11519   0.37505   0.00000  Uiso   1.00
O490   O     0.10694   0.07637   0.37935   0.00000  Uiso   1.00
O491   O     0.04923   0.12572   0.37738   0.00000  Uiso   1.00
N492   N     0.23704   0.21814   0.62495   0.00000  Uiso   1.00
O493   O     0.22639   0.25697   0.62065   0.00000  Uiso   1.00
O494   O     0.28410   0.20761   0.62262   0.00000  Uiso   1.00
C495   C     0.08916   0.11851   0.60923   0.00000  Uiso   1.00
H496   H     0.09691   0.10192   0.57931   0.00000  Uiso   1.00
O497   O     0.04485   0.11670   0.61825   0.00000  Uiso   1.00
C498   C     0.24417   0.21482   0.39077   0.00000  Uiso   1.00
H499   H     0.23642   0.23142   0.42069   0.00000  Uiso   1.00
O500   O     0.28849   0.21663   0.38175   0.00000  Uiso   1.00
O501   O     0.50000   0.10655   0.53958   0.00000  Uiso   1.00
O502   O     0.50000   0.22678   0.46042   0.00000  Uiso   1.00
O503   O     0.50000   0.10654   0.46039   0.00000  Uiso   1.00
O504   O     0.50000   0.22679   0.53961   0.00000  Uiso   1.00
C505   C     0.50143   0.08759   0.50039   0.00000  Uiso   1.00
C506   C     0.49857   0.24574   0.49961   0.00000  Uiso   1.00
O507   O     0.42495   0.16667   0.53046   0.00000  Uiso   1.00
O508   O     0.57505   0.16666   0.46954   0.00000  Uiso   1.00
O509   O     0.42494   0.16666   0.45127   0.00000  Uiso   1.00
O510   O     0.57506   0.16667   0.54873   0.00000  Uiso   1.00
C511   C     0.40139   0.16632   0.48802   0.00000  Uiso   1.00
C512   C     0.59861   0.16701   0.51197   0.00000  Uiso   1.00
Cu513  Cu    0.50000   0.16667   0.54689   0.00000  Uiso   1.00
Cu514  Cu    0.50000   0.16666   0.45311   0.00000  Uiso   1.00
N515   N     0.50001   0.16668   0.61736   0.00000  Uiso   1.00
N516   N     0.49999   0.16666   0.38264   0.00000  Uiso   1.00
C517   C     0.34601   0.16538   0.48157   0.00000  Uiso   1.00
C518   C     0.65399   0.16796   0.51843   0.00000  Uiso   1.00
H519   H     0.65934   0.16213   0.44628   0.00000  Uiso   1.00
H520   H     0.34066   0.17120   0.55372   0.00000  Uiso   1.00
C521   C     0.53030   0.02203   0.47023   0.00000  Uiso   1.00
C522   C     0.46970   0.31130   0.52977   0.00000  Uiso   1.00
C523   C     0.52630   0.31247   0.46916   0.00000  Uiso   1.00
C524   C     0.47370   0.02087   0.53084   0.00000  Uiso   1.00
H525   H     0.54816   0.29624   0.44644   0.00000  Uiso   1.00
H526   H     0.45184   0.03709   0.55356   0.00000  Uiso   1.00
C527   C     0.49700   0.29039   0.49899   0.00000  Uiso   1.00
C528   C     0.50299   0.04294   0.50101   0.00000  Uiso   1.00
C529   C     0.46421   0.14305   0.35437   0.00000  Uiso   1.00
C530   C     0.53579   0.19029   0.64563   0.00000  Uiso   1.00
C531   C     0.46356   0.14343   0.63809   0.00000  Uiso   1.00
C532   C     0.53644   0.18990   0.36191   0.00000  Uiso   1.00
N533   N     0.56399   0.04353   0.44169   0.00000  Uiso   1.00
O534   O     0.59564   0.07313   0.45929   0.00000  Uiso   1.00
O535   O     0.56883   0.02952   0.40060   0.00000  Uiso   1.00
N536   N     0.43601   0.28980   0.55831   0.00000  Uiso   1.00
O537   O     0.40436   0.26021   0.54071   0.00000  Uiso   1.00
O538   O     0.43117   0.30382   0.59940   0.00000  Uiso   1.00
N539   N     0.42962   0.11519   0.37505   0.00000  Uiso   1.00
O540   O     0.44027   0.07637   0.37935   0.00000  Uiso   1.00
O541   O     0.38257   0.12572   0.37738   0.00000  Uiso   1.00
N542   N     0.57038   0.21814   0.62495   0.00000  Uiso   1.00
O543   O     0.55973   0.25697   0.62065   0.00000  Uiso   1.00
O544   O     0.61743   0.20761   0.62262   0.00000  Uiso   1.00
C545   C     0.42250   0.11851   0.60923   0.00000  Uiso   1.00
H546   H     0.43025   0.10192   0.57931   0.00000  Uiso   1.00
O547   O     0.37818   0.11670   0.61825   0.00000  Uiso   1.00
C548   C     0.57750   0.21482   0.39077   0.00000  Uiso   1.00
H549   H     0.56975   0.23142   0.42069   0.00000  Uiso   1.00
O550   O     0.62182   0.21663   0.38175   0.00000  Uiso   1.00
O551   O     0.83333   0.10655   0.53958   0.00000  Uiso   1.00
O552   O     0.83334   0.22678   0.46042   0.00000  Uiso   1.00
O553   O     0.83333   0.10654   0.46039   0.00000  Uiso   1.00
O554   O     0.83334   0.22679   0.53961   0.00000  Uiso   1.00
C555   C     0.83476   0.08759   0.50039   0.00000  Uiso   1.00
C556   C     0.83190   0.24574   0.49961   0.00000  Uiso   1.00
O557   O     0.75828   0.16667   0.53046   0.00000  Uiso   1.00
O558   O     0.90839   0.16666   0.46954   0.00000  Uiso   1.00
O559   O     0.75828   0.16666   0.45127   0.00000  Uiso   1.00
O560   O     0.90839   0.16667   0.54873   0.00000  Uiso   1.00
C561   C     0.73472   0.16632   0.48802   0.00000  Uiso   1.00
C562   C     0.93194   0.16701   0.51197   0.00000  Uiso   1.00
Cu563  Cu    0.83333   0.16667   0.54689   0.00000  Uiso   1.00
Cu564  Cu    0.83333   0.16666   0.45311   0.00000  Uiso   1.00
N565   N     0.83335   0.16668   0.61736   0.00000  Uiso   1.00
N566   N     0.83332   0.16666   0.38264   0.00000  Uiso   1.00
C567   C     0.67934   0.16538   0.48157   0.00000  Uiso   1.00
C568   C     0.98733   0.16796   0.51843   0.00000  Uiso   1.00
H569   H     0.99267   0.16213   0.44628   0.00000  Uiso   1.00
H570   H     0.67399   0.17120   0.55372   0.00000  Uiso   1.00
C571   C     0.86364   0.02203   0.47023   0.00000  Uiso   1.00
C572   C     0.80303   0.31130   0.52977   0.00000  Uiso   1.00
C573   C     0.85963   0.31247   0.46916   0.00000  Uiso   1.00
C574   C     0.80703   0.02087   0.53084   0.00000  Uiso   1.00
H575   H     0.88150   0.29624   0.44644   0.00000  Uiso   1.00
H576   H     0.78517   0.03709   0.55356   0.00000  Uiso   1.00
C577   C     0.83034   0.29039   0.49899   0.00000  Uiso   1.00
C578   C     0.83633   0.04294   0.50101   0.00000  Uiso   1.00
C579   C     0.79755   0.14305   0.35437   0.00000  Uiso   1.00
C580   C     0.86912   0.19029   0.64563   0.00000  Uiso   1.00
C581   C     0.79689   0.14343   0.63809   0.00000  Uiso   1.00
C582   C     0.86978   0.18990   0.36191   0.00000  Uiso   1.00
N583   N     0.89732   0.04353   0.44169   0.00000  Uiso   1.00
O584   O     0.92898   0.07313   0.45929   0.00000  Uiso   1.00
O585   O     0.90217   0.02952   0.40060   0.00000  Uiso   1.00
N586   N     0.76934   0.28980   0.55831   0.00000  Uiso   1.00
O587   O     0.73769   0.26021   0.54071   0.00000  Uiso   1.00
O588   O     0.76450   0.30382   0.59940   0.00000  Uiso   1.00
N589   N     0.76296   0.11519   0.37505   0.00000  Uiso   1.00
O590   O     0.77361   0.07637   0.37935   0.00000  Uiso   1.00
O591   O     0.71590   0.12572   0.37738   0.00000  Uiso   1.00
N592   N     0.90371   0.21814   0.62495   0.00000  Uiso   1.00
O593   O     0.89306   0.25697   0.62065   0.00000  Uiso   1.00
O594   O     0.95076   0.20761   0.62262   0.00000  Uiso   1.00
C595   C     0.75583   0.11851   0.60923   0.00000  Uiso   1.00
H596   H     0.76358   0.10192   0.57931   0.00000  Uiso   1.00
O597   O     0.71151   0.11670   0.61825   0.00000  Uiso   1.00
C598   C     0.91084   0.21482   0.39077   0.00000  Uiso   1.00
H599   H     0.90309   0.23142   0.42069   0.00000  Uiso   1.00
O600   O     0.95515   0.21663   0.38175   0.00000  Uiso   1.00
O601   O     0.16666   0.43989   0.53958   0.00000  Uiso   1.00
O602   O     0.16667   0.56011   0.46042   0.00000  Uiso   1.00
O603   O     0.16666   0.43988   0.46039   0.00000  Uiso   1.00
O604   O     0.16667   0.56012   0.53961   0.00000  Uiso   1.00
C605   C     0.16810   0.42092   0.50039   0.00000  Uiso   1.00
C606   C     0.16523   0.57908   0.49961   0.00000  Uiso   1.00
O607   O     0.09161   0.50000   0.53046   0.00000  Uiso   1.00
O608   O     0.24172   0.50000   0.46954   0.00000  Uiso   1.00
O609   O     0.09161   0.49999   0.45127   0.00000  Uiso   1.00
O610   O     0.24172   0.50001   0.54873   0.00000  Uiso   1.00
C611   C     0.06806   0.49966   0.48802   0.00000  Uiso   1.00
C612   C     0.26528   0.50034   0.51197   0.00000  Uiso   1.00
Cu613  Cu    0.16667   0.50001   0.54689   0.00000  Uiso   1.00
Cu614  Cu    0.16667   0.49999   0.45311   0.00000  Uiso   1.00
N615   N     0.16668   0.50001   0.61736   0.00000  Uiso   1.00
N616   N     0.16665   0.49999   0.38264   0.00000  Uiso   1.00
C617   C     0.01267   0.49871   0.48157   0.00000  Uiso   1.00
C618   C     0.32066   0.50129   0.51843   0.00000  Uiso   1.00
H619   H     0.32601   0.49547   0.44628   0.00000  Uiso   1.00
H620   H     0.00733   0.50453   0.55372   0.00000  Uiso   1.00
C621   C     0.19697   0.35536   0.47023   0.00000  Uiso   1.00
C622   C     0.13636   0.64464   0.52977   0.00000  Uiso   1.00
C623   C     0.19296   0.64580   0.46916   0.00000  Uiso   1.00
C624   C     0.14037   0.35420   0.53084   0.00000  Uiso   1.00
H625   H     0.21483   0.62958   0.44644   0.00000  Uiso   1.00
H626   H     0.11850   0.37042   0.55356   0.00000  Uiso   1.00
C627   C     0.16367   0.62373   0.49899   0.00000  Uiso   1.00
C628   C     0.16966   0.37627   0.50101   0.00000  Uiso   1.00
C629   C     0.13088   0.47638   0.35437   0.00000  Uiso   1.00
C630   C     0.20245   0.52362   0.64563   0.00000  Uiso   1.00
C631   C     0.13022   0.47677   0.63809   0.00000  Uiso   1.00
C632   C     0.20311   0.52323   0.36191   0.00000  Uiso   1.00
N633   N     0.23066   0.37687   0.44169   0.00000  Uiso   1.00
O634   O     0.26231   0.40646   0.45929   0.00000  Uiso   1.00
O635   O     0.23550   0.36285   0.40060   0.00000  Uiso   1.00
N636   N     0.10268   0.62313   0.55831   0.00000  Uiso   1.00
O637   O     0.07102   0.59354   0.54071   0.00000  Uiso   1.00
O638   O     0.09783   0.63715   0.59940   0.00000  Uiso   1.00
N639   N     0.09629   0.44852   0.37505   0.00000  Uiso   1.00
O640   O     0.10694   0.40970   0.37935   0.00000  Uiso   1.00
O641   O     0.04923   0.45905   0.37738   0.00000  Uiso   1.00
N642   N     0.23704   0.55148   0.62495   0.00000  Uiso   1.00
O643   O     0.22639   0.59030   0.62065   0.00000  Uiso   1.00
O644   O     0.28410   0.54095   0.62262   0.00000  Uiso   1.00
C645   C     0.08916   0.45185   0.60923   0.00000  Uiso   1.00
H646   H     0.09691   0.43525   0.57931   0.00000  Uiso   1.00
O647   O     0.04485   0.45003   0.61825   0.00000  Uiso   1.00
C648   C     0.24417   0.54815   0.39077   0.00000  Uiso   1.00
H649   H     0.23642   0.56475   0.42069   0.00000  Uiso   1.00
O650   O     0.28849   0.54997   0.38175   0.00000  Uiso   1.00
O651   O     0.50000   0.43989   0.53958   0.00000  Uiso   1.00
O652   O     0.50000   0.56011   0.46042   0.00000  Uiso   1.00
O653   O     0.50000   0.43988   0.46039   0.00000  Uiso   1.00
O654   O     0.50000   0.56012   0.53961   0.00000  Uiso   1.00
C655   C     0.50143   0.42092   0.50039   0.00000  Uiso   1.00
C656   C     0.49857   0.57908   0.49961   0.00000  Uiso   1.00
O657   O     0.42495   0.50000   0.53046   0.00000  Uiso   1.00
O658   O     0.57505   0.50000   0.46954   0.00000  Uiso   1.00
O659   O     0.42494   0.49999   0.45127   0.00000  Uiso   1.00
O660   O     0.57506   0.50001   0.54873   0.00000  Uiso   1.00
C661   C     0.40139   0.49966   0.48802   0.00000  Uiso   1.00
C662   C     0.59861   0.50034   0.51197   0.00000  Uiso   1.00
Cu663  Cu    0.50000   0.50001   0.54689   0.00000  Uiso   1.00
Cu664  Cu    0.50000   0.49999   0.45311   0.00000  Uiso   1.00
N665   N     0.50001   0.50001   0.61736   0.00000  Uiso   1.00
N666   N     0.49999   0.49999   0.38264   0.00000  Uiso   1.00
C667   C     0.34601   0.49871   0.48157   0.00000  Uiso   1.00
C668   C     0.65399   0.50129   0.51843   0.00000  Uiso   1.00
H669   H     0.65934   0.49547   0.44628   0.00000  Uiso   1.00
H670   H     0.34066   0.50453   0.55372   0.00000  Uiso   1.00
C671   C     0.53030   0.35536   0.47023   0.00000  Uiso   1.00
C672   C     0.46970   0.64464   0.52977   0.00000  Uiso   1.00
C673   C     0.52630   0.64580   0.46916   0.00000  Uiso   1.00
C674   C     0.47370   0.35420   0.53084   0.00000  Uiso   1.00
H675   H     0.54816   0.62958   0.44644   0.00000  Uiso   1.00
H676   H     0.45184   0.37042   0.55356   0.00000  Uiso   1.00
C677   C     0.49700   0.62373   0.49899   0.00000  Uiso   1.00
C678   C     0.50299   0.37627   0.50101   0.00000  Uiso   1.00
C679   C     0.46421   0.47638   0.35437   0.00000  Uiso   1.00
C680   C     0.53579   0.52362   0.64563   0.00000  Uiso   1.00
C681   C     0.46356   0.47677   0.63809   0.00000  Uiso   1.00
C682   C     0.53644   0.52323   0.36191   0.00000  Uiso   1.00
N683   N     0.56399   0.37687   0.44169   0.00000  Uiso   1.00
O684   O     0.59564   0.40646   0.45929   0.00000  Uiso   1.00
O685   O     0.56883   0.36285   0.40060   0.00000  Uiso   1.00
N686   N     0.43601   0.62313   0.55831   0.00000  Uiso   1.00
O687   O     0.40436   0.59354   0.54071   0.00000  Uiso   1.00
O688   O     0.43117   0.63715   0.59940   0.00000  Uiso   1.00
N689   N     0.42962   0.44852   0.37505   0.00000  Uiso   1.00
O690   O     0.44027   0.40970   0.37935   0.00000  Uiso   1.00
O691   O     0.38257   0.45905   0.37738   0.00000  Uiso   1.00
N692   N     0.57038   0.55148   0.62495   0.00000  Uiso   1.00
O693   O     0.55973   0.59030   0.62065   0.00000  Uiso   1.00
O694   O     0.61743   0.54095   0.62262   0.00000  Uiso   1.00
C695   C     0.42250   0.45185   0.60923   0.00000  Uiso   1.00
H696   H     0.43025   0.43525   0.57931   0.00000  Uiso   1.00
O697   O     0.37818   0.45003   0.61825   0.00000  Uiso   1.00
C698   C     0.57750   0.54815   0.39077   0.00000  Uiso   1.00
H699   H     0.56975   0.56475   0.42069   0.00000  Uiso   1.00
O700   O     0.62182   0.54997   0.38175   0.00000  Uiso   1.00
O701   O     0.83333   0.43989   0.53958   0.00000  Uiso   1.00
O702   O     0.83334   0.56011   0.46042   0.00000  Uiso   1.00
O703   O     0.83333   0.43988   0.46039   0.00000  Uiso   1.00
O704   O     0.83334   0.56012   0.53961   0.00000  Uiso   1.00
C705   C     0.83476   0.42092   0.50039   0.00000  Uiso   1.00
C706   C     0.83190   0.57908   0.49961   0.00000  Uiso   1.00
O707   O     0.75828   0.50000   0.53046   0.00000  Uiso   1.00
O708   O     0.90839   0.50000   0.46954   0.00000  Uiso   1.00
O709   O     0.75828   0.49999   0.45127   0.00000  Uiso   1.00
O710   O     0.90839   0.50001   0.54873   0.00000  Uiso   1.00
C711   C     0.73472   0.49966   0.48802   0.00000  Uiso   1.00
C712   C     0.93194   0.50034   0.51197   0.00000  Uiso   1.00
Cu713  Cu    0.83333   0.50001   0.54689   0.00000  Uiso   1.00
Cu714  Cu    0.83333   0.49999   0.45311   0.00000  Uiso   1.00
N715   N     0.83335   0.50001   0.61736   0.00000  Uiso   1.00
N716   N     0.83332   0.49999   0.38264   0.00000  Uiso   1.00
C717   C     0.67934   0.49871   0.48157   0.00000  Uiso   1.00
C718   C     0.98733   0.50129   0.51843   0.00000  Uiso   1.00
H719   H     0.99267   0.49547   0.44628   0.00000  Uiso   1.00
H720   H     0.67399   0.50453   0.55372   0.00000  Uiso   1.00
C721   C     0.86364   0.35536   0.47023   0.00000  Uiso   1.00
C722   C     0.80303   0.64464   0.52977   0.00000  Uiso   1.00
C723   C     0.85963   0.64580   0.46916   0.00000  Uiso   1.00
C724   C     0.80703   0.35420   0.53084   0.00000  Uiso   1.00
H725   H     0.88150   0.62958   0.44644   0.00000  Uiso   1.00
H726   H     0.78517   0.37042   0.55356   0.00000  Uiso   1.00
C727   C     0.83034   0.62373   0.49899   0.00000  Uiso   1.00
C728   C     0.83633   0.37627   0.50101   0.00000  Uiso   1.00
C729   C     0.79755   0.47638   0.35437   0.00000  Uiso   1.00
C730   C     0.86912   0.52362   0.64563   0.00000  Uiso   1.00
C731   C     0.79689   0.47677   0.63809   0.00000  Uiso   1.00
C732   C     0.86978   0.52323   0.36191   0.00000  Uiso   1.00
N733   N     0.89732   0.37687   0.44169   0.00000  Uiso   1.00
O734   O     0.92898   0.40646   0.45929   0.00000  Uiso   1.00
O735   O     0.90217   0.36285   0.40060   0.00000  Uiso   1.00
N736   N     0.76934   0.62313   0.55831   0.00000  Uiso   1.00
O737   O     0.73769   0.59354   0.54071   0.00000  Uiso   1.00
O738   O     0.76450   0.63715   0.59940   0.00000  Uiso   1.00
N739   N     0.76296   0.44852   0.37505   0.00000  Uiso   1.00
O740   O     0.77361   0.40970   0.37935   0.00000  Uiso   1.00
O741   O     0.71590   0.45905   0.37738   0.00000  Uiso   1.00
N742   N     0.90371   0.55148   0.62495   0.00000  Uiso   1.00
O743   O     0.89306   0.59030   0.62065   0.00000  Uiso   1.00
O744   O     0.95076   0.54095   0.62262   0.00000  Uiso   1.00
C745   C     0.75583   0.45185   0.60923   0.00000  Uiso   1.00
H746   H     0.76358   0.43525   0.57931   0.00000  Uiso   1.00
O747   O     0.71151   0.45003   0.61825   0.00000  Uiso   1.00
C748   C     0.91084   0.54815   0.39077   0.00000  Uiso   1.00
H749   H     0.90309   0.56475   0.42069   0.00000  Uiso   1.00
O750   O     0.95515   0.54997   0.38175   0.00000  Uiso   1.00
O751   O     0.16666   0.77322   0.53958   0.00000  Uiso   1.00
O752   O     0.16667   0.89345   0.46042   0.00000  Uiso   1.00
O753   O     0.16666   0.77321   0.46039   0.00000  Uiso   1.00
O754   O     0.16667   0.89346   0.53961   0.00000  Uiso   1.00
C755   C     0.16810   0.75426   0.50039   0.00000  Uiso   1.00
C756   C     0.16523   0.91241   0.49961   0.00000  Uiso   1.00
O757   O     0.09161   0.83334   0.53046   0.00000  Uiso   1.00
O758   O     0.24172   0.83333   0.46954   0.00000  Uiso   1.00
O759   O     0.09161   0.83333   0.45127   0.00000  Uiso   1.00
O760   O     0.24172   0.83334   0.54873   0.00000  Uiso   1.00
C761   C     0.06806   0.83299   0.48802   0.00000  Uiso   1.00
C762   C     0.26528   0.83368   0.51197   0.00000  Uiso   1.00
Cu763  Cu    0.16667   0.83334   0.54689   0.00000  Uiso   1.00
Cu764  Cu    0.16667   0.83333   0.45311   0.00000  Uiso   1.00
N765   N     0.16668   0.83334   0.61736   0.00000  Uiso   1.00
N766   N     0.16665   0.83332   0.38264   0.00000  Uiso   1.00
C767   C     0.01267   0.83204   0.48157   0.00000  Uiso   1.00
C768   C     0.32066   0.83462   0.51843   0.00000  Uiso   1.00
H769   H     0.32601   0.82880   0.44628   0.00000  Uiso   1.00
H770   H     0.00733   0.83787   0.55372   0.00000  Uiso   1.00
C771   C     0.19697   0.68870   0.47023   0.00000  Uiso   1.00
C772   C     0.13636   0.97797   0.52977   0.00000  Uiso   1.00
C773   C     0.19296   0.97913   0.46916   0.00000  Uiso   1.00
C774   C     0.14037   0.68753   0.53084   0.00000  Uiso   1.00
H775   H     0.21483   0.96291   0.44644   0.00000  Uiso   1.00
H776   H     0.11850   0.70376   0.55356   0.00000  Uiso   1.00
C777   C     0.16367   0.95706   0.49899   0.00000  Uiso   1.00
C778   C     0.16966   0.70961   0.50101   0.00000  Uiso   1.00
C779   C     0.13088   0.80972   0.35437   0.00000  Uiso   1.00
C780   C     0.20245   0.85695   0.64563   0.00000  Uiso   1.00
C781   C     0.13022   0.81010   0.63809   0.00000  Uiso   1.00
C782   C     0.20311   0.85657   0.36191   0.00000  Uiso   1.00
N783   N     0.23066   0.71020   0.44169   0.00000  Uiso   1.00
O784   O     0.26231   0.73979   0.45929   0.00000  Uiso   1.00
O785   O     0.23550   0.69618   0.40060   0.00000  Uiso   1.00
N786   N     0.10268   0.95647   0.55831   0.00000  Uiso   1.00
O787   O     0.07102   0.92687   0.54071   0.00000  Uiso   1.00
O788   O     0.09783   0.97048   0.59940   0.00000  Uiso   1.00
N789   N     0.09629   0.78186   0.37505   0.00000  Uiso   1.00
O790   O     0.10694   0.74303   0.37935   0.00000  Uiso   1.00
O791   O     0.04923   0.79239   0.37738   0.00000  Uiso   1.00
N792   N     0.23704   0.88481   0.62495   0.00000  Uiso   1.00
O793   O     0.22639   0.92363   0.62065   0.00000  Uiso   1.00
O794   O     0.28410   0.87428   0.62262   0.00000  Uiso   1.00
C795   C     0.08916   0.78518   0.60923   0.00000  Uiso   1.00
H796   H     0.09691   0.76858   0.57931   0.00000  Uiso   1.00
O797   O     0.04485   0.78337   0.61825   0.00000  Uiso   1.00
C798   C     0.24417   0.88149   0.39077   0.00000  Uiso   1.00
H799   H     0.23642   0.89808   0.42069   0.00000  Uiso   1.00
O800   O     0.28849   0.88330   0.38175   0.00000  Uiso   1.00
O801   O     0.50000   0.77322   0.53958   0.00000  Uiso   1.00
O802   O     0.50000   0.89345   0.46042   0.00000  Uiso   1.00
O803   O     0.50000   0.77321   0.46039   0.00000  Uiso   1.00
O804   O     0.50000   0.89346   0.53961   0.00000  Uiso   1.00
C805   C     0.50143   0.75426   0.50039   0.00000  Uiso   1.00
C806   C     0.49857   0.91241   0.49961   0.00000  Uiso   1.00
O807   O     0.42495   0.83334   0.53046   0.00000  Uiso   1.00
O808   O     0.57505   0.83333   0.46954   0.00000  Uiso   1.00
O809   O     0.42494   0.83333   0.45127   0.00000  Uiso   1.00
O810   O     0.57506   0.83334   0.54873   0.00000  Uiso   1.00
C811   C     0.40139   0.83299   0.48802   0.00000  Uiso   1.00
C812   C     0.59861   0.83368   0.51197   0.00000  Uiso   1.00
Cu813  Cu    0.50000   0.83334   0.54689   0.00000  Uiso   1.00
Cu814  Cu    0.50000   0.83333   0.45311   0.00000  Uiso   1.00
N815   N     0.50001   0.83334   0.61736   0.00000  Uiso   1.00
N816   N     0.49999   0.83332   0.38264   0.00000  Uiso   1.00
C817   C     0.34601   0.83204   0.48157   0.00000  Uiso   1.00
C818   C     0.65399   0.83462   0.51843   0.00000  Uiso   1.00
H819   H     0.65934   0.82880   0.44628   0.00000  Uiso   1.00
H820   H     0.34066   0.83787   0.55372   0.00000  Uiso   1.00
C821   C     0.53030   0.68870   0.47023   0.00000  Uiso   1.00
C822   C     0.46970   0.97797   0.52977   0.00000  Uiso   1.00
C823   C     0.52630   0.97913   0.46916   0.00000  Uiso   1.00
C824   C     0.47370   0.68753   0.53084   0.00000  Uiso   1.00
H825   H     0.54816   0.96291   0.44644   0.00000  Uiso   1.00
H826   H     0.45184   0.70376   0.55356   0.00000  Uiso   1.00
C827   C     0.49700   0.95706   0.49899   0.00000  Uiso   1.00
C828   C     0.50299   0.70961   0.50101   0.00000  Uiso   1.00
C829   C     0.46421   0.80972   0.35437   0.00000  Uiso   1.00
C830   C     0.53579   0.85695   0.64563   0.00000  Uiso   1.00
C831   C     0.46356   0.81010   0.63809   0.00000  Uiso   1.00
C832   C     0.53644   0.85657   0.36191   0.00000  Uiso   1.00
N833   N     0.56399   0.71020   0.44169   0.00000  Uiso   1.00
O834   O     0.59564   0.73979   0.45929   0.00000  Uiso   1.00
O835   O     0.56883   0.69618   0.40060   0.00000  Uiso   1.00
N836   N     0.43601   0.95647   0.55831   0.00000  Uiso   1.00
O837   O     0.40436   0.92687   0.54071   0.00000  Uiso   1.00
O838   O     0.43117   0.97048   0.59940   0.00000  Uiso   1.00
N839   N     0.42962   0.78186   0.37505   0.00000  Uiso   1.00
O840   O     0.44027   0.74303   0.37935   0.00000  Uiso   1.00
O841   O     0.38257   0.79239   0.37738   0.00000  Uiso   1.00
N842   N     0.57038   0.88481   0.62495   0.00000  Uiso   1.00
O843   O     0.55973   0.92363   0.62065   0.00000  Uiso   1.00
O844   O     0.61743   0.87428   0.62262   0.00000  Uiso   1.00
C845   C     0.42250   0.78518   0.60923   0.00000  Uiso   1.00
H846   H     0.43025   0.76858   0.57931   0.00000  Uiso   1.00
O847   O     0.37818   0.78337   0.61825   0.00000  Uiso   1.00
C848   C     0.57750   0.88149   0.39077   0.00000  Uiso   1.00
H849   H     0.56975   0.89808   0.42069   0.00000  Uiso   1.00
O850   O     0.62182   0.88330   0.38175   0.00000  Uiso   1.00
O851   O     0.83333   0.77322   0.53958   0.00000  Uiso   1.00
O852   O     0.83334   0.89345   0.46042   0.00000  Uiso   1.00
O853   O     0.83333   0.77321   0.46039   0.00000  Uiso   1.00
O854   O     0.83334   0.89346   0.53961   0.00000  Uiso   1.00
C855   C     0.83476   0.75426   0.50039   0.00000  Uiso   1.00
C856   C     0.83190   0.91241   0.49961   0.00000  Uiso   1.00
O857   O     0.75828   0.83334   0.53046   0.00000  Uiso   1.00
O858   O     0.90839   0.83333   0.46954   0.00000  Uiso   1.00
O859   O     0.75828   0.83333   0.45127   0.00000  Uiso   1.00
O860   O     0.90839   0.83334   0.54873   0.00000  Uiso   1.00
C861   C     0.73472   0.83299   0.48802   0.00000  Uiso   1.00
C862   C     0.93194   0.83368   0.51197   0.00000  Uiso   1.00
Cu863  Cu    0.83333   0.83334   0.54689   0.00000  Uiso   1.00
Cu864  Cu    0.83333   0.83333   0.45311   0.00000  Uiso   1.00
N865   N     0.83335   0.83334   0.61736   0.00000  Uiso   1.00
N866   N     0.83332   0.83332   0.38264   0.00000  Uiso   1.00
C867   C     0.67934   0.83204   0.48157   0.00000  Uiso   1.00
C868   C     0.98733   0.83462   0.51843   0.00000  Uiso   1.00
H869   H     0.99267   0.82880   0.44628   0.00000  Uiso   1.00
H870   H     0.67399   0.83787   0.55372   0.00000  Uiso   1.00
C871   C     0.86364   0.68870   0.47023   0.00000  Uiso   1.00
C872   C     0.80303   0.97797   0.52977   0.00000  Uiso   1.00
C873   C     0.85963   0.97913   0.46916   0.00000  Uiso   1.00
C874   C     0.80703   0.68753   0.53084   0.00000  Uiso   1.00
H875   H     0.88150   0.96291   0.44644   0.00000  Uiso   1.00
H876   H     0.78517   0.70376   0.55356   0.00000  Uiso   1.00
C877   C     0.83034   0.95706   0.49899   0.00000  Uiso   1.00
C878   C     0.83633   0.70961   0.50101   0.00000  Uiso   1.00
C879   C     0.79755   0.80972   0.35437   0.00000  Uiso   1.00
C880   C     0.86912   0.85695   0.64563   0.00000  Uiso   1.00
C881   C     0.79689   0.81010   0.63809   0.00000  Uiso   1.00
C882   C     0.86978   0.85657   0.36191   0.00000  Uiso   1.00
N883   N     0.89732   0.71020   0.44169   0.00000  Uiso   1.00
O884   O     0.92898   0.73979   0.45929   0.00000  Uiso   1.00
O885   O     0.90217   0.69618   0.40060   0.00000  Uiso   1.00
N886   N     0.76934   0.95647   0.55831   0.00000  Uiso   1.00
O887   O     0.73769   0.92687   0.54071   0.00000  Uiso   1.00
O888   O     0.76450   0.97048   0.59940   0.00000  Uiso   1.00
N889   N     0.76296   0.78186   0.37505   0.00000  Uiso   1.00
O890   O     0.77361   0.74303   0.37935   0.00000  Uiso   1.00
O891   O     0.71590   0.79239   0.37738   0.00000  Uiso   1.00
N892   N     0.90371   0.88481   0.62495   0.00000  Uiso   1.00
O893   O     0.89306   0.92363   0.62065   0.00000  Uiso   1.00
O894   O     0.95076   0.87428   0.62262   0.00000  Uiso   1.00
C895   C     0.75583   0.78518   0.60923   0.00000  Uiso   1.00
H896   H     0.76358   0.76858   0.57931   0.00000  Uiso   1.00
O897   O     0.71151   0.78337   0.61825   0.00000  Uiso   1.00
C898   C     0.91084   0.88149   0.39077   0.00000  Uiso   1.00
H899   H     0.90309   0.89808   0.42069   0.00000  Uiso   1.00
O900   O     0.95515   0.88330   0.38175   0.00000  Uiso   1.00
O901   O     0.16666   0.10655   0.87291   0.00000  Uiso   1.00
O902   O     0.16667   0.22678   0.79375   0.00000  Uiso   1.00
O903   O     0.16666   0.10654   0.79372   0.00000  Uiso   1.00
O904   O     0.16667   0.22679   0.87294   0.00000  Uiso   1.00
C905   C     0.16810   0.08759   0.83372   0.00000  Uiso   1.00
C906   C     0.16523   0.24574   0.83295   0.00000  Uiso   1.00
O907   O     0.09161   0.16667   0.86379   0.00000  Uiso   1.00
O908   O     0.24172   0.16666   0.80288   0.00000  Uiso   1.00
O909   O     0.09161   0.16666   0.78460   0.00000  Uiso   1.00
O910   O     0.24172   0.16667   0.88207   0.00000  Uiso   1.00
C911   C     0.06806   0.16632   0.82136   0.00000  Uiso   1.00
C912   C     0.26528   0.16701   0.84531   0.00000  Uiso   1.00
Cu913  Cu    0.16667   0.16667   0.88022   0.00000  Uiso   1.00
Cu914  Cu    0.16667   0.16666   0.78645   0.00000  Uiso   1.00
N915   N     0.16668   0.16668   0.95069   0.00000  Uiso   1.00
N916   N     0.16665   0.16666   0.71597   0.00000  Uiso   1.00
C917   C     0.01267   0.16538   0.81490   0.00000  Uiso   1.00
C918   C     0.32066   0.16796   0.85176   0.00000  Uiso   1.00
H919   H     0.32601   0.16213   0.77962   0.00000  Uiso   1.00
H920   H     0.00733   0.17120   0.88705   0.00000  Uiso   1.00
C921   C     0.19697   0.02203   0.80356   0.00000  Uiso   1.00
C922   C     0.13636   0.31130   0.86311   0.00000  Uiso   1.00
C923   C     0.19296   0.31247   0.80249   0.00000  Uiso   1.00
C924   C     0.14037   0.02087   0.86417   0.00000  Uiso   1.00
H925   H     0.21483   0.29624   0.77978   0.00000  Uiso   1.00
H926   H     0.11850   0.03709   0.88689   0.00000  Uiso   1.00
C927   C     0.16367   0.29039   0.83233   0.00000  Uiso   1.00
C928   C     0.16966   0.04294   0.83434   0.00000  Uiso   1.00
C929   C     0.13088   0.14305   0.68770   0.00000  Uiso   1.00
C930   C     0.20245   0.19029   0.97896   0.00000  Uiso   1.00
C931   C     0.13022   0.14343   0.97142   0.00000  Uiso   1.00
C932   C     0.20311   0.18990   0.69524   0.00000  Uiso   1.00
N933   N     0.23066   0.04353   0.77502   0.00000  Uiso   1.00
O934   O     0.26231   0.07313   0.79262   0.00000  Uiso   1.00
O935   O     0.23550   0.02952   0.73393   0.00000  Uiso   1.00
N936   N     0.10268   0.28980   0.89164   0.00000  Uiso   1.00
O937   O     0.07102   0.26021   0.87404   0.00000  Uiso   1.00
O938   O     0.09783   0.30382   0.93273   0.00000  Uiso   1.00
N939   N     0.09629   0.11519   0.70838   0.00000  Uiso   1.00
O940   O     0.10694   0.07637   0.71268   0.00000  Uiso   1.00
O941   O     0.04923   0.12572   0.71071   0.00000  Uiso   1.00
N942   N     0.23704   0.21814   0.95829   0.00000  Uiso   1.00
O943   O     0.22639   0.25697   0.95398   0.00000  Uiso   1.00
O944   O     0.28410   0.20761   0.95595   0.00000  Uiso   1.00
C945   C     0.08916   0.11851   0.94256   0.00000  Uiso   1.00
H946   H     0.09691   0.10192   0.91264   0.00000  Uiso   1.00
O947   O     0.04485   0.11670   0.95158   0.00000  Uiso   1.00
C948   C     0.24417   0.21482   0.72411   0.00000  Uiso   1.00
H949   H     0.23642   0.23142   0.75402   0.00000  Uiso   1.00
O950   O     0.28849   0.21663   0.71509   0.00000  Uiso   1.00
O951   O     0.50000   0.10655   0.87291   0.00000  Uiso   1.00
O952   O     0.50000   0.22678   0.79375   0.00000  Uiso   1.00
O953   O     0.50000   0.10654   0.79372   0.00000  Uiso   1.00
O954   O     0.50000   0.22679   0.87294   0.00000  Uiso   1.00
C955   C     0.50143   0.08759   0.83372   0.00000  Uiso   1.00
C956   C     0.49857   0.24574   0.83295   0.00000  Uiso   1.00
O957   O     0.42495   0.16667   0.86379   0.00000  Uiso   1.00
O958   O     0.57505   0.16666   0.80288   0.00000  Uiso   1.00
O959   O     0.42494   0.16666   0.78460   0.00000  Uiso   1.00
O960   O     0.57506   0.16667   0.88207   0.00000  Uiso   1.00
C961   C     0.40139   0.16632   0.82136   0.00000  Uiso   1.00
C962   C     0.59861   0.16701   0.84531   0.00000  Uiso   1.00
Cu963  Cu    0.50000   0.16667   0.88022   0.00000  Uiso   1.00
Cu964  Cu    0.50000   0.16666   0.78645   0.00000  Uiso   1.00
N965   N     0.50001   0.16668   0.95069   0.00000  Uiso   1.00
N966   N     0.49999   0.16666   0.71597   0.00000  Uiso   1.00
C967   C     0.34601   0.16538   0.81490   0.00000  Uiso   1.00
C968   C     0.65399   0.16796   0.85176   0.00000  Uiso   1.00
H969   H     0.65934   0.16213   0.77962   0.00000  Uiso   1.00
H970   H     0.34066   0.17120   0.88705   0.00000  Uiso   1.00
C971   C     0.53030   0.02203   0.80356   0.00000  Uiso   1.00
C972   C     0.46970   0.31130   0.86311   0.00000  Uiso   1.00
C973   C     0.52630   0.31247   0.80249   0.00000  Uiso   1.00
C974   C     0.47370   0.02087   0.86417   0.00000  Uiso   1.00
H975   H     0.54816   0.29624   0.77978   0.00000  Uiso   1.00
H976   H     0.45184   0.03709   0.88689   0.00000  Uiso   1.00
C977   C     0.49700   0.29039   0.83233   0.00000  Uiso   1.00
C978   C     0.50299   0.04294   0.83434   0.00000  Uiso   1.00
C979   C     0.46421   0.14305   0.68770   0.00000  Uiso   1.00
C980   C     0.53579   0.19029   0.97896   0.00000  Uiso   1.00
C981   C     0.46356   0.14343   0.97142   0.00000  Uiso   1.00
C982   C     0.53644   0.18990   0.69524   0.00000  Uiso   1.00
N983   N     0.56399   0.04353   0.77502   0.00000  Uiso   1.00
O984   O     0.59564   0.07313   0.79262   0.00000  Uiso   1.00
O985   O     0.56883   0.02952   0.73393   0.00000  Uiso   1.00
N986   N     0.43601   0.28980   0.89164   0.00000  Uiso   1.00
O987   O     0.40436   0.26021   0.87404   0.00000  Uiso   1.00
O988   O     0.43117   0.30382   0.93273   0.00000  Uiso   1.00
N989   N     0.42962   0.11519   0.70838   0.00000  Uiso   1.00
O990   O     0.44027   0.07637   0.71268   0.00000  Uiso   1.00
O991   O     0.38257   0.12572   0.71071   0.00000  Uiso   1.00
N992   N     0.57038   0.21814   0.95829   0.00000  Uiso   1.00
O993   O     0.55973   0.25697   0.95398   0.00000  Uiso   1.00
O994   O     0.61743   0.20761   0.95595   0.00000  Uiso   1.00
C995   C     0.42250   0.11851   0.94256   0.00000  Uiso   1.00
H996   H     0.43025   0.10192   0.91264   0.00000  Uiso   1.00
O997   O     0.37818   0.11670   0.95158   0.00000  Uiso   1.00
C998   C     0.57750   0.21482   0.72411   0.00000  Uiso   1.00
H999   H     0.56975   0.23142   0.75402   0.00000  Uiso   1.00
O1000  O     0.62182   0.21663   0.71509   0.00000  Uiso   1.00
O1001  O     0.83333   0.10655   0.87291   0.00000  Uiso   1.00
O1002  O     0.83334   0.22678   0.79375   0.00000  Uiso   1.00
O1003  O     0.83333   0.10654   0.79372   0.00000  Uiso   1.00
O1004  O     0.83334   0.22679   0.87294   0.00000  Uiso   1.00
C1005  C     0.83476   0.08759   0.83372   0.00000  Uiso   1.00
C1006  C     0.83190   0.24574   0.83295   0.00000  Uiso   1.00
O1007  O     0.75828   0.16667   0.86379   0.00000  Uiso   1.00
O1008  O     0.90839   0.16666   0.80288   0.00000  Uiso   1.00
O1009  O     0.75828   0.16666   0.78460   0.00000  Uiso   1.00
O1010  O     0.90839   0.16667   0.88207   0.00000  Uiso   1.00
C1011  C     0.73472   0.16632   0.82136   0.00000  Uiso   1.00
C1012  C     0.93194   0.16701   0.84531   0.00000  Uiso   1.00
Cu1013 Cu    0.83333   0.16667   0.88022   0.00000  Uiso   1.00
Cu1014 Cu    0.83333   0.16666   0.78645   0.00000  Uiso   1.00
N1015  N     0.83335   0.16668   0.95069   0.00000  Uiso   1.00
N1016  N     0.83332   0.16666   0.71597   0.00000  Uiso   1.00
C1017  C     0.67934   0.16538   0.81490   0.00000  Uiso   1.00
C1018  C     0.98733   0.16796   0.85176   0.00000  Uiso   1.00
H1019  H     0.99267   0.16213   0.77962   0.00000  Uiso   1.00
H1020  H     0.67399   0.17120   0.88705   0.00000  Uiso   1.00
C1021  C     0.86364   0.02203   0.80356   0.00000  Uiso   1.00
C1022  C     0.80303   0.31130   0.86311   0.00000  Uiso   1.00
C1023  C     0.85963   0.31247   0.80249   0.00000  Uiso   1.00
C1024  C     0.80703   0.02087   0.86417   0.00000  Uiso   1.00
H1025  H     0.88150   0.29624   0.77978   0.00000  Uiso   1.00
H1026  H     0.78517   0.03709   0.88689   0.00000  Uiso   1.00
C1027  C     0.83034   0.29039   0.83233   0.00000  Uiso   1.00
C1028  C     0.83633   0.04294   0.83434   0.00000  Uiso   1.00
C1029  C     0.79755   0.14305   0.68770   0.00000  Uiso   1.00
C1030  C     0.86912   0.19029   0.97896   0.00000  Uiso   1.00
C1031  C     0.79689   0.14343   0.97142   0.00000  Uiso   1.00
C1032  C     0.86978   0.18990   0.69524   0.00000  Uiso   1.00
N1033  N     0.89732   0.04353   0.77502   0.00000  Uiso   1.00
O1034  O     0.92898   0.07313   0.79262   0.00000  Uiso   1.00
O1035  O     0.90217   0.02952   0.73393   0.00000  Uiso   1.00
N1036  N     0.76934   0.28980   0.89164   0.00000  Uiso   1.00
O1037  O     0.73769   0.26021   0.87404   0.00000  Uiso   1.00
O1038  O     0.76450   0.30382   0.93273   0.00000  Uiso   1.00
N1039  N     0.76296   0.11519   0.70838   0.00000  Uiso   1.00
O1040  O     0.77361   0.07637   0.71268   0.00000  Uiso   1.00
O1041  O     0.71590   0.12572   0.71071   0.00000  Uiso   1.00
N1042  N     0.90371   0.21814   0.95829   0.00000  Uiso   1.00
O1043  O     0.89306   0.25697   0.95398   0.00000  Uiso   1.00
O1044  O     0.95076   0.20761   0.95595   0.00000  Uiso   1.00
C1045  C     0.75583   0.11851   0.94256   0.00000  Uiso   1.00
H1046  H     0.76358   0.10192   0.91264   0.00000  Uiso   1.00
O1047  O     0.71151   0.11670   0.95158   0.00000  Uiso   1.00
C1048  C     0.91084   0.21482   0.72411   0.00000  Uiso   1.00
H1049  H     0.90309   0.23142   0.75402   0.00000  Uiso   1.00
O1050  O     0.95515   0.21663   0.71509   0.00000  Uiso   1.00
O1051  O     0.16666   0.43989   0.87291   0.00000  Uiso   1.00
O1052  O     0.16667   0.56011   0.79375   0.00000  Uiso   1.00
O1053  O     0.16666   0.43988   0.79372   0.00000  Uiso   1.00
O1054  O     0.16667   0.56012   0.87294   0.00000  Uiso   1.00
C1055  C     0.16810   0.42092   0.83372   0.00000  Uiso   1.00
C1056  C     0.16523   0.57908   0.83295   0.00000  Uiso   1.00
O1057  O     0.09161   0.50000   0.86379   0.00000  Uiso   1.00
O1058  O     0.24172   0.50000   0.80288   0.00000  Uiso   1.00
O1059  O     0.09161   0.49999   0.78460   0.00000  Uiso   1.00
O1060  O     0.24172   0.50001   0.88207   0.00000  Uiso   1.00
C1061  C     0.06806   0.49966   0.82136   0.00000  Uiso   1.00
C1062  C     0.26528   0.50034   0.84531   0.00000  Uiso   1.00
Cu1063 Cu    0.16667   0.50001   0.88022   0.00000  Uiso   1.00
Cu1064 Cu    0.16667   0.49999   0.78645   0.00000  Uiso   1.00
N1065  N     0.16668   0.50001   0.95069   0.00000  Uiso   1.00
N1066  N     0.16665   0.49999   0.71597   0.00000  Uiso   1.00
C1067  C     0.01267   0.49871   0.81490   0.00000  Uiso   1.00
C1068  C     0.32066   0.50129   0.85176   0.00000  Uiso   1.00
H1069  H     0.32601   0.49547   0.77962   0.00000  Uiso   1.00
H1070  H     0.00733   0.50453   0.88705   0.00000  Uiso   1.00
C1071  C     0.19697   0.35536   0.80356   0.00000  Uiso   1.00
C1072  C     0.13636   0.64464   0.86311   0.00000  Uiso   1.00
C1073  C     0.19296   0.64580   0.80249   0.00000  Uiso   1.00
C1074  C     0.14037   0.35420   0.86417   0.00000  Uiso   1.00
H1075  H     0.21483   0.62958   0.77978   0.00000  Uiso   1.00
H1076  H     0.11850   0.37042   0.88689   0.00000  Uiso   1.00
C1077  C     0.16367   0.62373   0.83233   0.00000  Uiso   1.00
C1078  C     0.16966   0.37627   0.83434   0.00000  Uiso   1.00
C1079  C     0.13088   0.47638   0.68770   0.00000  Uiso   1.00
C1080  C     0.20245   0.52362   0.97896   0.00000  Uiso   1.00
C1081  C     0.13022   0.47677   0.97142   0.00000  Uiso   1.00
C1082  C     0.20311   0.52323   0.69524   0.00000  Uiso   1.00
N1083  N     0.23066   0.37687   0.77502   0.00000  Uiso   1.00
O1084  O     0.26231   0.40646   0.79262   0.00000  Uiso   1.00
O1085  O     0.23550   0.36285   0.73393   0.00000  Uiso   1.00
N1086  N     0.10268   0.62313   0.89164   0.00000  Uiso   1.00
O1087  O     0.07102   0.59354   0.87404   0.00000  Uiso   1.00
O1088  O     0.09783   0.63715   0.93273   0.00000  Uiso   1.00
N1089  N     0.09629   0.44852   0.70838   0.00000  Uiso   1.00
O1090  O     0.10694   0.40970   0.71268   0.00000  Uiso   1.00
O1091  O     0.04923   0.45905   0.71071   0.00000  Uiso   1.00
N1092  N     0.23704   0.55148   0.95829   0.00000  Uiso   1.00
O1093  O     0.22639   0.59030   0.95398   0.00000  Uiso   1.00
O1094  O     0.28410   0.54095   0.95595   0.00000  Uiso   1.00
C1095  C     0.08916   0.45185   0.94256   0.00000  Uiso   1.00
H1096  H     0.09691   0.43525   0.91264   0.00000  Uiso   1.00
O1097  O     0.04485   0.45003   0.95158   0.00000  Uiso   1.00
C1098  C     0.24417   0.54815   0.72411   0.00000  Uiso   1.00
H1099  H     0.23642   0.56475   0.75402   0.00000  Uiso   1.00
O1100  O     0.28849   0.54997   0.71509   0.00000  Uiso   1.00
O1101  O     0.50000   0.43989   0.87291   0.00000  Uiso   1.00
O1102  O     0.50000   0.56011   0.79375   0.00000  Uiso   1.00
O1103  O     0.50000   0.43988   0.79372   0.00000  Uiso   1.00
O1104  O     0.50000   0.56012   0.87294   0.00000  Uiso   1.00
C1105  C     0.50143   0.42092   0.83372   0.00000  Uiso   1.00
C1106  C     0.49857   0.57908   0.83295   0.00000  Uiso   1.00
O1107  O     0.42495   0.50000   0.86379   0.00000  Uiso   1.00
O1108  O     0.57505   0.50000   0.80288   0.00000  Uiso   1.00
O1109  O     0.42494   0.49999   0.78460   0.00000  Uiso   1.00
O1110  O     0.57506   0.50001   0.88207   0.00000  Uiso   1.00
C1111  C     0.40139   0.49966   0.82136   0.00000  Uiso   1.00
C1112  C     0.59861   0.50034   0.84531   0.00000  Uiso   1.00
Cu1113 Cu    0.50000   0.50001   0.88022   0.00000  Uiso   1.00
Cu1114 Cu    0.50000   0.49999   0.78645   0.00000  Uiso   1.00
N1115  N     0.50001   0.50001   0.95069   0.00000  Uiso   1.00
N1116  N     0.49999   0.49999   0.71597   0.00000  Uiso   1.00
C1117  C     0.34601   0.49871   0.81490   0.00000  Uiso   1.00
C1118  C     0.65399   0.50129   0.85176   0.00000  Uiso   1.00
H1119  H     0.65934   0.49547   0.77962   0.00000  Uiso   1.00
H1120  H     0.34066   0.50453   0.88705   0.00000  Uiso   1.00
C1121  C     0.53030   0.35536   0.80356   0.00000  Uiso   1.00
C1122  C     0.46970   0.64464   0.86311   0.00000  Uiso   1.00
C1123  C     0.52630   0.64580   0.80249   0.00000  Uiso   1.00
C1124  C     0.47370   0.35420   0.86417   0.00000  Uiso   1.00
H1125  H     0.54816   0.62958   0.77978   0.00000  Uiso   1.00
H1126  H     0.45184   0.37042   0.88689   0.00000  Uiso   1.00
C1127  C     0.49700   0.62373   0.83233   0.00000  Uiso   1.00
C1128  C     0.50299   0.37627   0.83434   0.00000  Uiso   1.00
C1129  C     0.46421   0.47638   0.68770   0.00000  Uiso   1.00
C1130  C     0.53579   0.52362   0.97896   0.00000  Uiso   1.00
C1131  C     0.46356   0.47677   0.97142   0.00000  Uiso   1.00
C1132  C     0.53644   0.52323   0.69524   0.00000  Uiso   1.00
N1133  N     0.56399   0.37687   0.77502   0.00000  Uiso   1.00
O1134  O     0.59564   0.40646   0.79262   0.00000  Uiso   1.00
O1135  O     0.56883   0.36285   0.73393   0.00000  Uiso   1.00
N1136  N     0.43601   0.62313   0.89164   0.00000  Uiso   1.00
O1137  O     0.40436   0.59354   0.87404   0.00000  Uiso   1.00
O1138  O     0.43117   0.63715   0.93273   0.00000  Uiso   1.00
N1139  N     0.42962   0.44852   0.70838   0.00000  Uiso   1.00
O1140  O     0.44027   0.40970   0.71268   0.00000  Uiso   1.00
O1141  O     0.38257   0.45905   0.71071   0.00000  Uiso   1.00
N1142  N     0.57038   0.55148   0.95829   0.00000  Uiso   1.00
O1143  O     0.55973   0.59030   0.95398   0.00000  Uiso   1.00
O1144  O     0.61743   0.54095   0.95595   0.00000  Uiso   1.00
C1145  C     0.42250   0.45185   0.94256   0.00000  Uiso   1.00
H1146  H     0.43025   0.43525   0.91264   0.00000  Uiso   1.00
O1147  O     0.37818   0.45003   0.95158   0.00000  Uiso   1.00
C1148  C     0.57750   0.54815   0.72411   0.00000  Uiso   1.00
H1149  H     0.56975   0.56475   0.75402   0.00000  Uiso   1.00
O1150  O     0.62182   0.54997   0.71509   0.00000  Uiso   1.00
O1151  O     0.83333   0.43989   0.87291   0.00000  Uiso   1.00
O1152  O     0.83334   0.56011   0.79375   0.00000  Uiso   1.00
O1153  O     0.83333   0.43988   0.79372   0.00000  Uiso   1.00
O1154  O     0.83334   0.56012   0.87294   0.00000  Uiso   1.00
C1155  C     0.83476   0.42092   0.83372   0.00000  Uiso   1.00
C1156  C     0.83190   0.57908   0.83295   0.00000  Uiso   1.00
O1157  O     0.75828   0.50000   0.86379   0.00000  Uiso   1.00
O1158  O     0.90839   0.50000   0.80288   0.00000  Uiso   1.00
O1159  O     0.75828   0.49999   0.78460   0.00000  Uiso   1.00
O1160  O     0.90839   0.50001   0.88207   0.00000  Uiso   1.00
C1161  C     0.73472   0.49966   0.82136   0.00000  Uiso   1.00
C1162  C     0.93194   0.50034   0.84531   0.00000  Uiso   1.00
Cu1163 Cu    0.83333   0.50001   0.88022   0.00000  Uiso   1.00
Cu1164 Cu    0.83333   0.49999   0.78645   0.00000  Uiso   1.00
N1165  N     0.83335   0.50001   0.95069   0.00000  Uiso   1.00
N1166  N     0.83332   0.49999   0.71597   0.00000  Uiso   1.00
C1167  C     0.67934   0.49871   0.81490   0.00000  Uiso   1.00
C1168  C     0.98733   0.50129   0.85176   0.00000  Uiso   1.00
H1169  H     0.99267   0.49547   0.77962   0.00000  Uiso   1.00
H1170  H     0.67399   0.50453   0.88705   0.00000  Uiso   1.00
C1171  C     0.86364   0.35536   0.80356   0.00000  Uiso   1.00
C1172  C     0.80303   0.64464   0.86311   0.00000  Uiso   1.00
C1173  C     0.85963   0.64580   0.80249   0.00000  Uiso   1.00
C1174  C     0.80703   0.35420   0.86417   0.00000  Uiso   1.00
H1175  H     0.88150   0.62958   0.77978   0.00000  Uiso   1.00
H1176  H     0.78517   0.37042   0.88689   0.00000  Uiso   1.00
C1177  C     0.83034   0.62373   0.83233   0.00000  Uiso   1.00
C1178  C     0.83633   0.37627   0.83434   0.00000  Uiso   1.00
C1179  C     0.79755   0.47638   0.68770   0.00000  Uiso   1.00
C1180  C     0.86912   0.52362   0.97896   0.00000  Uiso   1.00
C1181  C     0.79689   0.47677   0.97142   0.00000  Uiso   1.00
C1182  C     0.86978   0.52323   0.69524   0.00000  Uiso   1.00
N1183  N     0.89732   0.37687   0.77502   0.00000  Uiso   1.00
O1184  O     0.92898   0.40646   0.79262   0.00000  Uiso   1.00
O1185  O     0.90217   0.36285   0.73393   0.00000  Uiso   1.00
N1186  N     0.76934   0.62313   0.89164   0.00000  Uiso   1.00
O1187  O     0.73769   0.59354   0.87404   0.00000  Uiso   1.00
O1188  O     0.76450   0.63715   0.93273   0.00000  Uiso   1.00
N1189  N     0.76296   0.44852   0.70838   0.00000  Uiso   1.00
O1190  O     0.77361   0.40970   0.71268   0.00000  Uiso   1.00
O1191  O     0.71590   0.45905   0.71071   0.00000  Uiso   1.00
N1192  N     0.90371   0.55148   0.95829   0.00000  Uiso   1.00
O1193  O     0.89306   0.59030   0.95398   0.00000  Uiso   1.00
O1194  O     0.95076   0.54095   0.95595   0.00000  Uiso   1.00
C1195  C     0.75583   0.45185   0.94256   0.00000  Uiso   1.00
H1196  H     0.76358   0.43525   0.91264   0.00000  Uiso   1.00
O1197  O     0.71151   0.45003   0.95158   0.00000  Uiso   1.00
C1198  C     0.91084   0.54815   0.72411   0.00000  Uiso   1.00
H1199  H     0.90309   0.56475   0.75402   0.00000  Uiso   1.00
O1200  O     0.95515   0.54997   0.71509   0.00000  Uiso   1.00
O1201  O     0.16666   0.77322   0.87291   0.00000  Uiso   1.00
O1202  O     0.16667   0.89345   0.79375   0.00000  Uiso   1.00
O1203  O     0.16666   0.77321   0.79372   0.00000  Uiso   1.00
O1204  O     0.16667   0.89346   0.87294   0.00000  Uiso   1.00
C1205  C     0.16810   0.75426   0.83372   0.00000  Uiso   1.00
C1206  C     0.16523   0.91241   0.83295   0.00000  Uiso   1.00
O1207  O     0.09161   0.83334   0.86379   0.00000  Uiso   1.00
O1208  O     0.24172   0.83333   0.80288   0.00000  Uiso   1.00
O1209  O     0.09161   0.83333   0.78460   0.00000  Uiso   1.00
O1210  O     0.24172   0.83334   0.88207   0.00000  Uiso   1.00
C1211  C     0.06806   0.83299   0.82136   0.00000  Uiso   1.00
C1212  C     0.26528   0.83368   0.84531   0.00000  Uiso   1.00
Cu1213 Cu    0.16667   0.83334   0.88022   0.00000  Uiso   1.00
Cu1214 Cu    0.16667   0.83333   0.78645   0.00000  Uiso   1.00
N1215  N     0.16668   0.83334   0.95069   0.00000  Uiso   1.00
N1216  N     0.16665   0.83332   0.71597   0.00000  Uiso   1.00
C1217  C     0.01267   0.83204   0.81490   0.00000  Uiso   1.00
C1218  C     0.32066   0.83462   0.85176   0.00000  Uiso   1.00
H1219  H     0.32601   0.82880   0.77962   0.00000  Uiso   1.00
H1220  H     0.00733   0.83787   0.88705   0.00000  Uiso   1.00
C1221  C     0.19697   0.68870   0.80356   0.00000  Uiso   1.00
C1222  C     0.13636   0.97797   0.86311   0.00000  Uiso   1.00
C1223  C     0.19296   0.97913   0.80249   0.00000  Uiso   1.00
C1224  C     0.14037   0.68753   0.86417   0.00000  Uiso   1.00
H1225  H     0.21483   0.96291   0.77978   0.00000  Uiso   1.00
H1226  H     0.11850   0.70376   0.88689   0.00000  Uiso   1.00
C1227  C     0.16367   0.95706   0.83233   0.00000  Uiso   1.00
C1228  C     0.16966   0.70961   0.83434   0.00000  Uiso   1.00
C1229  C     0.13088   0.80972   0.68770   0.00000  Uiso   1.00
C1230  C     0.20245   0.85695   0.97896   0.00000  Uiso   1.00
C1231  C     0.13022   0.81010   0.97142   0.00000  Uiso   1.00
C1232  C     0.20311   0.85657   0.69524   0.00000  Uiso   1.00
N1233  N     0.23066   0.71020   0.77502   0.00000  Uiso   1.00
O1234  O     0.26231   0.73979   0.79262   0.00000  Uiso   1.00
O1235  O     0.23550   0.69618   0.73393   0.00000  Uiso   1.00
N1236  N     0.10268   0.95647   0.89164   0.00000  Uiso   1.00
O1237  O     0.07102   0.92687   0.87404   0.00000  Uiso   1.00
O1238  O     0.09783   0.97048   0.93273   0.00000  Uiso   1.00
N1239  N     0.09629   0.78186   0.70838   0.00000  Uiso   1.00
O1240  O     0.10694   0.74303   0.71268   0.00000  Uiso   1.00
O1241  O     0.04923   0.79239   0.71071   0.00000  Uiso   1.00
N1242  N     0.23704   0.88481   0.95829   0.00000  Uiso   1.00
O1243  O     0.22639   0.92363   0.95398   0.00000  Uiso   1.00
O1244  O     0.28410   0.87428   0.95595   0.00000  Uiso   1.00
C1245  C     0.08916   0.78518   0.94256   0.00000  Uiso   1.00
H1246  H     0.09691   0.76858   0.91264   0.00000  Uiso   1.00
O1247  O     0.04485   0.78337   0.95158   0.00000  Uiso   1.00
C1248  C     0.24417   0.88149   0.72411   0.00000  Uiso   1.00
H1249  H     0.23642   0.89808   0.75402   0.00000  Uiso   1.00
O1250  O     0.28849   0.88330   0.71509   0.00000  Uiso   1.00
O1251  O     0.50000   0.77322   0.87291   0.00000  Uiso   1.00
O1252  O     0.50000   0.89345   0.79375   0.00000  Uiso   1.00
O1253  O     0.50000   0.77321   0.79372   0.00000  Uiso   1.00
O1254  O     0.50000   0.89346   0.87294   0.00000  Uiso   1.00
C1255  C     0.50143   0.75426   0.83372   0.00000  Uiso   1.00
C1256  C     0.49857   0.91241   0.83295   0.00000  Uiso   1.00
O1257  O     0.42495   0.83334   0.86379   0.00000  Uiso   1.00
O1258  O     0.57505   0.83333   0.80288   0.00000  Uiso   1.00
O1259  O     0.42494   0.83333   0.78460   0.00000  Uiso   1.00
O1260  O     0.57506   0.83334   0.88207   0.00000  Uiso   1.00
C1261  C     0.40139   0.83299   0.82136   0.00000  Uiso   1.00
C1262  C     0.59861   0.83368   0.84531   0.00000  Uiso   1.00
Cu1263 Cu    0.50000   0.83334   0.88022   0.00000  Uiso   1.00
Cu1264 Cu    0.50000   0.83333   0.78645   0.00000  Uiso   1.00
N1265  N     0.50001   0.83334   0.95069   0.00000  Uiso   1.00
N1266  N     0.49999   0.83332   0.71597   0.00000  Uiso   1.00
C1267  C     0.34601   0.83204   0.81490   0.00000  Uiso   1.00
C1268  C     0.65399   0.83462   0.85176   0.00000  Uiso   1.00
H1269  H     0.65934   0.82880   0.77962   0.00000  Uiso   1.00
H1270  H     0.34066   0.83787   0.88705   0.00000  Uiso   1.00
C1271  C     0.53030   0.68870   0.80356   0.00000  Uiso   1.00
C1272  C     0.46970   0.97797   0.86311   0.00000  Uiso   1.00
C1273  C     0.52630   0.97913   0.80249   0.00000  Uiso   1.00
C1274  C     0.47370   0.68753   0.86417   0.00000  Uiso   1.00
H1275  H     0.54816   0.96291   0.77978   0.00000  Uiso   1.00
H1276  H     0.45184   0.70376   0.88689   0.00000  Uiso   1.00
C1277  C     0.49700   0.95706   0.83233   0.00000  Uiso   1.00
C1278  C     0.50299   0.70961   0.83434   0.00000  Uiso   1.00
C1279  C     0.46421   0.80972   0.68770   0.00000  Uiso   1.00
C1280  C     0.53579   0.85695   0.97896   0.00000  Uiso   1.00
C1281  C     0.46356   0.81010   0.97142   0.00000  Uiso   1.00
C1282  C     0.53644   0.85657   0.69524   0.00000  Uiso   1.00
N1283  N     0.56399   0.71020   0.77502   0.00000  Uiso   1.00
O1284  O     0.59564   0.73979   0.79262   0.00000  Uiso   1.00
O1285  O     0.56883   0.69618   0.73393   0.00000  Uiso   1.00
N1286  N     0.43601   0.95647   0.89164   0.00000  Uiso   1.00
O1287  O     0.40436   0.92687   0.87404   0.00000  Uiso   1.00
O1288  O     0.43117   0.97048   0.93273   0.00000  Uiso   1.00
N1289  N     0.42962   0.78186   0.70838   0.00000  Uiso   1.00
O1290  O     0.44027   0.74303   0.71268   0.00000  Uiso   1.00
O1291  O     0.38257   0.79239   0.71071   0.00000  Uiso   1.00
N1292  N     0.57038   0.88481   0.95829   0.00000  Uiso   1.00
O1293  O     0.55973   0.92363   0.95398   0.00000  Uiso   1.00
O1294  O     0.61743   0.87428   0.95595   0.00000  Uiso   1.00
C1295  C     0.42250   0.78518   0.94256   0.00000  Uiso   1.00
H1296  H     0.43025   0.76858   0.91264   0.00000  Uiso   1.00
O1297  O     0.37818   0.78337   0.95158   0.00000  Uiso   1.00
C1298  C     0.57750   0.88149   0.72411   0.00000  Uiso   1.00
H1299  H     0.56975   0.89808   0.75402   0.00000  Uiso   1.00
O1300  O     0.62182   0.88330   0.71509   0.00000  Uiso   1.00
O1301  O     0.83333   0.77322   0.87291   0.00000  Uiso   1.00
O1302  O     0.83334   0.89345   0.79375   0.00000  Uiso   1.00
O1303  O     0.83333   0.77321   0.79372   0.00000  Uiso   1.00
O1304  O     0.83334   0.89346   0.87294   0.00000  Uiso   1.00
C1305  C     0.83476   0.75426   0.83372   0.00000  Uiso   1.00
C1306  C     0.83190   0.91241   0.83295   0.00000  Uiso   1.00
O1307  O     0.75828   0.83334   0.86379   0.00000  Uiso   1.00
O1308  O     0.90839   0.83333   0.80288   0.00000  Uiso   1.00
O1309  O     0.75828   0.83333   0.78460   0.00000  Uiso   1.00
O1310  O     0.90839   0.83334   0.88207   0.00000  Uiso   1.00
C1311  C     0.73472   0.83299   0.82136   0.00000  Uiso   1.00
C1312  C     0.93194   0.83368   0.84531   0.00000  Uiso   1.00
Cu1313 Cu    0.83333   0.83334   0.88022   0.00000  Uiso   1.00
Cu1314 Cu    0.83333   0.83333   0.78645   0.00000  Uiso   1.00
N1315  N     0.83335   0.83334   0.95069   0.00000  Uiso   1.00
N1316  N     0.83332   0.83332   0.71597   0.00000  Uiso   1.00
C1317  C     0.67934   0.83204   0.81490   0.00000  Uiso   1.00
C1318  C     0.98733   0.83462   0.85176   0.00000  Uiso   1.00
H1319  H     0.99267   0.82880   0.77962   0.00000  Uiso   1.00
H1320  H     0.67399   0.83787   0.88705   0.00000  Uiso   1.00
C1321  C     0.86364   0.68870   0.80356   0.00000  Uiso   1.00
C1322  C     0.80303   0.97797   0.86311   0.00000  Uiso   1.00
C1323  C     0.85963   0.97913   0.80249   0.00000  Uiso   1.00
C1324  C     0.80703   0.68753   0.86417   0.00000  Uiso   1.00
H1325  H     0.88150   0.96291   0.77978   0.00000  Uiso   1.00
H1326  H     0.78517   0.70376   0.88689   0.00000  Uiso   1.00
C1327  C     0.83034   0.95706   0.83233   0.00000  Uiso   1.00
C1328  C     0.83633   0.70961   0.83434   0.00000  Uiso   1.00
C1329  C     0.79755   0.80972   0.68770   0.00000  Uiso   1.00
C1330  C     0.86912   0.85695   0.97896   0.00000  Uiso   1.00
C1331  C     0.79689   0.81010   0.97142   0.00000  Uiso   1.00
C1332  C     0.86978   0.85657   0.69524   0.00000  Uiso   1.00
N1333  N     0.89732   0.71020   0.77502   0.00000  Uiso   1.00
O1334  O     0.92898   0.73979   0.79262   0.00000  Uiso   1.00
O1335  O     0.90217   0.69618   0.73393   0.00000  Uiso   1.00
N1336  N     0.76934   0.95647   0.89164   0.00000  Uiso   1.00
O1337  O     0.73769   0.92687   0.87404   0.00000  Uiso   1.00
O1338  O     0.76450   0.97048   0.93273   0.00000  Uiso   1.00
N1339  N     0.76296   0.78186   0.70838   0.00000  Uiso   1.00
O1340  O     0.77361   0.74303   0.71268   0.00000  Uiso   1.00
O1341  O     0.71590   0.79239   0.71071   0.00000  Uiso   1.00
N1342  N     0.90371   0.88481   0.95829   0.00000  Uiso   1.00
O1343  O     0.89306   0.92363   0.95398   0.00000  Uiso   1.00
O1344  O     0.95076   0.87428   0.95595   0.00000  Uiso   1.00
C1345  C     0.75583   0.78518   0.94256   0.00000  Uiso   1.00
H1346  H     0.76358   0.76858   0.91264   0.00000  Uiso   1.00
O1347  O     0.71151   0.78337   0.95158   0.00000  Uiso   1.00
C1348  C     0.91084   0.88149   0.72411   0.00000  Uiso   1.00
H1349  H     0.90309   0.89808   0.75402   0.00000  Uiso   1.00
O1350  O     0.95515   0.88330   0.71509   0.00000  Uiso   1.00
loop_
_geom_bond_atom_site_label_1
_geom_bond_atom_site_label_2
_geom_bond_distance
_geom_bond_site_symmetry_2
_ccdc_geom_bond_type
O1     C5      1.302   .     A
O1     Cu13    1.962   .     S
O2     C6      1.302   .     A
O2     Cu14    1.962   .     S
O3     Cu14    1.956   .     S
O3     C5      1.299   .     A
O4     C6      1.299   .     A
O4     Cu13    1.956   .     S
C5     C28     1.449   .     S
C6     C27     1.449   .     S
O7     C11     1.296   .     A
O7     Cu13    1.955   .     S
O8     C12     1.296   .     A
O8     Cu14    1.955   .     S
O9     Cu14    1.955   .     S
O9     C11     1.298   .     A
O10    C12     1.298   .     A
O10    Cu13    1.955   .     S
C11    C17     1.433   .     S
C12    C18     1.433   .     S
Cu13   N15     2.037   .     S
Cu13   Cu14    2.711   .     S
Cu14   N16     2.037   .     S
N15    C31     1.384   .     A
N15    C30     1.370   .     A
N16    C32     1.384   .     A
N16    C29     1.370   .     A
C17    C118    1.334   1_455 S
C17    H119    1.086   1_455 S
C18    C67     1.334   .     S
C18    H70     1.086   .     S
H19    C67     1.086   .     S
H20    C118    1.086   1_455 S
C21    C28     1.411   .     A
C21    N33     1.438   .     S
C21    C323    1.390   1_545 S
C22    N36     1.438   .     S
C22    C27     1.411   .     A
C22    C174    1.390   .     S
C23    C27     1.399   .     A
C23    H25     1.082   .     S
C23    C171    1.390   .     S
C24    H26     1.082   .     S
C24    C28     1.399   .     A
C24    C322    1.390   1_545 S
C29    N39     1.432   .     S
C29    C931    1.432   1_554 S
C30    N42     1.432   .     S
C30    C482    1.432   .     S
C31    C45     1.484   .     S
C31    C479    1.432   .     S
C32    C48     1.484   .     S
C32    C930    1.432   1_554 S
N33    O34     1.301   .     A
N33    O35     1.301   .     A
N36    O38     1.301   .     A
N36    O37     1.301   .     A
N39    O41     1.301   .     A
N39    O40     1.301   .     A
N42    O44     1.301   .     A
N42    O43     1.301   .     A
C45    H46     1.071   .     S
C45    O47     1.220   .     D
C48    O50     1.220   .     D
C48    H49     1.071   .     S
O51    C55     1.302   .     A
O51    Cu63    1.962   .     S
O52    C56     1.302   .     A
O52    Cu64    1.962   .     S
O53    Cu64    1.956   .     S
O53    C55     1.299   .     A
O54    C56     1.299   .     A
O54    Cu63    1.956   .     S
C55    C78     1.449   .     S
C56    C77     1.449   .     S
O57    C61     1.296   .     A
O57    Cu63    1.955   .     S
O58    C62     1.296   .     A
O58    Cu64    1.955   .     S
O59    Cu64    1.955   .     S
O59    C61     1.298   .     A
O60    C62     1.298   .     A
O60    Cu63    1.955   .     S
C61    C67     1.433   .     S
C62    C68     1.433   .     S
Cu63   N65     2.037   .     S
Cu63   Cu64    2.711   .     S
Cu64   N66     2.037   .     S
N65    C81     1.384   .     A
N65    C80     1.370   .     A
N66    C82     1.384   .     A
N66    C79     1.370   .     A
C68    C117    1.334   .     S
C68    H120    1.086   .     S
H69    C117    1.086   .     S
C71    C78     1.411   .     A
C71    N83     1.438   .     S
C71    C373    1.390   1_545 S
C72    N86     1.438   .     S
C72    C77     1.411   .     A
C72    C224    1.390   .     S
C73    C77     1.399   .     A
C73    H75     1.082   .     S
C73    C221    1.390   .     S
C74    H76     1.082   .     S
C74    C78     1.399   .     A
C74    C372    1.390   1_545 S
C79    N89     1.432   .     S
C79    C981    1.432   1_554 S
C80    N92     1.432   .     S
C80    C532    1.432   .     S
C81    C95     1.484   .     S
C81    C529    1.432   .     S
C82    C98     1.484   .     S
C82    C980    1.432   1_554 S
N83    O84     1.301   .     A
N83    O85     1.301   .     A
N86    O88     1.301   .     A
N86    O87     1.301   .     A
N89    O91     1.301   .     A
N89    O90     1.301   .     A
N92    O94     1.301   .     A
N92    O93     1.301   .     A
C95    H96     1.071   .     S
C95    O97     1.220   .     D
C98    O100    1.220   .     D
C98    H99     1.071   .     S
O101   C105    1.302   .     A
O101   Cu113   1.962   .     S
O102   C106    1.302   .     A
O102   Cu114   1.962   .     S
O103   Cu114   1.956   .     S
O103   C105    1.299   .     A
O104   C106    1.299   .     A
O104   Cu113   1.956   .     S
C105   C128    1.449   .     S
C106   C127    1.449   .     S
O107   C111    1.296   .     A
O107   Cu113   1.955   .     S
O108   C112    1.296   .     A
O108   Cu114   1.955   .     S
O109   Cu114   1.955   .     S
O109   C111    1.298   .     A
O110   C112    1.298   .     A
O110   Cu113   1.955   .     S
C111   C117    1.433   .     S
C112   C118    1.433   .     S
Cu113  N115    2.037   .     S
Cu113  Cu114   2.711   .     S
Cu114  N116    2.037   .     S
N115   C131    1.384   .     A
N115   C130    1.370   .     A
N116   C132    1.384   .     A
N116   C129    1.370   .     A
C118   C17     1.334   1_655 S
C118   H20     1.086   1_655 S
H119   C17     1.086   1_655 S
C121   C128    1.411   .     A
C121   N133    1.438   .     S
C121   C423    1.390   1_545 S
C122   N136    1.438   .     S
C122   C127    1.411   .     A
C122   C274    1.390   .     S
C123   C127    1.399   .     A
C123   H125    1.082   .     S
C123   C271    1.390   .     S
C124   H126    1.082   .     S
C124   C128    1.399   .     A
C124   C422    1.390   1_545 S
C129   N139    1.432   .     S
C129   C1031   1.432   1_554 S
C130   N142    1.432   .     S
C130   C582    1.432   .     S
C131   C145    1.484   .     S
C131   C579    1.432   .     S
C132   C148    1.484   .     S
C132   C1030   1.432   1_554 S
N133   O134    1.301   .     A
N133   O135    1.301   .     A
N136   O138    1.301   .     A
N136   O137    1.301   .     A
N139   O141    1.301   .     A
N139   O140    1.301   .     A
N142   O144    1.301   .     A
N142   O143    1.301   .     A
C145   H146    1.071   .     S
C145   O147    1.220   .     D
C148   O150    1.220   .     D
C148   H149    1.071   .     S
O151   C155    1.302   .     A
O151   Cu163   1.962   .     S
O152   C156    1.302   .     A
O152   Cu164   1.962   .     S
O153   Cu164   1.956   .     S
O153   C155    1.299   .     A
O154   C156    1.299   .     A
O154   Cu163   1.956   .     S
C155   C178    1.449   .     S
C156   C177    1.449   .     S
O157   C161    1.296   .     A
O157   Cu163   1.955   .     S
O158   C162    1.296   .     A
O158   Cu164   1.955   .     S
O159   Cu164   1.955   .     S
O159   C161    1.298   .     A
O160   C162    1.298   .     A
O160   Cu163   1.955   .     S
C161   C167    1.433   .     S
C162   C168    1.433   .     S
Cu163  N165    2.037   .     S
Cu163  Cu164   2.711   .     S
Cu164  N166    2.037   .     S
N165   C181    1.384   .     A
N165   C180    1.370   .     A
N166   C182    1.384   .     A
N166   C179    1.370   .     A
C167   C268    1.334   1_455 S
C167   H269    1.086   1_455 S
C168   C217    1.334   .     S
C168   H220    1.086   .     S
H169   C217    1.086   .     S
H170   C268    1.086   1_455 S
C171   C178    1.411   .     A
C171   N183    1.438   .     S
C172   N186    1.438   .     S
C172   C177    1.411   .     A
C172   C324    1.390   .     S
C173   C177    1.399   .     A
C173   H175    1.082   .     S
C173   C321    1.390   .     S
C174   H176    1.082   .     S
C174   C178    1.399   .     A
C179   N189    1.432   .     S
C179   C1081   1.432   1_554 S
C180   N192    1.432   .     S
C180   C632    1.432   .     S
C181   C195    1.484   .     S
C181   C629    1.432   .     S
C182   C198    1.484   .     S
C182   C1080   1.432   1_554 S
N183   O184    1.301   .     A
N183   O185    1.301   .     A
N186   O188    1.301   .     A
N186   O187    1.301   .     A
N189   O191    1.301   .     A
N189   O190    1.301   .     A
N192   O194    1.301   .     A
N192   O193    1.301   .     A
C195   H196    1.071   .     S
C195   O197    1.220   .     D
C198   O200    1.220   .     D
C198   H199    1.071   .     S
O201   C205    1.302   .     A
O201   Cu213   1.962   .     S
O202   C206    1.302   .     A
O202   Cu214   1.962   .     S
O203   Cu214   1.956   .     S
O203   C205    1.299   .     A
O204   C206    1.299   .     A
O204   Cu213   1.956   .     S
C205   C228    1.449   .     S
C206   C227    1.449   .     S
O207   C211    1.296   .     A
O207   Cu213   1.955   .     S
O208   C212    1.296   .     A
O208   Cu214   1.955   .     S
O209   Cu214   1.955   .     S
O209   C211    1.298   .     A
O210   C212    1.298   .     A
O210   Cu213   1.955   .     S
C211   C217    1.433   .     S
C212   C218    1.433   .     S
Cu213  N215    2.037   .     S
Cu213  Cu214   2.711   .     S
Cu214  N216    2.037   .     S
N215   C231    1.384   .     A
N215   C230    1.370   .     A
N216   C232    1.384   .     A
N216   C229    1.370   .     A
C218   C267    1.334   .     S
C218   H270    1.086   .     S
H219   C267    1.086   .     S
C221   C228    1.411   .     A
C221   N233    1.438   .     S
C222   N236    1.438   .     S
C222   C227    1.411   .     A
C222   C374    1.390   .     S
C223   C227    1.399   .     A
C223   H225    1.082   .     S
C223   C371    1.390   .     S
C224   H226    1.082   .     S
C224   C228    1.399   .     A
C229   N239    1.432   .     S
C229   C1131   1.432   1_554 S
C230   N242    1.432   .     S
C230   C682    1.432   .     S
C231   C245    1.484   .     S
C231   C679    1.432   .     S
C232   C248    1.484   .     S
C232   C1130   1.432   1_554 S
N233   O234    1.301   .     A
N233   O235    1.301   .     A
N236   O238    1.301   .     A
N236   O237    1.301   .     A
N239   O241    1.301   .     A
N239   O240    1.301   .     A
N242   O244    1.301   .     A
N242   O243    1.301   .     A
C245   H246    1.071   .     S
C245   O247    1.220   .     D
C248   O250    1.220   .     D
C248   H249    1.071   .     S
O251   C255    1.302   .     A
O251   Cu263   1.962   .     S
O252   C256    1.302   .     A
O252   Cu264   1.962   .     S
O253   Cu264   1.956   .     S
O253   C255    1.299   .     A
O254   C256    1.299   .     A
O254   Cu263   1.956   .     S
C255   C278    1.449   .     S
C256   C277    1.449   .     S
O257   C261    1.296   .     A
O257   Cu263   1.955   .     S
O258   C262    1.296   .     A
O258   Cu264   1.955   .     S
O259   Cu264   1.955   .     S
O259   C261    1.298   .     A
O260   C262    1.298   .     A
O260   Cu263   1.955   .     S
C261   C267    1.433   .     S
C262   C268    1.433   .     S
Cu263  N265    2.037   .     S
Cu263  Cu264   2.711   .     S
Cu264  N266    2.037   .     S
N265   C281    1.384   .     A
N265   C280    1.370   .     A
N266   C282    1.384   .     A
N266   C279    1.370   .     A
C268   C167    1.334   1_655 S
C268   H170    1.086   1_655 S
H269   C167    1.086   1_655 S
C271   C278    1.411   .     A
C271   N283    1.438   .     S
C272   N286    1.438   .     S
C272   C277    1.411   .     A
C272   C424    1.390   .     S
C273   C277    1.399   .     A
C273   H275    1.082   .     S
C273   C421    1.390   .     S
C274   H276    1.082   .     S
C274   C278    1.399   .     A
C279   N289    1.432   .     S
C279   C1181   1.432   1_554 S
C280   N292    1.432   .     S
C280   C732    1.432   .     S
C281   C295    1.484   .     S
C281   C729    1.432   .     S
C282   C298    1.484   .     S
C282   C1180   1.432   1_554 S
N283   O284    1.301   .     A
N283   O285    1.301   .     A
N286   O288    1.301   .     A
N286   O287    1.301   .     A
N289   O291    1.301   .     A
N289   O290    1.301   .     A
N292   O294    1.301   .     A
N292   O293    1.301   .     A
C295   H296    1.071   .     S
C295   O297    1.220   .     D
C298   O300    1.220   .     D
C298   H299    1.071   .     S
O301   C305    1.302   .     A
O301   Cu313   1.962   .     S
O302   C306    1.302   .     A
O302   Cu314   1.962   .     S
O303   Cu314   1.956   .     S
O303   C305    1.299   .     A
O304   C306    1.299   .     A
O304   Cu313   1.956   .     S
C305   C328    1.449   .     S
C306   C327    1.449   .     S
O307   C311    1.296   .     A
O307   Cu313   1.955   .     S
O308   C312    1.296   .     A
O308   Cu314   1.955   .     S
O309   Cu314   1.955   .     S
O309   C311    1.298   .     A
O310   C312    1.298   .     A
O310   Cu313   1.955   .     S
C311   C317    1.433   .     S
C312   C318    1.433   .     S
Cu313  N315    2.037   .     S
Cu313  Cu314   2.711   .     S
Cu314  N316    2.037   .     S
N315   C331    1.384   .     A
N315   C330    1.370   .     A
N316   C332    1.384   .     A
N316   C329    1.370   .     A
C317   C418    1.334   1_455 S
C317   H419    1.086   1_455 S
C318   C367    1.334   .     S
C318   H370    1.086   .     S
H319   C367    1.086   .     S
H320   C418    1.086   1_455 S
C321   C328    1.411   .     A
C321   N333    1.438   .     S
C322   N336    1.438   .     S
C322   C327    1.411   .     A
C322   C24     1.390   1_565 S
C323   C327    1.399   .     A
C323   H325    1.082   .     S
C323   C21     1.390   1_565 S
C324   H326    1.082   .     S
C324   C328    1.399   .     A
C329   N339    1.432   .     S
C329   C1231   1.432   1_554 S
C330   N342    1.432   .     S
C330   C782    1.432   .     S
C331   C345    1.484   .     S
C331   C779    1.432   .     S
C332   C348    1.484   .     S
C332   C1230   1.432   1_554 S
N333   O334    1.301   .     A
N333   O335    1.301   .     A
N336   O338    1.301   .     A
N336   O337    1.301   .     A
N339   O341    1.301   .     A
N339   O340    1.301   .     A
N342   O344    1.301   .     A
N342   O343    1.301   .     A
C345   H346    1.071   .     S
C345   O347    1.220   .     D
C348   O350    1.220   .     D
C348   H349    1.071   .     S
O351   C355    1.302   .     A
O351   Cu363   1.962   .     S
O352   C356    1.302   .     A
O352   Cu364   1.962   .     S
O353   Cu364   1.956   .     S
O353   C355    1.299   .     A
O354   C356    1.299   .     A
O354   Cu363   1.956   .     S
C355   C378    1.449   .     S
C356   C377    1.449   .     S
O357   C361    1.296   .     A
O357   Cu363   1.955   .     S
O358   C362    1.296   .     A
O358   Cu364   1.955   .     S
O359   Cu364   1.955   .     S
O359   C361    1.298   .     A
O360   C362    1.298   .     A
O360   Cu363   1.955   .     S
C361   C367    1.433   .     S
C362   C368    1.433   .     S
Cu363  N365    2.037   .     S
Cu363  Cu364   2.711   .     S
Cu364  N366    2.037   .     S
N365   C381    1.384   .     A
N365   C380    1.370   .     A
N366   C382    1.384   .     A
N366   C379    1.370   .     A
C368   C417    1.334   .     S
C368   H420    1.086   .     S
H369   C417    1.086   .     S
C371   C378    1.411   .     A
C371   N383    1.438   .     S
C372   N386    1.438   .     S
C372   C377    1.411   .     A
C372   C74     1.390   1_565 S
C373   C377    1.399   .     A
C373   H375    1.082   .     S
C373   C71     1.390   1_565 S
C374   H376    1.082   .     S
C374   C378    1.399   .     A
C379   N389    1.432   .     S
C379   C1281   1.432   1_554 S
C380   N392    1.432   .     S
C380   C832    1.432   .     S
C381   C395    1.484   .     S
C381   C829    1.432   .     S
C382   C398    1.484   .     S
C382   C1280   1.432   1_554 S
N383   O384    1.301   .     A
N383   O385    1.301   .     A
N386   O388    1.301   .     A
N386   O387    1.301   .     A
N389   O391    1.301   .     A
N389   O390    1.301   .     A
N392   O394    1.301   .     A
N392   O393    1.301   .     A
C395   H396    1.071   .     S
C395   O397    1.220   .     D
C398   O400    1.220   .     D
C398   H399    1.071   .     S
O401   C405    1.302   .     A
O401   Cu413   1.962   .     S
O402   C406    1.302   .     A
O402   Cu414   1.962   .     S
O403   Cu414   1.956   .     S
O403   C405    1.299   .     A
O404   C406    1.299   .     A
O404   Cu413   1.956   .     S
C405   C428    1.449   .     S
C406   C427    1.449   .     S
O407   C411    1.296   .     A
O407   Cu413   1.955   .     S
O408   C412    1.296   .     A
O408   Cu414   1.955   .     S
O409   Cu414   1.955   .     S
O409   C411    1.298   .     A
O410   C412    1.298   .     A
O410   Cu413   1.955   .     S
C411   C417    1.433   .     S
C412   C418    1.433   .     S
Cu413  N415    2.037   .     S
Cu413  Cu414   2.711   .     S
Cu414  N416    2.037   .     S
N415   C431    1.384   .     A
N415   C430    1.370   .     A
N416   C432    1.384   .     A
N416   C429    1.370   .     A
C418   C317    1.334   1_655 S
C418   H320    1.086   1_655 S
H419   C317    1.086   1_655 S
C421   C428    1.411   .     A
C421   N433    1.438   .     S
C422   N436    1.438   .     S
C422   C427    1.411   .     A
C422   C124    1.390   1_565 S
C423   C427    1.399   .     A
C423   H425    1.082   .     S
C423   C121    1.390   1_565 S
C424   H426    1.082   .     S
C424   C428    1.399   .     A
C429   N439    1.432   .     S
C429   C1331   1.432   1_554 S
C430   N442    1.432   .     S
C430   C882    1.432   .     S
C431   C445    1.484   .     S
C431   C879    1.432   .     S
C432   C448    1.484   .     S
C432   C1330   1.432   1_554 S
N433   O434    1.301   .     A
N433   O435    1.301   .     A
N436   O438    1.301   .     A
N436   O437    1.301   .     A
N439   O441    1.301   .     A
N439   O440    1.301   .     A
N442   O444    1.301   .     A
N442   O443    1.301   .     A
C445   H446    1.071   .     S
C445   O447    1.220   .     D
C448   O450    1.220   .     D
C448   H449    1.071   .     S
O451   C455    1.302   .     A
O451   Cu463   1.962   .     S
O452   C456    1.302   .     A
O452   Cu464   1.962   .     S
O453   Cu464   1.956   .     S
O453   C455    1.299   .     A
O454   C456    1.299   .     A
O454   Cu463   1.956   .     S
C455   C478    1.449   .     S
C456   C477    1.449   .     S
O457   C461    1.296   .     A
O457   Cu463   1.955   .     S
O458   C462    1.296   .     A
O458   Cu464   1.955   .     S
O459   Cu464   1.955   .     S
O459   C461    1.298   .     A
O460   C462    1.298   .     A
O460   Cu463   1.955   .     S
C461   C467    1.433   .     S
C462   C468    1.433   .     S
Cu463  N465    2.037   .     S
Cu463  Cu464   2.711   .     S
Cu464  N466    2.037   .     S
N465   C481    1.384   .     A
N465   C480    1.370   .     A
N466   C482    1.384   .     A
N466   C479    1.370   .     A
C467   C568    1.334   1_455 S
C467   H569    1.086   1_455 S
C468   C517    1.334   .     S
C468   H520    1.086   .     S
H469   C517    1.086   .     S
H470   C568    1.086   1_455 S
C471   C478    1.411   .     A
C471   N483    1.438   .     S
C471   C773    1.390   1_545 S
C472   N486    1.438   .     S
C472   C477    1.411   .     A
C472   C624    1.390   .     S
C473   C477    1.399   .     A
C473   H475    1.082   .     S
C473   C621    1.390   .     S
C474   H476    1.082   .     S
C474   C478    1.399   .     A
C474   C772    1.390   1_545 S
C479   N489    1.432   .     S
C480   N492    1.432   .     S
C480   C932    1.432   .     S
C481   C495    1.484   .     S
C481   C929    1.432   .     S
C482   C498    1.484   .     S
N483   O484    1.301   .     A
N483   O485    1.301   .     A
N486   O488    1.301   .     A
N486   O487    1.301   .     A
N489   O491    1.301   .     A
N489   O490    1.301   .     A
N492   O494    1.301   .     A
N492   O493    1.301   .     A
C495   H496    1.071   .     S
C495   O497    1.220   .     D
C498   O500    1.220   .     D
C498   H499    1.071   .     S
O501   C505    1.302   .     A
O501   Cu513   1.962   .     S
O502   C506    1.302   .     A
O502   Cu514   1.962   .     S
O503   Cu514   1.956   .     S
O503   C505    1.299   .     A
O504   C506    1.299   .     A
O504   Cu513   1.956   .     S
C505   C528    1.449   .     S
C506   C527    1.449   .     S
O507   C511    1.296   .     A
O507   Cu513   1.955   .     S
O508   C512    1.296   .     A
O508   Cu514   1.955   .     S
O509   Cu514   1.955   .     S
O509   C511    1.298   .     A
O510   C512    1.298   .     A
O510   Cu513   1.955   .     S
C511   C517    1.433   .     S
C512   C518    1.433   .     S
Cu513  N515    2.037   .     S
Cu513  Cu514   2.711   .     S
Cu514  N516    2.037   .     S
N515   C531    1.384   .     A
N515   C530    1.370   .     A
N516   C532    1.384   .     A
N516   C529    1.370   .     A
C518   C567    1.334   .     S
C518   H570    1.086   .     S
H519   C567    1.086   .     S
C521   C528    1.411   .     A
C521   N533    1.438   .     S
C521   C823    1.390   1_545 S
C522   N536    1.438   .     S
C522   C527    1.411   .     A
C522   C674    1.390   .     S
C523   C527    1.399   .     A
C523   H525    1.082   .     S
C523   C671    1.390   .     S
C524   H526    1.082   .     S
C524   C528    1.399   .     A
C524   C822    1.390   1_545 S
C529   N539    1.432   .     S
C530   N542    1.432   .     S
C530   C982    1.432   .     S
C531   C545    1.484   .     S
C531   C979    1.432   .     S
C532   C548    1.484   .     S
N533   O534    1.301   .     A
N533   O535    1.301   .     A
N536   O538    1.301   .     A
N536   O537    1.301   .     A
N539   O541    1.301   .     A
N539   O540    1.301   .     A
N542   O544    1.301   .     A
N542   O543    1.301   .     A
C545   H546    1.071   .     S
C545   O547    1.220   .     D
C548   O550    1.220   .     D
C548   H549    1.071   .     S
O551   C555    1.302   .     A
O551   Cu563   1.962   .     S
O552   C556    1.302   .     A
O552   Cu564   1.962   .     S
O553   Cu564   1.956   .     S
O553   C555    1.299   .     A
O554   C556    1.299   .     A
O554   Cu563   1.956   .     S
C555   C578    1.449   .     S
C556   C577    1.449   .     S
O557   C561    1.296   .     A
O557   Cu563   1.955   .     S
O558   C562    1.296   .     A
O558   Cu564   1.955   .     S
O559   Cu564   1.955   .     S
O559   C561    1.298   .     A
O560   C562    1.298   .     A
O560   Cu563   1.955   .     S
C561   C567    1.433   .     S
C562   C568    1.433   .     S
Cu563  N565    2.037   .     S
Cu563  Cu564   2.711   .     S
Cu564  N566    2.037   .     S
N565   C581    1.384   .     A
N565   C580    1.370   .     A
N566   C582    1.384   .     A
N566   C579    1.370   .     A
C568   C467    1.334   1_655 S
C568   H470    1.086   1_655 S
H569   C467    1.086   1_655 S
C571   C578    1.411   .     A
C571   N583    1.438   .     S
C571   C873    1.390   1_545 S
C572   N586    1.438   .     S
C572   C577    1.411   .     A
C572   C724    1.390   .     S
C573   C577    1.399   .     A
C573   H575    1.082   .     S
C573   C721    1.390   .     S
C574   H576    1.082   .     S
C574   C578    1.399   .     A
C574   C872    1.390   1_545 S
C579   N589    1.432   .     S
C580   N592    1.432   .     S
C580   C1032   1.432   .     S
C581   C595    1.484   .     S
C581   C1029   1.432   .     S
C582   C598    1.484   .     S
N583   O584    1.301   .     A
N583   O585    1.301   .     A
N586   O588    1.301   .     A
N586   O587    1.301   .     A
N589   O591    1.301   .     A
N589   O590    1.301   .     A
N592   O594    1.301   .     A
N592   O593    1.301   .     A
C595   H596    1.071   .     S
C595   O597    1.220   .     D
C598   O600    1.220   .     D
C598   H599    1.071   .     S
O601   C605    1.302   .     A
O601   Cu613   1.962   .     S
O602   C606    1.302   .     A
O602   Cu614   1.962   .     S
O603   Cu614   1.956   .     S
O603   C605    1.299   .     A
O604   C606    1.299   .     A
O604   Cu613   1.956   .     S
C605   C628    1.449   .     S
C606   C627    1.449   .     S
O607   C611    1.296   .     A
O607   Cu613   1.955   .     S
O608   C612    1.296   .     A
O608   Cu614   1.955   .     S
O609   Cu614   1.955   .     S
O609   C611    1.298   .     A
O610   C612    1.298   .     A
O610   Cu613   1.955   .     S
C611   C617    1.433   .     S
C612   C618    1.433   .     S
Cu613  N615    2.037   .     S
Cu613  Cu614   2.711   .     S
Cu614  N616    2.037   .     S
N615   C631    1.384   .     A
N615   C630    1.370   .     A
N616   C632    1.384   .     A
N616   C629    1.370   .     A
C617   C718    1.334   1_455 S
C617   H719    1.086   1_455 S
C618   C667    1.334   .     S
C618   H670    1.086   .     S
H619   C667    1.086   .     S
H620   C718    1.086   1_455 S
C621   C628    1.411   .     A
C621   N633    1.438   .     S
C622   N636    1.438   .     S
C622   C627    1.411   .     A
C622   C774    1.390   .     S
C623   C627    1.399   .     A
C623   H625    1.082   .     S
C623   C771    1.390   .     S
C624   H626    1.082   .     S
C624   C628    1.399   .     A
C629   N639    1.432   .     S
C630   N642    1.432   .     S
C630   C1082   1.432   .     S
C631   C645    1.484   .     S
C631   C1079   1.432   .     S
C632   C648    1.484   .     S
N633   O634    1.301   .     A
N633   O635    1.301   .     A
N636   O638    1.301   .     A
N636   O637    1.301   .     A
N639   O641    1.301   .     A
N639   O640    1.301   .     A
N642   O644    1.301   .     A
N642   O643    1.301   .     A
C645   H646    1.071   .     S
C645   O647    1.220   .     D
C648   O650    1.220   .     D
C648   H649    1.071   .     S
O651   C655    1.302   .     A
O651   Cu663   1.962   .     S
O652   C656    1.302   .     A
O652   Cu664   1.962   .     S
O653   Cu664   1.956   .     S
O653   C655    1.299   .     A
O654   C656    1.299   .     A
O654   Cu663   1.956   .     S
C655   C678    1.449   .     S
C656   C677    1.449   .     S
O657   C661    1.296   .     A
O657   Cu663   1.955   .     S
O658   C662    1.296   .     A
O658   Cu664   1.955   .     S
O659   Cu664   1.955   .     S
O659   C661    1.298   .     A
O660   C662    1.298   .     A
O660   Cu663   1.955   .     S
C661   C667    1.433   .     S
C662   C668    1.433   .     S
Cu663  N665    2.037   .     S
Cu663  Cu664   2.711   .     S
Cu664  N666    2.037   .     S
N665   C681    1.384   .     A
N665   C680    1.370   .     A
N666   C682    1.384   .     A
N666   C679    1.370   .     A
C668   C717    1.334   .     S
C668   H720    1.086   .     S
H669   C717    1.086   .     S
C671   C678    1.411   .     A
C671   N683    1.438   .     S
C672   N686    1.438   .     S
C672   C677    1.411   .     A
C672   C824    1.390   .     S
C673   C677    1.399   .     A
C673   H675    1.082   .     S
C673   C821    1.390   .     S
C674   H676    1.082   .     S
C674   C678    1.399   .     A
C679   N689    1.432   .     S
C680   N692    1.432   .     S
C680   C1132   1.432   .     S
C681   C695    1.484   .     S
C681   C1129   1.432   .     S
C682   C698    1.484   .     S
N683   O684    1.301   .     A
N683   O685    1.301   .     A
N686   O688    1.301   .     A
N686   O687    1.301   .     A
N689   O691    1.301   .     A
N689   O690    1.301   .     A
N692   O694    1.301   .     A
N692   O693    1.301   .     A
C695   H696    1.071   .     S
C695   O697    1.220   .     D
C698   O700    1.220   .     D
C698   H699    1.071   .     S
O701   C705    1.302   .     A
O701   Cu713   1.962   .     S
O702   C706    1.302   .     A
O702   Cu714   1.962   .     S
O703   Cu714   1.956   .     S
O703   C705    1.299   .     A
O704   C706    1.299   .     A
O704   Cu713   1.956   .     S
C705   C728    1.449   .     S
C706   C727    1.449   .     S
O707   C711    1.296   .     A
O707   Cu713   1.955   .     S
O708   C712    1.296   .     A
O708   Cu714   1.955   .     S
O709   Cu714   1.955   .     S
O709   C711    1.298   .     A
O710   C712    1.298   .     A
O710   Cu713   1.955   .     S
C711   C717    1.433   .     S
C712   C718    1.433   .     S
Cu713  N715    2.037   .     S
Cu713  Cu714   2.711   .     S
Cu714  N716    2.037   .     S
N715   C731    1.384   .     A
N715   C730    1.370   .     A
N716   C732    1.384   .     A
N716   C729    1.370   .     A
C718   C617    1.334   1_655 S
C718   H620    1.086   1_655 S
H719   C617    1.086   1_655 S
C721   C728    1.411   .     A
C721   N733    1.438   .     S
C722   N736    1.438   .     S
C722   C727    1.411   .     A
C722   C874    1.390   .     S
C723   C727    1.399   .     A
C723   H725    1.082   .     S
C723   C871    1.390   .     S
C724   H726    1.082   .     S
C724   C728    1.399   .     A
C729   N739    1.432   .     S
C730   N742    1.432   .     S
C730   C1182   1.432   .     S
C731   C745    1.484   .     S
C731   C1179   1.432   .     S
C732   C748    1.484   .     S
N733   O734    1.301   .     A
N733   O735    1.301   .     A
N736   O738    1.301   .     A
N736   O737    1.301   .     A
N739   O741    1.301   .     A
N739   O740    1.301   .     A
N742   O744    1.301   .     A
N742   O743    1.301   .     A
C745   H746    1.071   .     S
C745   O747    1.220   .     D
C748   O750    1.220   .     D
C748   H749    1.071   .     S
O751   C755    1.302   .     A
O751   Cu763   1.962   .     S
O752   C756    1.302   .     A
O752   Cu764   1.962   .     S
O753   Cu764   1.956   .     S
O753   C755    1.299   .     A
O754   C756    1.299   .     A
O754   Cu763   1.956   .     S
C755   C778    1.449   .     S
C756   C777    1.449   .     S
O757   C761    1.296   .     A
O757   Cu763   1.955   .     S
O758   C762    1.296   .     A
O758   Cu764   1.955   .     S
O759   Cu764   1.955   .     S
O759   C761    1.298   .     A
O760   C762    1.298   .     A
O760   Cu763   1.955   .     S
C761   C767    1.433   .     S
C762   C768    1.433   .     S
Cu763  N765    2.037   .     S
Cu763  Cu764   2.711   .     S
Cu764  N766    2.037   .     S
N765   C781    1.384   .     A
N765   C780    1.370   .     A
N766   C782    1.384   .     A
N766   C779    1.370   .     A
C767   C868    1.334   1_455 S
C767   H869    1.086   1_455 S
C768   C817    1.334   .     S
C768   H820    1.086   .     S
H769   C817    1.086   .     S
H770   C868    1.086   1_455 S
C771   C778    1.411   .     A
C771   N783    1.438   .     S
C772   N786    1.438   .     S
C772   C777    1.411   .     A
C772   C474    1.390   1_565 S
C773   C777    1.399   .     A
C773   H775    1.082   .     S
C773   C471    1.390   1_565 S
C774   H776    1.082   .     S
C774   C778    1.399   .     A
C779   N789    1.432   .     S
C780   N792    1.432   .     S
C780   C1232   1.432   .     S
C781   C795    1.484   .     S
C781   C1229   1.432   .     S
C782   C798    1.484   .     S
N783   O784    1.301   .     A
N783   O785    1.301   .     A
N786   O788    1.301   .     A
N786   O787    1.301   .     A
N789   O791    1.301   .     A
N789   O790    1.301   .     A
N792   O794    1.301   .     A
N792   O793    1.301   .     A
C795   H796    1.071   .     S
C795   O797    1.220   .     D
C798   O800    1.220   .     D
C798   H799    1.071   .     S
O801   C805    1.302   .     A
O801   Cu813   1.962   .     S
O802   C806    1.302   .     A
O802   Cu814   1.962   .     S
O803   Cu814   1.956   .     S
O803   C805    1.299   .     A
O804   C806    1.299   .     A
O804   Cu813   1.956   .     S
C805   C828    1.449   .     S
C806   C827    1.449   .     S
O807   C811    1.296   .     A
O807   Cu813   1.955   .     S
O808   C812    1.296   .     A
O808   Cu814   1.955   .     S
O809   Cu814   1.955   .     S
O809   C811    1.298   .     A
O810   C812    1.298   .     A
O810   Cu813   1.955   .     S
C811   C817    1.433   .     S
C812   C818    1.433   .     S
Cu813  N815    2.037   .     S
Cu813  Cu814   2.711   .     S
Cu814  N816    2.037   .     S
N815   C831    1.384   .     A
N815   C830    1.370   .     A
N816   C832    1.384   .     A
N816   C829    1.370   .     A
C818   C867    1.334   .     S
C818   H870    1.086   .     S
H819   C867    1.086   .     S
C821   C828    1.411   .     A
C821   N833    1.438   .     S
C822   N836    1.438   .     S
C822   C827    1.411   .     A
C822   C524    1.390   1_565 S
C823   C827    1.399   .     A
C823   H825    1.082   .     S
C823   C521    1.390   1_565 S
C824   H826    1.082   .     S
C824   C828    1.399   .     A
C829   N839    1.432   .     S
C830   N842    1.432   .     S
C830   C1282   1.432   .     S
C831   C845    1.484   .     S
C831   C1279   1.432   .     S
C832   C848    1.484   .     S
N833   O834    1.301   .     A
N833   O835    1.301   .     A
N836   O838    1.301   .     A
N836   O837    1.301   .     A
N839   O841    1.301   .     A
N839   O840    1.301   .     A
N842   O844    1.301   .     A
N842   O843    1.301   .     A
C845   H846    1.071   .     S
C845   O847    1.220   .     D
C848   O850    1.220   .     D
C848   H849    1.071   .     S
O851   C855    1.302   .     A
O851   Cu863   1.962   .     S
O852   C856    1.302   .     A
O852   Cu864   1.962   .     S
O853   Cu864   1.956   .     S
O853   C855    1.299   .     A
O854   C856    1.299   .     A
O854   Cu863   1.956   .     S
C855   C878    1.449   .     S
C856   C877    1.449   .     S
O857   C861    1.296   .     A
O857   Cu863   1.955   .     S
O858   C862    1.296   .     A
O858   Cu864   1.955   .     S
O859   Cu864   1.955   .     S
O859   C861    1.298   .     A
O860   C862    1.298   .     A
O860   Cu863   1.955   .     S
C861   C867    1.433   .     S
C862   C868    1.433   .     S
Cu863  N865    2.037   .     S
Cu863  Cu864   2.711   .     S
Cu864  N866    2.037   .     S
N865   C881    1.384   .     A
N865   C880    1.370   .     A
N866   C882    1.384   .     A
N866   C879    1.370   .     A
C868   C767    1.334   1_655 S
C868   H770    1.086   1_655 S
H869   C767    1.086   1_655 S
C871   C878    1.411   .     A
C871   N883    1.438   .     S
C872   N886    1.438   .     S
C872   C877    1.411   .     A
C872   C574    1.390   1_565 S
C873   C877    1.399   .     A
C873   H875    1.082   .     S
C873   C571    1.390   1_565 S
C874   H876    1.082   .     S
C874   C878    1.399   .     A
C879   N889    1.432   .     S
C880   N892    1.432   .     S
C880   C1332   1.432   .     S
C881   C895    1.484   .     S
C881   C1329   1.432   .     S
C882   C898    1.484   .     S
N883   O884    1.301   .     A
N883   O885    1.301   .     A
N886   O888    1.301   .     A
N886   O887    1.301   .     A
N889   O891    1.301   .     A
N889   O890    1.301   .     A
N892   O894    1.301   .     A
N892   O893    1.301   .     A
C895   H896    1.071   .     S
C895   O897    1.220   .     D
C898   O900    1.220   .     D
C898   H899    1.071   .     S
O901   C905    1.302   .     A
O901   Cu913   1.962   .     S
O902   C906    1.302   .     A
O902   Cu914   1.962   .     S
O903   Cu914   1.956   .     S
O903   C905    1.299   .     A
O904   C906    1.299   .     A
O904   Cu913   1.956   .     S
C905   C928    1.449   .     S
C906   C927    1.449   .     S
O907   C911    1.296   .     A
O907   Cu913   1.955   .     S
O908   C912    1.296   .     A
O908   Cu914   1.955   .     S
O909   Cu914   1.955   .     S
O909   C911    1.298   .     A
O910   C912    1.298   .     A
O910   Cu913   1.955   .     S
C911   C917    1.433   .     S
C912   C918    1.433   .     S
Cu913  N915    2.037   .     S
Cu913  Cu914   2.711   .     S
Cu914  N916    2.037   .     S
N915   C931    1.384   .     A
N915   C930    1.370   .     A
N916   C932    1.384   .     A
N916   C929    1.370   .     A
C917   C1018   1.334   1_455 S
C917   H1019   1.086   1_455 S
C918   C967    1.334   .     S
C918   H970    1.086   .     S
H919   C967    1.086   .     S
H920   C1018   1.086   1_455 S
C921   C928    1.411   .     A
C921   N933    1.438   .     S
C921   C1223   1.390   1_545 S
C922   N936    1.438   .     S
C922   C927    1.411   .     A
C922   C1074   1.390   .     S
C923   C927    1.399   .     A
C923   H925    1.082   .     S
C923   C1071   1.390   .     S
C924   H926    1.082   .     S
C924   C928    1.399   .     A
C924   C1222   1.390   1_545 S
C929   N939    1.432   .     S
C930   N942    1.432   .     S
C930   C32     1.432   1_556 S
C931   C945    1.484   .     S
C931   C29     1.432   1_556 S
C932   C948    1.484   .     S
N933   O934    1.301   .     A
N933   O935    1.301   .     A
N936   O938    1.301   .     A
N936   O937    1.301   .     A
N939   O941    1.301   .     A
N939   O940    1.301   .     A
N942   O944    1.301   .     A
N942   O943    1.301   .     A
C945   H946    1.071   .     S
C945   O947    1.220   .     D
C948   O950    1.220   .     D
C948   H949    1.071   .     S
O951   C955    1.302   .     A
O951   Cu963   1.962   .     S
O952   C956    1.302   .     A
O952   Cu964   1.962   .     S
O953   Cu964   1.956   .     S
O953   C955    1.299   .     A
O954   C956    1.299   .     A
O954   Cu963   1.956   .     S
C955   C978    1.449   .     S
C956   C977    1.449   .     S
O957   C961    1.296   .     A
O957   Cu963   1.955   .     S
O958   C962    1.296   .     A
O958   Cu964   1.955   .     S
O959   Cu964   1.955   .     S
O959   C961    1.298   .     A
O960   C962    1.298   .     A
O960   Cu963   1.955   .     S
C961   C967    1.433   .     S
C962   C968    1.433   .     S
Cu963  N965    2.037   .     S
Cu963  Cu964   2.711   .     S
Cu964  N966    2.037   .     S
N965   C981    1.384   .     A
N965   C980    1.370   .     A
N966   C982    1.384   .     A
N966   C979    1.370   .     A
C968   C1017   1.334   .     S
C968   H1020   1.086   .     S
H969   C1017   1.086   .     S
C971   C978    1.411   .     A
C971   N983    1.438   .     S
C971   C1273   1.390   1_545 S
C972   N986    1.438   .     S
C972   C977    1.411   .     A
C972   C1124   1.390   .     S
C973   C977    1.399   .     A
C973   H975    1.082   .     S
C973   C1121   1.390   .     S
C974   H976    1.082   .     S
C974   C978    1.399   .     A
C974   C1272   1.390   1_545 S
C979   N989    1.432   .     S
C980   N992    1.432   .     S
C980   C82     1.432   1_556 S
C981   C995    1.484   .     S
C981   C79     1.432   1_556 S
C982   C998    1.484   .     S
N983   O984    1.301   .     A
N983   O985    1.301   .     A
N986   O988    1.301   .     A
N986   O987    1.301   .     A
N989   O991    1.301   .     A
N989   O990    1.301   .     A
N992   O994    1.301   .     A
N992   O993    1.301   .     A
C995   H996    1.071   .     S
C995   O997    1.220   .     D
C998   O1000   1.220   .     D
C998   H999    1.071   .     S
O1001  C1005   1.302   .     A
O1001  Cu1013  1.962   .     S
O1002  C1006   1.302   .     A
O1002  Cu1014  1.962   .     S
O1003  Cu1014  1.956   .     S
O1003  C1005   1.299   .     A
O1004  C1006   1.299   .     A
O1004  Cu1013  1.956   .     S
C1005  C1028   1.449   .     S
C1006  C1027   1.449   .     S
O1007  C1011   1.296   .     A
O1007  Cu1013  1.955   .     S
O1008  C1012   1.296   .     A
O1008  Cu1014  1.955   .     S
O1009  Cu1014  1.955   .     S
O1009  C1011   1.298   .     A
O1010  C1012   1.298   .     A
O1010  Cu1013  1.955   .     S
C1011  C1017   1.433   .     S
C1012  C1018   1.433   .     S
Cu1013 N1015   2.037   .     S
Cu1013 Cu1014  2.711   .     S
Cu1014 N1016   2.037   .     S
N1015  C1031   1.384   .     A
N1015  C1030   1.370   .     A
N1016  C1032   1.384   .     A
N1016  C1029   1.370   .     A
C1018  C917    1.334   1_655 S
C1018  H920    1.086   1_655 S
H1019  C917    1.086   1_655 S
C1021  C1028   1.411   .     A
C1021  N1033   1.438   .     S
C1021  C1323   1.390   1_545 S
C1022  N1036   1.438   .     S
C1022  C1027   1.411   .     A
C1022  C1174   1.390   .     S
C1023  C1027   1.399   .     A
C1023  H1025   1.082   .     S
C1023  C1171   1.390   .     S
C1024  H1026   1.082   .     S
C1024  C1028   1.399   .     A
C1024  C1322   1.390   1_545 S
C1029  N1039   1.432   .     S
C1030  N1042   1.432   .     S
C1030  C132    1.432   1_556 S
C1031  C1045   1.484   .     S
C1031  C129    1.432   1_556 S
C1032  C1048   1.484   .     S
N1033  O1034   1.301   .     A
N1033  O1035   1.301   .     A
N1036  O1038   1.301   .     A
N1036  O1037   1.301   .     A
N1039  O1041   1.301   .     A
N1039  O1040   1.301   .     A
N1042  O1044   1.301   .     A
N1042  O1043   1.301   .     A
C1045  H1046   1.071   .     S
C1045  O1047   1.220   .     D
C1048  O1050   1.220   .     D
C1048  H1049   1.071   .     S
O1051  C1055   1.302   .     A
O1051  Cu1063  1.962   .     S
O1052  C1056   1.302   .     A
O1052  Cu1064  1.962   .     S
O1053  Cu1064  1.956   .     S
O1053  C1055   1.299   .     A
O1054  C1056   1.299   .     A
O1054  Cu1063  1.956   .     S
C1055  C1078   1.449   .     S
C1056  C1077   1.449   .     S
O1057  C1061   1.296   .     A
O1057  Cu1063  1.955   .     S
O1058  C1062   1.296   .     A
O1058  Cu1064  1.955   .     S
O1059  Cu1064  1.955   .     S
O1059  C1061   1.298   .     A
O1060  C1062   1.298   .     A
O1060  Cu1063  1.955   .     S
C1061  C1067   1.433   .     S
C1062  C1068   1.433   .     S
Cu1063 N1065   2.037   .     S
Cu1063 Cu1064  2.711   .     S
Cu1064 N1066   2.037   .     S
N1065  C1081   1.384   .     A
N1065  C1080   1.370   .     A
N1066  C1082   1.384   .     A
N1066  C1079   1.370   .     A
C1067  C1168   1.334   1_455 S
C1067  H1169   1.086   1_455 S
C1068  C1117   1.334   .     S
C1068  H1120   1.086   .     S
H1069  C1117   1.086   .     S
H1070  C1168   1.086   1_455 S
C1071  C1078   1.411   .     A
C1071  N1083   1.438   .     S
C1072  N1086   1.438   .     S
C1072  C1077   1.411   .     A
C1072  C1224   1.390   .     S
C1073  C1077   1.399   .     A
C1073  H1075   1.082   .     S
C1073  C1221   1.390   .     S
C1074  H1076   1.082   .     S
C1074  C1078   1.399   .     A
C1079  N1089   1.432   .     S
C1080  N1092   1.432   .     S
C1080  C182    1.432   1_556 S
C1081  C1095   1.484   .     S
C1081  C179    1.432   1_556 S
C1082  C1098   1.484   .     S
N1083  O1084   1.301   .     A
N1083  O1085   1.301   .     A
N1086  O1088   1.301   .     A
N1086  O1087   1.301   .     A
N1089  O1091   1.301   .     A
N1089  O1090   1.301   .     A
N1092  O1094   1.301   .     A
N1092  O1093   1.301   .     A
C1095  H1096   1.071   .     S
C1095  O1097   1.220   .     D
C1098  O1100   1.220   .     D
C1098  H1099   1.071   .     S
O1101  C1105   1.302   .     A
O1101  Cu1113  1.962   .     S
O1102  C1106   1.302   .     A
O1102  Cu1114  1.962   .     S
O1103  Cu1114  1.956   .     S
O1103  C1105   1.299   .     A
O1104  C1106   1.299   .     A
O1104  Cu1113  1.956   .     S
C1105  C1128   1.449   .     S
C1106  C1127   1.449   .     S
O1107  C1111   1.296   .     A
O1107  Cu1113  1.955   .     S
O1108  C1112   1.296   .     A
O1108  Cu1114  1.955   .     S
O1109  Cu1114  1.955   .     S
O1109  C1111   1.298   .     A
O1110  C1112   1.298   .     A
O1110  Cu1113  1.955   .     S
C1111  C1117   1.433   .     S
C1112  C1118   1.433   .     S
Cu1113 N1115   2.037   .     S
Cu1113 Cu1114  2.711   .     S
Cu1114 N1116   2.037   .     S
N1115  C1131   1.384   .     A
N1115  C1130   1.370   .     A
N1116  C1132   1.384   .     A
N1116  C1129   1.370   .     A
C1118  C1167   1.334   .     S
C1118  H1170   1.086   .     S
H1119  C1167   1.086   .     S
C1121  C1128   1.411   .     A
C1121  N1133   1.438   .     S
C1122  N1136   1.438   .     S
C1122  C1127   1.411   .     A
C1122  C1274   1.390   .     S
C1123  C1127   1.399   .     A
C1123  H1125   1.082   .     S
C1123  C1271   1.390   .     S
C1124  H1126   1.082   .     S
C1124  C1128   1.399   .     A
C1129  N1139   1.432   .     S
C1130  N1142   1.432   .     S
C1130  C232    1.432   1_556 S
C1131  C1145   1.484   .     S
C1131  C229    1.432   1_556 S
C1132  C1148   1.484   .     S
N1133  O1134   1.301   .     A
N1133  O1135   1.301   .     A
N1136  O1138   1.301   .     A
N1136  O1137   1.301   .     A
N1139  O1141   1.301   .     A
N1139  O1140   1.301   .     A
N1142  O1144   1.301   .     A
N1142  O1143   1.301   .     A
C1145  H1146   1.071   .     S
C1145  O1147   1.220   .     D
C1148  O1150   1.220   .     D
C1148  H1149   1.071   .     S
O1151  C1155   1.302   .     A
O1151  Cu1163  1.962   .     S
O1152  C1156   1.302   .     A
O1152  Cu1164  1.962   .     S
O1153  Cu1164  1.956   .     S
O1153  C1155   1.299   .     A
O1154  C1156   1.299   .     A
O1154  Cu1163  1.956   .     S
C1155  C1178   1.449   .     S
C1156  C1177   1.449   .     S
O1157  C1161   1.296   .     A
O1157  Cu1163  1.955   .     S
O1158  C1162   1.296   .     A
O1158  Cu1164  1.955   .     S
O1159  Cu1164  1.955   .     S
O1159  C1161   1.298   .     A
O1160  C1162   1.298   .     A
O1160  Cu1163  1.955   .     S
C1161  C1167   1.433   .     S
C1162  C1168   1.433   .     S
Cu1163 N1165   2.037   .     S
Cu1163 Cu1164  2.711   .     S
Cu1164 N1166   2.037   .     S
N1165  C1181   1.384   .     A
N1165  C1180   1.370   .     A
N1166  C1182   1.384   .     A
N1166  C1179   1.370   .     A
C1168  C1067   1.334   1_655 S
C1168  H1070   1.086   1_655 S
H1169  C1067   1.086   1_655 S
C1171  C1178   1.411   .     A
C1171  N1183   1.438   .     S
C1172  N1186   1.438   .     S
C1172  C1177   1.411   .     A
C1172  C1324   1.390   .     S
C1173  C1177   1.399   .     A
C1173  H1175   1.082   .     S
C1173  C1321   1.390   .     S
C1174  H1176   1.082   .     S
C1174  C1178   1.399   .     A
C1179  N1189   1.432   .     S
C1180  N1192   1.432   .     S
C1180  C282    1.432   1_556 S
C1181  C1195   1.484   .     S
C1181  C279    1.432   1_556 S
C1182  C1198   1.484   .     S
N1183  O1184   1.301   .     A
N1183  O1185   1.301   .     A
N1186  O1188   1.301   .     A
N1186  O1187   1.301   .     A
N1189  O1191   1.301   .     A
N1189  O1190   1.301   .     A
N1192  O1194   1.301   .     A
N1192  O1193   1.301   .     A
C1195  H1196   1.071   .     S
C1195  O1197   1.220   .     D
C1198  O1200   1.220   .     D
C1198  H1199   1.071   .     S
O1201  C1205   1.302   .     A
O1201  Cu1213  1.962   .     S
O1202  C1206   1.302   .     A
O1202  Cu1214  1.962   .     S
O1203  Cu1214  1.956   .     S
O1203  C1205   1.299   .     A
O1204  C1206   1.299   .     A
O1204  Cu1213  1.956   .     S
C1205  C1228   1.449   .     S
C1206  C1227   1.449   .     S
O1207  C1211   1.296   .     A
O1207  Cu1213  1.955   .     S
O1208  C1212   1.296   .     A
O1208  Cu1214  1.955   .     S
O1209  Cu1214  1.955   .     S
O1209  C1211   1.298   .     A
O1210  C1212   1.298   .     A
O1210  Cu1213  1.955   .     S
C1211  C1217   1.433   .     S
C1212  C1218   1.433   .     S
Cu1213 N1215   2.037   .     S
Cu1213 Cu1214  2.711   .     S
Cu1214 N1216   2.037   .     S
N1215  C1231   1.384   .     A
N1215  C1230   1.370   .     A
N1216  C1232   1.384   .     A
N1216  C1229   1.370   .     A
C1217  C1318   1.334   1_455 S
C1217  H1319   1.086   1_455 S
C1218  C1267   1.334   .     S
C1218  H1270   1.086   .     S
H1219  C1267   1.086   .     S
H1220  C1318   1.086   1_455 S
C1221  C1228   1.411   .     A
C1221  N1233   1.438   .     S
C1222  N1236   1.438   .     S
C1222  C1227   1.411   .     A
C1222  C924    1.390   1_565 S
C1223  C1227   1.399   .     A
C1223  H1225   1.082   .     S
C1223  C921    1.390   1_565 S
C1224  H1226   1.082   .     S
C1224  C1228   1.399   .     A
C1229  N1239   1.432   .     S
C1230  N1242   1.432   .     S
C1230  C332    1.432   1_556 S
C1231  C1245   1.484   .     S
C1231  C329    1.432   1_556 S
C1232  C1248   1.484   .     S
N1233  O1234   1.301   .     A
N1233  O1235   1.301   .     A
N1236  O1238   1.301   .     A
N1236  O1237   1.301   .     A
N1239  O1241   1.301   .     A
N1239  O1240   1.301   .     A
N1242  O1244   1.301   .     A
N1242  O1243   1.301   .     A
C1245  H1246   1.071   .     S
C1245  O1247   1.220   .     D
C1248  O1250   1.220   .     D
C1248  H1249   1.071   .     S
O1251  C1255   1.302   .     A
O1251  Cu1263  1.962   .     S
O1252  C1256   1.302   .     A
O1252  Cu1264  1.962   .     S
O1253  Cu1264  1.956   .     S
O1253  C1255   1.299   .     A
O1254  C1256   1.299   .     A
O1254  Cu1263  1.956   .     S
C1255  C1278   1.449   .     S
C1256  C1277   1.449   .     S
O1257  C1261   1.296   .     A
O1257  Cu1263  1.955   .     S
O1258  C1262   1.296   .     A
O1258  Cu1264  1.955   .     S
O1259  Cu1264  1.955   .     S
O1259  C1261   1.298   .     A
O1260  C1262   1.298   .     A
O1260  Cu1263  1.955   .     S
C1261  C1267   1.433   .     S
C1262  C1268   1.433   .     S
Cu1263 N1265   2.037   .     S
Cu1263 Cu1264  2.711   .     S
Cu1264 N1266   2.037   .     S
N1265  C1281   1.384   .     A
N1265  C1280   1.370   .     A
N1266  C1282   1.384   .     A
N1266  C1279   1.370   .     A
C1268  C1317   1.334   .     S
C1268  H1320   1.086   .     S
H1269  C1317   1.086   .     S
C1271  C1278   1.411   .     A
C1271  N1283   1.438   .     S
C1272  N1286   1.438   .     S
C1272  C1277   1.411   .     A
C1272  C974    1.390   1_565 S
C1273  C1277   1.399   .     A
C1273  H1275   1.082   .     S
C1273  C971    1.390   1_565 S
C1274  H1276   1.082   .     S
C1274  C1278   1.399   .     A
C1279  N1289   1.432   .     S
C1280  N1292   1.432   .     S
C1280  C382    1.432   1_556 S
C1281  C1295   1.484   .     S
C1281  C379    1.432   1_556 S
C1282  C1298   1.484   .     S
N1283  O1284   1.301   .     A
N1283  O1285   1.301   .     A
N1286  O1288   1.301   .     A
N1286  O1287   1.301   .     A
N1289  O1291   1.301   .     A
N1289  O1290   1.301   .     A
N1292  O1294   1.301   .     A
N1292  O1293   1.301   .     A
C1295  H1296   1.071   .     S
C1295  O1297   1.220   .     D
C1298  O1300   1.220   .     D
C1298  H1299   1.071   .     S
O1301  C1305   1.302   .     A
O1301  Cu1313  1.962   .     S
O1302  C1306   1.302   .     A
O1302  Cu1314  1.962   .     S
O1303  Cu1314  1.956   .     S
O1303  C1305   1.299   .     A
O1304  C1306   1.299   .     A
O1304  Cu1313  1.956   .     S
C1305  C1328   1.449   .     S
C1306  C1327   1.449   .     S
O1307  C1311   1.296   .     A
O1307  Cu1313  1.955   .     S
O1308  C1312   1.296   .     A
O1308  Cu1314  1.955   .     S
O1309  Cu1314  1.955   .     S
O1309  C1311   1.298   .     A
O1310  C1312   1.298   .     A
O1310  Cu1313  1.955   .     S
C1311  C1317   1.433   .     S
C1312  C1318   1.433   .     S
Cu1313 N1315   2.037   .     S
Cu1313 Cu1314  2.711   .     S
Cu1314 N1316   2.037   .     S
N1315  C1331   1.384   .     A
N1315  C1330   1.370   .     A
N1316  C1332   1.384   .     A
N1316  C1329   1.370   .     A
C1318  C1217   1.334   1_655 S
C1318  H1220   1.086   1_655 S
H1319  C1217   1.086   1_655 S
C1321  C1328   1.411   .     A
C1321  N1333   1.438   .     S
C1322  N1336   1.438   .     S
C1322  C1327   1.411   .     A
C1322  C1024   1.390   1_565 S
C1323  C1327   1.399   .     A
C1323  H1325   1.082   .     S
C1323  C1021   1.390   1_565 S
C1324  H1326   1.082   .     S
C1324  C1328   1.399   .     A
C1329  N1339   1.432   .     S
C1330  N1342   1.432   .     S
C1330  C432    1.432   1_556 S
C1331  C1345   1.484   .     S
C1331  C429    1.432   1_556 S
C1332  C1348   1.484   .     S
N1333  O1334   1.301   .     A
N1333  O1335   1.301   .     A
N1336  O1338   1.301   .     A
N1336  O1337   1.301   .     A
N1339  O1341   1.301   .     A
N1339  O1340   1.301   .     A
N1342  O1344   1.301   .     A
N1342  O1343   1.301   .     A
C1345  H1346   1.071   .     S
C1345  O1347   1.220   .     D
C1348  O1350   1.220   .     D
C1348  H1349   1.071   .     S
