data_str_m2_o1_o1_pcu_sym.85
_audit_creation_date              2020-01-03
_audit_creation_method            'Materials Studio'
_symmetry_space_group_name_H-M    'P1'
_symmetry_Int_Tables_number       1
_symmetry_cell_setting            triclinic
loop_
_symmetry_equiv_pos_as_xyz
  x,y,z
_cell_length_a                    31.4940
_cell_length_b                    30.0825
_cell_length_c                    28.8447
_cell_angle_alpha                 90.3610
_cell_angle_beta                  91.1960
_cell_angle_gamma                 89.8838
loop_
_atom_site_label
_atom_site_type_symbol
_atom_site_fract_x
_atom_site_fract_y
_atom_site_fract_z
_atom_site_U_iso_or_equiv
_atom_site_adp_type
_atom_site_occupancy
C1     C     0.05871   0.18985   0.16709   0.00000  Uiso   1.00
C2     C     0.49646   0.28920   0.30882   0.00000  Uiso   1.00
C3     C     0.00235   0.28926   0.02507   0.00000  Uiso   1.00
C4     C     0.49800   0.21108   0.30843   0.00000  Uiso   1.00
C5     C     0.25180   0.46115   0.02460   0.00000  Uiso   1.00
C6     C     0.24645   0.03920   0.30882   0.00000  Uiso   1.00
C7     C     0.25234   0.03927   0.02507   0.00000  Uiso   1.00
C8     C     0.24800   0.46108   0.30843   0.00000  Uiso   1.00
C9     C     0.41535   0.11436   0.13889   0.00000  Uiso   1.00
C10    C     0.09957   0.37329   0.20020   0.00000  Uiso   1.00
C11    C     0.12987   0.33601   0.13319   0.00000  Uiso   1.00
C12    C     0.43868   0.30725   0.16639   0.00000  Uiso   1.00
C13    C     0.37161   0.16120   0.18746   0.00000  Uiso   1.00
C14    C     0.08595   0.11577   0.19629   0.00000  Uiso   1.00
C15    C     0.39713   0.36849   0.12985   0.00000  Uiso   1.00
C16    C     0.37176   0.33800   0.20200   0.00000  Uiso   1.00
C17    C     0.12626   0.15776   0.14093   0.00000  Uiso   1.00
C18    C     0.16536   0.36435   0.13891   0.00000  Uiso   1.00
C19    C     0.34958   0.12329   0.20021   0.00000  Uiso   1.00
C20    C     0.37985   0.08602   0.13318   0.00000  Uiso   1.00
C21    C     0.12160   0.41120   0.18745   0.00000  Uiso   1.00
C22    C     0.33595   0.36578   0.19629   0.00000  Uiso   1.00
C23    C     0.44153   0.18973   0.16599   0.00000  Uiso   1.00
C24    C     0.14713   0.11849   0.12986   0.00000  Uiso   1.00
C25    C     0.12175   0.08800   0.20200   0.00000  Uiso   1.00
C26    C     0.37626   0.40776   0.14093   0.00000  Uiso   1.00
C27    C     0.09791   0.33791   0.16766   0.00000  Uiso   1.00
C28    C     0.40942   0.15477   0.16373   0.00000  Uiso   1.00
C29    C     0.40168   0.33703   0.16570   0.00000  Uiso   1.00
C30    C     0.09041   0.15420   0.16850   0.00000  Uiso   1.00
C31    C     0.34791   0.08792   0.16766   0.00000  Uiso   1.00
C32    C     0.15942   0.40477   0.16373   0.00000  Uiso   1.00
C33    C     0.15168   0.08703   0.16570   0.00000  Uiso   1.00
C34    C     0.06119   0.30755   0.16705   0.00000  Uiso   1.00
C35    C     0.34041   0.40421   0.16850   0.00000  Uiso   1.00
C36    C     0.04686   0.15192   0.03831   0.00000  Uiso   1.00
C37    C     0.04114   0.10545   0.01792   0.00000  Uiso   1.00
C38    C     0.49345   0.35939   0.27607   0.00000  Uiso   1.00
C39    C     0.46365   0.39901   0.27027   0.00000  Uiso   1.00
C40    C     0.00220   0.35996   0.05818   0.00000  Uiso   1.00
C41    C     0.03079   0.40052   0.06381   0.00000  Uiso   1.00
C42    C     0.44930   0.15564   0.29660   0.00000  Uiso   1.00
C43    C     0.44367   0.10807   0.27950   0.00000  Uiso   1.00
C44    C     0.29687   0.40192   0.03830   0.00000  Uiso   1.00
C45    C     0.30871   0.43985   0.16709   0.00000  Uiso   1.00
C46    C     0.29115   0.35545   0.01793   0.00000  Uiso   1.00
C47    C     0.24345   0.10939   0.27607   0.00000  Uiso   1.00
C48    C     0.21364   0.14901   0.27027   0.00000  Uiso   1.00
C49    C     0.25220   0.10996   0.05818   0.00000  Uiso   1.00
C50    C     0.28079   0.15052   0.06381   0.00000  Uiso   1.00
C51    C     0.19930   0.40564   0.29660   0.00000  Uiso   1.00
C52    C     0.19368   0.35807   0.27951   0.00000  Uiso   1.00
C53    C     0.45790   0.09876   0.12295   0.00000  Uiso   1.00
C54    C     0.09072   0.36801   0.25033   0.00000  Uiso   1.00
C55    C     0.12747   0.30740   0.09063   0.00000  Uiso   1.00
C56    C     0.18868   0.05725   0.16639   0.00000  Uiso   1.00
C57    C     0.34884   0.20451   0.18557   0.00000  Uiso   1.00
C58    C     0.04425   0.10031   0.21367   0.00000  Uiso   1.00
C59    C     0.40037   0.35675   0.07989   0.00000  Uiso   1.00
C60    C     0.37700   0.31319   0.24629   0.00000  Uiso   1.00
C61    C     0.15080   0.19965   0.14020   0.00000  Uiso   1.00
C62    C     0.20791   0.34875   0.12300   0.00000  Uiso   1.00
C63    C     0.34071   0.11800   0.25034   0.00000  Uiso   1.00
C64    C     0.37743   0.05743   0.09061   0.00000  Uiso   1.00
C65    C     0.09884   0.45451   0.18556   0.00000  Uiso   1.00
C66    C     0.29425   0.35031   0.21367   0.00000  Uiso   1.00
C67    C     0.19153   0.43973   0.16599   0.00000  Uiso   1.00
C68    C     0.15037   0.10676   0.07989   0.00000  Uiso   1.00
C69    C     0.12700   0.06318   0.24628   0.00000  Uiso   1.00
C70    C     0.40080   0.44965   0.14018   0.00000  Uiso   1.00
C71    C     0.31119   0.05755   0.16705   0.00000  Uiso   1.00
C72    C     0.00180   0.21115   0.02460   0.00000  Uiso   1.00
Cu73   Cu    0.00000   0.25000   0.21355   0.00000  Uiso   1.00
Cu74   Cu    0.00000   0.25000   0.11978   0.00000  Uiso   1.00
Cu75   Cu    0.25000   0.00000   0.21355   0.00000  Uiso   1.00
Cu76   Cu    0.25000   0.00000   0.11978   0.00000  Uiso   1.00
H77    H     0.06454   0.14790   0.07146   0.00000  Uiso   1.00
H78    H     0.44719   0.40633   0.30308   0.00000  Uiso   1.00
H79    H     0.48870   0.35404   0.09244   0.00000  Uiso   1.00
H80    H     0.47630   0.36778   0.03316   0.00000  Uiso   1.00
H81    H     0.01164   0.42972   0.07450   0.00000  Uiso   1.00
H82    H     0.05566   0.39421   0.09086   0.00000  Uiso   1.00
H83    H     0.04648   0.40828   0.03077   0.00000  Uiso   1.00
H84    H     0.42412   0.17674   0.28046   0.00000  Uiso   1.00
H85    H     0.44383   0.15513   0.00120   0.00000  Uiso   1.00
H86    H     0.47049   0.08700   0.29129   0.00000  Uiso   1.00
H87    H     0.41476   0.09397   0.29434   0.00000  Uiso   1.00
H88    H     0.06770   0.17185   0.01546   0.00000  Uiso   1.00
H89    H     0.44058   0.10677   0.24121   0.00000  Uiso   1.00
H90    H     0.31456   0.39791   0.07145   0.00000  Uiso   1.00
H91    H     0.31770   0.42185   0.01544   0.00000  Uiso   1.00
H92    H     0.28790   0.35732   0.31308   0.00000  Uiso   1.00
H93    H     0.31946   0.33475   0.02621   0.00000  Uiso   1.00
H94    H     0.26284   0.33907   0.03237   0.00000  Uiso   1.00
H95    H     0.25711   0.10303   0.24183   0.00000  Uiso   1.00
H96    H     0.26884   0.11866   0.30120   0.00000  Uiso   1.00
H97    H     0.23208   0.17875   0.26028   0.00000  Uiso   1.00
H98    H     0.18952   0.14203   0.24262   0.00000  Uiso   1.00
H99    H     0.03791   0.10733   0.31307   0.00000  Uiso   1.00
H100   H     0.19718   0.15633   0.30307   0.00000  Uiso   1.00
H101   H     0.23870   0.10404   0.09244   0.00000  Uiso   1.00
H102   H     0.22630   0.11778   0.03316   0.00000  Uiso   1.00
H103   H     0.26164   0.17973   0.07450   0.00000  Uiso   1.00
H104   H     0.30565   0.14421   0.09086   0.00000  Uiso   1.00
H105   H     0.29648   0.15828   0.03077   0.00000  Uiso   1.00
H106   H     0.17412   0.42674   0.28046   0.00000  Uiso   1.00
H107   H     0.19383   0.40513   0.00120   0.00000  Uiso   1.00
H108   H     0.22049   0.33699   0.29131   0.00000  Uiso   1.00
H109   H     0.16477   0.34396   0.29435   0.00000  Uiso   1.00
H110   H     0.06944   0.08474   0.02621   0.00000  Uiso   1.00
H111   H     0.19058   0.35676   0.24122   0.00000  Uiso   1.00
H112   H     0.49485   0.04688   0.10420   0.00000  Uiso   1.00
H113   H     0.08588   0.32696   0.30507   0.00000  Uiso   1.00
H114   H     0.14283   0.30025   0.02366   0.00000  Uiso   1.00
H115   H     0.34110   0.26313   0.15291   0.00000  Uiso   1.00
H116   H     0.00934   0.04848   0.23585   0.00000  Uiso   1.00
H117   H     0.40115   0.30870   0.03070   0.00000  Uiso   1.00
H118   H     0.39037   0.25588   0.27943   0.00000  Uiso   1.00
H119   H     0.16529   0.25726   0.17313   0.00000  Uiso   1.00
H120   H     0.24490   0.29685   0.10438   0.00000  Uiso   1.00
H121   H     0.01282   0.08907   0.03234   0.00000  Uiso   1.00
H122   H     0.33584   0.07695   0.30507   0.00000  Uiso   1.00
H123   H     0.39272   0.05032   0.02361   0.00000  Uiso   1.00
H124   H     0.09110   0.01313   0.15290   0.00000  Uiso   1.00
H125   H     0.25934   0.29849   0.23586   0.00000  Uiso   1.00
H126   H     0.15115   0.05871   0.03070   0.00000  Uiso   1.00
H127   H     0.14037   0.00587   0.27942   0.00000  Uiso   1.00
H128   H     0.41529   0.00727   0.17309   0.00000  Uiso   1.00
H129   H     0.00712   0.35303   0.24183   0.00000  Uiso   1.00
H130   H     0.01885   0.36865   0.30120   0.00000  Uiso   1.00
H131   H     0.48209   0.42876   0.26028   0.00000  Uiso   1.00
H132   H     0.43953   0.39204   0.24263   0.00000  Uiso   1.00
N133   N    -0.00000   0.25000   0.28402   0.00000  Uiso   1.00
N134   N    -0.00000   0.25000   0.04931   0.00000  Uiso   1.00
N135   N     0.25000   0.00000   0.28402   0.00000  Uiso   1.00
N136   N     0.25000   0.00000   0.04931   0.00000  Uiso   1.00
O137   O     0.04508   0.20491   0.20625   0.00000  Uiso   1.00
O138   O     0.20491   0.04509   0.12709   0.00000  Uiso   1.00
O139   O     0.20491   0.04509   0.20625   0.00000  Uiso   1.00
O140   O     0.29508   0.45491   0.12709   0.00000  Uiso   1.00
O141   O     0.20491   0.45491   0.12709   0.00000  Uiso   1.00
O142   O     0.29508   0.04509   0.20625   0.00000  Uiso   1.00
O143   O     0.29508   0.04509   0.12709   0.00000  Uiso   1.00
O144   O     0.20491   0.45491   0.20625   0.00000  Uiso   1.00
O145   O     0.00683   0.17149   0.04797   0.00000  Uiso   1.00
O146   O     0.47032   0.32214   0.29046   0.00000  Uiso   1.00
O147   O     0.02682   0.32325   0.04430   0.00000  Uiso   1.00
O148   O     0.45491   0.29509   0.12709   0.00000  Uiso   1.00
O149   O     0.49022   0.17157   0.28510   0.00000  Uiso   1.00
O150   O     0.25684   0.42150   0.04796   0.00000  Uiso   1.00
O151   O     0.22031   0.07214   0.29046   0.00000  Uiso   1.00
O152   O     0.27682   0.07325   0.04430   0.00000  Uiso   1.00
O153   O     0.24022   0.42157   0.28510   0.00000  Uiso   1.00
O154   O     0.48786   0.12416   0.12118   0.00000  Uiso   1.00
O155   O     0.46444   0.05376   0.11267   0.00000  Uiso   1.00
O156   O     0.08723   0.40086   0.27519   0.00000  Uiso   1.00
O157   O     0.09098   0.32586   0.27052   0.00000  Uiso   1.00
O158   O     0.11227   0.27018   0.09121   0.00000  Uiso   1.00
O159   O     0.45491   0.29509   0.20625   0.00000  Uiso   1.00
O160   O     0.14422   0.32328   0.04944   0.00000  Uiso   1.00
O161   O     0.31715   0.21068   0.20857   0.00000  Uiso   1.00
O162   O     0.36137   0.23694   0.15420   0.00000  Uiso   1.00
O163   O     0.01311   0.12423   0.21153   0.00000  Uiso   1.00
O164   O     0.03976   0.05653   0.22894   0.00000  Uiso   1.00
O165   O     0.40146   0.38618   0.05086   0.00000  Uiso   1.00
O166   O     0.39818   0.31234   0.06541   0.00000  Uiso   1.00
O167   O     0.37028   0.33253   0.28280   0.00000  Uiso   1.00
O168   O     0.38815   0.26828   0.24686   0.00000  Uiso   1.00
O169   O     0.17884   0.20475   0.11202   0.00000  Uiso   1.00
O170   O     0.04508   0.20491   0.12709   0.00000  Uiso   1.00
O171   O     0.14417   0.23196   0.17442   0.00000  Uiso   1.00
O172   O     0.23785   0.37416   0.12114   0.00000  Uiso   1.00
O173   O     0.21449   0.30373   0.11287   0.00000  Uiso   1.00
O174   O     0.33723   0.15086   0.27519   0.00000  Uiso   1.00
O175   O     0.34097   0.07586   0.27052   0.00000  Uiso   1.00
O176   O     0.36228   0.02019   0.09120   0.00000  Uiso   1.00
O177   O     0.39410   0.07335   0.04940   0.00000  Uiso   1.00
O178   O     0.06715   0.46068   0.20857   0.00000  Uiso   1.00
O179   O     0.11137   0.48694   0.15419   0.00000  Uiso   1.00
O180   O     0.26311   0.37423   0.21152   0.00000  Uiso   1.00
O181   O     0.45491   0.20491   0.12709   0.00000  Uiso   1.00
O182   O     0.28976   0.30653   0.22895   0.00000  Uiso   1.00
O183   O     0.15146   0.13619   0.05087   0.00000  Uiso   1.00
O184   O     0.14818   0.06235   0.06541   0.00000  Uiso   1.00
O185   O     0.12028   0.08252   0.28280   0.00000  Uiso   1.00
O186   O     0.13815   0.01827   0.24686   0.00000  Uiso   1.00
O187   O     0.42883   0.45475   0.11199   0.00000  Uiso   1.00
O188   O     0.39418   0.48197   0.17439   0.00000  Uiso   1.00
O189   O     0.04508   0.29509   0.20625   0.00000  Uiso   1.00
O190   O     0.04508   0.29509   0.12709   0.00000  Uiso   1.00
O191   O     0.45491   0.20491   0.20625   0.00000  Uiso   1.00
O192   O     0.29508   0.45491   0.20625   0.00000  Uiso   1.00
C193   C     0.55871   0.18985   0.16709   0.00000  Uiso   1.00
C194   C     0.99646   0.28920   0.30882   0.00000  Uiso   1.00
C195   C     0.50235   0.28926   0.02507   0.00000  Uiso   1.00
C196   C     0.99800   0.21108   0.30843   0.00000  Uiso   1.00
C197   C     0.75180   0.46115   0.02460   0.00000  Uiso   1.00
C198   C     0.74645   0.03920   0.30882   0.00000  Uiso   1.00
C199   C     0.75234   0.03927   0.02507   0.00000  Uiso   1.00
C200   C     0.74800   0.46108   0.30843   0.00000  Uiso   1.00
C201   C     0.91535   0.11436   0.13889   0.00000  Uiso   1.00
C202   C     0.59957   0.37329   0.20020   0.00000  Uiso   1.00
C203   C     0.62987   0.33601   0.13319   0.00000  Uiso   1.00
C204   C     0.93868   0.30725   0.16639   0.00000  Uiso   1.00
C205   C     0.87161   0.16120   0.18746   0.00000  Uiso   1.00
C206   C     0.58595   0.11577   0.19629   0.00000  Uiso   1.00
C207   C     0.89713   0.36849   0.12985   0.00000  Uiso   1.00
C208   C     0.87176   0.33800   0.20200   0.00000  Uiso   1.00
C209   C     0.62626   0.15776   0.14093   0.00000  Uiso   1.00
C210   C     0.66536   0.36435   0.13891   0.00000  Uiso   1.00
C211   C     0.84958   0.12329   0.20021   0.00000  Uiso   1.00
C212   C     0.87985   0.08602   0.13318   0.00000  Uiso   1.00
C213   C     0.62160   0.41120   0.18745   0.00000  Uiso   1.00
C214   C     0.83595   0.36578   0.19629   0.00000  Uiso   1.00
C215   C     0.94153   0.18973   0.16599   0.00000  Uiso   1.00
C216   C     0.64713   0.11849   0.12986   0.00000  Uiso   1.00
C217   C     0.62175   0.08800   0.20200   0.00000  Uiso   1.00
C218   C     0.87626   0.40776   0.14093   0.00000  Uiso   1.00
C219   C     0.59791   0.33791   0.16766   0.00000  Uiso   1.00
C220   C     0.90942   0.15477   0.16373   0.00000  Uiso   1.00
C221   C     0.90168   0.33703   0.16570   0.00000  Uiso   1.00
C222   C     0.59041   0.15420   0.16850   0.00000  Uiso   1.00
C223   C     0.84791   0.08792   0.16766   0.00000  Uiso   1.00
C224   C     0.65942   0.40477   0.16373   0.00000  Uiso   1.00
C225   C     0.65168   0.08703   0.16570   0.00000  Uiso   1.00
C226   C     0.56119   0.30755   0.16705   0.00000  Uiso   1.00
C227   C     0.84041   0.40421   0.16850   0.00000  Uiso   1.00
C228   C     0.54686   0.15192   0.03831   0.00000  Uiso   1.00
C229   C     0.54114   0.10545   0.01792   0.00000  Uiso   1.00
C230   C     0.99345   0.35939   0.27607   0.00000  Uiso   1.00
C231   C     0.96365   0.39901   0.27027   0.00000  Uiso   1.00
C232   C     0.50220   0.35996   0.05818   0.00000  Uiso   1.00
C233   C     0.53079   0.40052   0.06381   0.00000  Uiso   1.00
C234   C     0.94930   0.15564   0.29660   0.00000  Uiso   1.00
C235   C     0.94367   0.10807   0.27950   0.00000  Uiso   1.00
C236   C     0.79687   0.40192   0.03830   0.00000  Uiso   1.00
C237   C     0.80871   0.43985   0.16709   0.00000  Uiso   1.00
C238   C     0.79115   0.35545   0.01793   0.00000  Uiso   1.00
C239   C     0.74345   0.10939   0.27607   0.00000  Uiso   1.00
C240   C     0.71364   0.14901   0.27027   0.00000  Uiso   1.00
C241   C     0.75220   0.10996   0.05818   0.00000  Uiso   1.00
C242   C     0.78079   0.15052   0.06381   0.00000  Uiso   1.00
C243   C     0.69930   0.40564   0.29660   0.00000  Uiso   1.00
C244   C     0.69368   0.35807   0.27951   0.00000  Uiso   1.00
C245   C     0.95790   0.09876   0.12295   0.00000  Uiso   1.00
C246   C     0.59072   0.36801   0.25033   0.00000  Uiso   1.00
C247   C     0.62747   0.30740   0.09063   0.00000  Uiso   1.00
C248   C     0.68868   0.05725   0.16639   0.00000  Uiso   1.00
C249   C     0.84884   0.20451   0.18557   0.00000  Uiso   1.00
C250   C     0.54425   0.10031   0.21367   0.00000  Uiso   1.00
C251   C     0.90037   0.35675   0.07989   0.00000  Uiso   1.00
C252   C     0.87700   0.31319   0.24629   0.00000  Uiso   1.00
C253   C     0.65080   0.19965   0.14020   0.00000  Uiso   1.00
C254   C     0.70791   0.34875   0.12300   0.00000  Uiso   1.00
C255   C     0.84071   0.11800   0.25034   0.00000  Uiso   1.00
C256   C     0.87743   0.05743   0.09061   0.00000  Uiso   1.00
C257   C     0.59884   0.45451   0.18556   0.00000  Uiso   1.00
C258   C     0.79425   0.35031   0.21367   0.00000  Uiso   1.00
C259   C     0.69153   0.43973   0.16599   0.00000  Uiso   1.00
C260   C     0.65037   0.10676   0.07989   0.00000  Uiso   1.00
C261   C     0.62700   0.06318   0.24628   0.00000  Uiso   1.00
C262   C     0.90080   0.44965   0.14018   0.00000  Uiso   1.00
C263   C     0.81119   0.05755   0.16705   0.00000  Uiso   1.00
C264   C     0.50180   0.21115   0.02460   0.00000  Uiso   1.00
Cu265  Cu    0.50000   0.25000   0.21355   0.00000  Uiso   1.00
Cu266  Cu    0.50000   0.25000   0.11978   0.00000  Uiso   1.00
Cu267  Cu    0.75000   0.00000   0.21355   0.00000  Uiso   1.00
Cu268  Cu    0.75000   0.00000   0.11978   0.00000  Uiso   1.00
H269   H     0.56454   0.14790   0.07146   0.00000  Uiso   1.00
H270   H     0.94719   0.40633   0.30308   0.00000  Uiso   1.00
H271   H     0.98870   0.35404   0.09244   0.00000  Uiso   1.00
H272   H     0.97630   0.36778   0.03316   0.00000  Uiso   1.00
H273   H     0.51164   0.42972   0.07450   0.00000  Uiso   1.00
H274   H     0.55566   0.39421   0.09086   0.00000  Uiso   1.00
H275   H     0.54648   0.40828   0.03077   0.00000  Uiso   1.00
H276   H     0.92412   0.17674   0.28046   0.00000  Uiso   1.00
H277   H     0.94383   0.15513   0.00120   0.00000  Uiso   1.00
H278   H     0.97049   0.08700   0.29129   0.00000  Uiso   1.00
H279   H     0.91476   0.09397   0.29434   0.00000  Uiso   1.00
H280   H     0.56770   0.17185   0.01546   0.00000  Uiso   1.00
H281   H     0.94058   0.10677   0.24121   0.00000  Uiso   1.00
H282   H     0.81456   0.39791   0.07145   0.00000  Uiso   1.00
H283   H     0.81770   0.42185   0.01544   0.00000  Uiso   1.00
H284   H     0.78790   0.35732   0.31308   0.00000  Uiso   1.00
H285   H     0.81946   0.33475   0.02621   0.00000  Uiso   1.00
H286   H     0.76284   0.33907   0.03237   0.00000  Uiso   1.00
H287   H     0.75711   0.10303   0.24183   0.00000  Uiso   1.00
H288   H     0.76884   0.11866   0.30120   0.00000  Uiso   1.00
H289   H     0.73208   0.17875   0.26028   0.00000  Uiso   1.00
H290   H     0.68952   0.14203   0.24262   0.00000  Uiso   1.00
H291   H     0.53791   0.10733   0.31307   0.00000  Uiso   1.00
H292   H     0.69718   0.15633   0.30307   0.00000  Uiso   1.00
H293   H     0.73870   0.10404   0.09244   0.00000  Uiso   1.00
H294   H     0.72630   0.11778   0.03316   0.00000  Uiso   1.00
H295   H     0.76164   0.17973   0.07450   0.00000  Uiso   1.00
H296   H     0.80565   0.14421   0.09086   0.00000  Uiso   1.00
H297   H     0.79648   0.15828   0.03077   0.00000  Uiso   1.00
H298   H     0.67412   0.42674   0.28046   0.00000  Uiso   1.00
H299   H     0.69383   0.40513   0.00120   0.00000  Uiso   1.00
H300   H     0.72049   0.33699   0.29131   0.00000  Uiso   1.00
H301   H     0.66477   0.34396   0.29435   0.00000  Uiso   1.00
H302   H     0.56944   0.08474   0.02621   0.00000  Uiso   1.00
H303   H     0.69058   0.35676   0.24122   0.00000  Uiso   1.00
H304   H     0.99485   0.04688   0.10420   0.00000  Uiso   1.00
H305   H     0.58588   0.32696   0.30507   0.00000  Uiso   1.00
H306   H     0.64283   0.30025   0.02366   0.00000  Uiso   1.00
H307   H     0.84110   0.26313   0.15291   0.00000  Uiso   1.00
H308   H     0.50934   0.04848   0.23585   0.00000  Uiso   1.00
H309   H     0.90115   0.30870   0.03070   0.00000  Uiso   1.00
H310   H     0.89037   0.25588   0.27943   0.00000  Uiso   1.00
H311   H     0.66529   0.25726   0.17313   0.00000  Uiso   1.00
H312   H     0.74490   0.29685   0.10438   0.00000  Uiso   1.00
H313   H     0.51282   0.08907   0.03234   0.00000  Uiso   1.00
H314   H     0.83584   0.07695   0.30507   0.00000  Uiso   1.00
H315   H     0.89272   0.05032   0.02361   0.00000  Uiso   1.00
H316   H     0.59110   0.01313   0.15290   0.00000  Uiso   1.00
H317   H     0.75934   0.29849   0.23586   0.00000  Uiso   1.00
H318   H     0.65115   0.05871   0.03070   0.00000  Uiso   1.00
H319   H     0.64037   0.00587   0.27942   0.00000  Uiso   1.00
H320   H     0.91529   0.00727   0.17309   0.00000  Uiso   1.00
H321   H     0.50712   0.35303   0.24183   0.00000  Uiso   1.00
H322   H     0.51885   0.36865   0.30120   0.00000  Uiso   1.00
H323   H     0.98209   0.42876   0.26028   0.00000  Uiso   1.00
H324   H     0.93953   0.39204   0.24263   0.00000  Uiso   1.00
N325   N     0.50000   0.25000   0.28402   0.00000  Uiso   1.00
N326   N     0.50000   0.25000   0.04931   0.00000  Uiso   1.00
N327   N     0.75000   0.00000   0.28402   0.00000  Uiso   1.00
N328   N     0.75000   0.00000   0.04931   0.00000  Uiso   1.00
O329   O     0.54508   0.20491   0.20625   0.00000  Uiso   1.00
O330   O     0.70491   0.04509   0.12709   0.00000  Uiso   1.00
O331   O     0.70491   0.04509   0.20625   0.00000  Uiso   1.00
O332   O     0.79508   0.45491   0.12709   0.00000  Uiso   1.00
O333   O     0.70491   0.45491   0.12709   0.00000  Uiso   1.00
O334   O     0.79508   0.04509   0.20625   0.00000  Uiso   1.00
O335   O     0.79508   0.04509   0.12709   0.00000  Uiso   1.00
O336   O     0.70491   0.45491   0.20625   0.00000  Uiso   1.00
O337   O     0.50683   0.17149   0.04797   0.00000  Uiso   1.00
O338   O     0.97032   0.32214   0.29046   0.00000  Uiso   1.00
O339   O     0.52682   0.32325   0.04430   0.00000  Uiso   1.00
O340   O     0.95491   0.29509   0.12709   0.00000  Uiso   1.00
O341   O     0.99022   0.17157   0.28510   0.00000  Uiso   1.00
O342   O     0.75684   0.42150   0.04796   0.00000  Uiso   1.00
O343   O     0.72031   0.07214   0.29046   0.00000  Uiso   1.00
O344   O     0.77682   0.07325   0.04430   0.00000  Uiso   1.00
O345   O     0.74022   0.42157   0.28510   0.00000  Uiso   1.00
O346   O     0.98786   0.12416   0.12118   0.00000  Uiso   1.00
O347   O     0.96444   0.05376   0.11267   0.00000  Uiso   1.00
O348   O     0.58723   0.40086   0.27519   0.00000  Uiso   1.00
O349   O     0.59098   0.32586   0.27052   0.00000  Uiso   1.00
O350   O     0.61227   0.27018   0.09121   0.00000  Uiso   1.00
O351   O     0.95491   0.29509   0.20625   0.00000  Uiso   1.00
O352   O     0.64422   0.32328   0.04944   0.00000  Uiso   1.00
O353   O     0.81715   0.21068   0.20857   0.00000  Uiso   1.00
O354   O     0.86137   0.23694   0.15420   0.00000  Uiso   1.00
O355   O     0.51311   0.12423   0.21153   0.00000  Uiso   1.00
O356   O     0.53976   0.05653   0.22894   0.00000  Uiso   1.00
O357   O     0.90146   0.38618   0.05086   0.00000  Uiso   1.00
O358   O     0.89818   0.31234   0.06541   0.00000  Uiso   1.00
O359   O     0.87028   0.33253   0.28280   0.00000  Uiso   1.00
O360   O     0.88815   0.26828   0.24686   0.00000  Uiso   1.00
O361   O     0.67884   0.20475   0.11202   0.00000  Uiso   1.00
O362   O     0.54508   0.20491   0.12709   0.00000  Uiso   1.00
O363   O     0.64417   0.23196   0.17442   0.00000  Uiso   1.00
O364   O     0.73785   0.37416   0.12114   0.00000  Uiso   1.00
O365   O     0.71449   0.30373   0.11287   0.00000  Uiso   1.00
O366   O     0.83723   0.15086   0.27519   0.00000  Uiso   1.00
O367   O     0.84097   0.07586   0.27052   0.00000  Uiso   1.00
O368   O     0.86228   0.02019   0.09120   0.00000  Uiso   1.00
O369   O     0.89410   0.07335   0.04940   0.00000  Uiso   1.00
O370   O     0.56715   0.46068   0.20857   0.00000  Uiso   1.00
O371   O     0.61137   0.48694   0.15419   0.00000  Uiso   1.00
O372   O     0.76311   0.37423   0.21152   0.00000  Uiso   1.00
O373   O     0.95491   0.20491   0.12709   0.00000  Uiso   1.00
O374   O     0.78976   0.30653   0.22895   0.00000  Uiso   1.00
O375   O     0.65146   0.13619   0.05087   0.00000  Uiso   1.00
O376   O     0.64818   0.06235   0.06541   0.00000  Uiso   1.00
O377   O     0.62028   0.08252   0.28280   0.00000  Uiso   1.00
O378   O     0.63815   0.01827   0.24686   0.00000  Uiso   1.00
O379   O     0.92883   0.45475   0.11199   0.00000  Uiso   1.00
O380   O     0.89418   0.48197   0.17439   0.00000  Uiso   1.00
O381   O     0.54508   0.29509   0.20625   0.00000  Uiso   1.00
O382   O     0.54508   0.29509   0.12709   0.00000  Uiso   1.00
O383   O     0.95491   0.20491   0.20625   0.00000  Uiso   1.00
O384   O     0.79508   0.45491   0.20625   0.00000  Uiso   1.00
C385   C     0.05871   0.68985   0.16709   0.00000  Uiso   1.00
C386   C     0.49646   0.78920   0.30882   0.00000  Uiso   1.00
C387   C     0.00235   0.78926   0.02507   0.00000  Uiso   1.00
C388   C     0.49800   0.71108   0.30843   0.00000  Uiso   1.00
C389   C     0.25180   0.96115   0.02460   0.00000  Uiso   1.00
C390   C     0.24645   0.53920   0.30882   0.00000  Uiso   1.00
C391   C     0.25234   0.53927   0.02507   0.00000  Uiso   1.00
C392   C     0.24800   0.96108   0.30843   0.00000  Uiso   1.00
C393   C     0.41535   0.61436   0.13889   0.00000  Uiso   1.00
C394   C     0.09957   0.87329   0.20020   0.00000  Uiso   1.00
C395   C     0.12987   0.83601   0.13319   0.00000  Uiso   1.00
C396   C     0.43868   0.80725   0.16639   0.00000  Uiso   1.00
C397   C     0.37161   0.66120   0.18746   0.00000  Uiso   1.00
C398   C     0.08595   0.61577   0.19629   0.00000  Uiso   1.00
C399   C     0.39713   0.86849   0.12985   0.00000  Uiso   1.00
C400   C     0.37176   0.83800   0.20200   0.00000  Uiso   1.00
C401   C     0.12626   0.65776   0.14093   0.00000  Uiso   1.00
C402   C     0.16536   0.86435   0.13891   0.00000  Uiso   1.00
C403   C     0.34958   0.62329   0.20021   0.00000  Uiso   1.00
C404   C     0.37985   0.58602   0.13318   0.00000  Uiso   1.00
C405   C     0.12160   0.91120   0.18745   0.00000  Uiso   1.00
C406   C     0.33595   0.86578   0.19629   0.00000  Uiso   1.00
C407   C     0.44153   0.68973   0.16599   0.00000  Uiso   1.00
C408   C     0.14713   0.61849   0.12986   0.00000  Uiso   1.00
C409   C     0.12175   0.58800   0.20200   0.00000  Uiso   1.00
C410   C     0.37626   0.90776   0.14093   0.00000  Uiso   1.00
C411   C     0.09791   0.83791   0.16766   0.00000  Uiso   1.00
C412   C     0.40942   0.65477   0.16373   0.00000  Uiso   1.00
C413   C     0.40168   0.83703   0.16570   0.00000  Uiso   1.00
C414   C     0.09041   0.65420   0.16850   0.00000  Uiso   1.00
C415   C     0.34791   0.58792   0.16766   0.00000  Uiso   1.00
C416   C     0.15942   0.90477   0.16373   0.00000  Uiso   1.00
C417   C     0.15168   0.58703   0.16570   0.00000  Uiso   1.00
C418   C     0.06119   0.80755   0.16705   0.00000  Uiso   1.00
C419   C     0.34041   0.90421   0.16850   0.00000  Uiso   1.00
C420   C     0.04686   0.65192   0.03831   0.00000  Uiso   1.00
C421   C     0.04114   0.60545   0.01792   0.00000  Uiso   1.00
C422   C     0.49345   0.85939   0.27607   0.00000  Uiso   1.00
C423   C     0.46365   0.89901   0.27027   0.00000  Uiso   1.00
C424   C     0.00220   0.85996   0.05818   0.00000  Uiso   1.00
C425   C     0.03079   0.90052   0.06381   0.00000  Uiso   1.00
C426   C     0.44930   0.65564   0.29660   0.00000  Uiso   1.00
C427   C     0.44367   0.60807   0.27950   0.00000  Uiso   1.00
C428   C     0.29687   0.90192   0.03830   0.00000  Uiso   1.00
C429   C     0.30871   0.93985   0.16709   0.00000  Uiso   1.00
C430   C     0.29115   0.85545   0.01793   0.00000  Uiso   1.00
C431   C     0.24345   0.60939   0.27607   0.00000  Uiso   1.00
C432   C     0.21364   0.64901   0.27027   0.00000  Uiso   1.00
C433   C     0.25220   0.60996   0.05818   0.00000  Uiso   1.00
C434   C     0.28079   0.65052   0.06381   0.00000  Uiso   1.00
C435   C     0.19930   0.90564   0.29660   0.00000  Uiso   1.00
C436   C     0.19368   0.85807   0.27951   0.00000  Uiso   1.00
C437   C     0.45790   0.59876   0.12295   0.00000  Uiso   1.00
C438   C     0.09072   0.86801   0.25033   0.00000  Uiso   1.00
C439   C     0.12747   0.80740   0.09063   0.00000  Uiso   1.00
C440   C     0.18868   0.55725   0.16639   0.00000  Uiso   1.00
C441   C     0.34884   0.70451   0.18557   0.00000  Uiso   1.00
C442   C     0.04425   0.60031   0.21367   0.00000  Uiso   1.00
C443   C     0.40037   0.85675   0.07989   0.00000  Uiso   1.00
C444   C     0.37700   0.81319   0.24629   0.00000  Uiso   1.00
C445   C     0.15080   0.69965   0.14020   0.00000  Uiso   1.00
C446   C     0.20791   0.84875   0.12300   0.00000  Uiso   1.00
C447   C     0.34071   0.61800   0.25034   0.00000  Uiso   1.00
C448   C     0.37743   0.55743   0.09061   0.00000  Uiso   1.00
C449   C     0.09884   0.95451   0.18556   0.00000  Uiso   1.00
C450   C     0.29425   0.85031   0.21367   0.00000  Uiso   1.00
C451   C     0.19153   0.93973   0.16599   0.00000  Uiso   1.00
C452   C     0.15037   0.60676   0.07989   0.00000  Uiso   1.00
C453   C     0.12700   0.56318   0.24628   0.00000  Uiso   1.00
C454   C     0.40080   0.94965   0.14018   0.00000  Uiso   1.00
C455   C     0.31119   0.55755   0.16705   0.00000  Uiso   1.00
C456   C     0.00180   0.71115   0.02460   0.00000  Uiso   1.00
Cu457  Cu    0.00000   0.75000   0.21355   0.00000  Uiso   1.00
Cu458  Cu    0.00000   0.75000   0.11978   0.00000  Uiso   1.00
Cu459  Cu    0.25000   0.50000   0.21355   0.00000  Uiso   1.00
Cu460  Cu    0.25000   0.50000   0.11978   0.00000  Uiso   1.00
H461   H     0.06454   0.64790   0.07146   0.00000  Uiso   1.00
H462   H     0.44719   0.90633   0.30308   0.00000  Uiso   1.00
H463   H     0.48870   0.85404   0.09244   0.00000  Uiso   1.00
H464   H     0.47630   0.86778   0.03316   0.00000  Uiso   1.00
H465   H     0.01164   0.92972   0.07450   0.00000  Uiso   1.00
H466   H     0.05566   0.89421   0.09086   0.00000  Uiso   1.00
H467   H     0.04648   0.90828   0.03077   0.00000  Uiso   1.00
H468   H     0.42412   0.67674   0.28046   0.00000  Uiso   1.00
H469   H     0.44383   0.65513   0.00120   0.00000  Uiso   1.00
H470   H     0.47049   0.58700   0.29129   0.00000  Uiso   1.00
H471   H     0.41476   0.59397   0.29434   0.00000  Uiso   1.00
H472   H     0.06770   0.67185   0.01546   0.00000  Uiso   1.00
H473   H     0.44058   0.60677   0.24121   0.00000  Uiso   1.00
H474   H     0.31456   0.89791   0.07145   0.00000  Uiso   1.00
H475   H     0.31770   0.92185   0.01544   0.00000  Uiso   1.00
H476   H     0.28790   0.85732   0.31308   0.00000  Uiso   1.00
H477   H     0.31946   0.83475   0.02621   0.00000  Uiso   1.00
H478   H     0.26284   0.83907   0.03237   0.00000  Uiso   1.00
H479   H     0.25711   0.60303   0.24183   0.00000  Uiso   1.00
H480   H     0.26884   0.61866   0.30120   0.00000  Uiso   1.00
H481   H     0.23208   0.67875   0.26028   0.00000  Uiso   1.00
H482   H     0.18952   0.64203   0.24262   0.00000  Uiso   1.00
H483   H     0.03791   0.60733   0.31307   0.00000  Uiso   1.00
H484   H     0.19718   0.65633   0.30307   0.00000  Uiso   1.00
H485   H     0.23870   0.60404   0.09244   0.00000  Uiso   1.00
H486   H     0.22630   0.61778   0.03316   0.00000  Uiso   1.00
H487   H     0.26164   0.67973   0.07450   0.00000  Uiso   1.00
H488   H     0.30565   0.64421   0.09086   0.00000  Uiso   1.00
H489   H     0.29648   0.65828   0.03077   0.00000  Uiso   1.00
H490   H     0.17412   0.92674   0.28046   0.00000  Uiso   1.00
H491   H     0.19383   0.90513   0.00120   0.00000  Uiso   1.00
H492   H     0.22049   0.83699   0.29131   0.00000  Uiso   1.00
H493   H     0.16477   0.84396   0.29435   0.00000  Uiso   1.00
H494   H     0.06944   0.58474   0.02621   0.00000  Uiso   1.00
H495   H     0.19058   0.85676   0.24122   0.00000  Uiso   1.00
H496   H     0.49485   0.54688   0.10420   0.00000  Uiso   1.00
H497   H     0.08588   0.82696   0.30507   0.00000  Uiso   1.00
H498   H     0.14283   0.80025   0.02366   0.00000  Uiso   1.00
H499   H     0.34110   0.76313   0.15291   0.00000  Uiso   1.00
H500   H     0.00934   0.54848   0.23585   0.00000  Uiso   1.00
H501   H     0.40115   0.80870   0.03070   0.00000  Uiso   1.00
H502   H     0.39037   0.75588   0.27943   0.00000  Uiso   1.00
H503   H     0.16529   0.75726   0.17313   0.00000  Uiso   1.00
H504   H     0.24490   0.79685   0.10438   0.00000  Uiso   1.00
H505   H     0.01282   0.58907   0.03234   0.00000  Uiso   1.00
H506   H     0.33584   0.57695   0.30507   0.00000  Uiso   1.00
H507   H     0.39272   0.55032   0.02361   0.00000  Uiso   1.00
H508   H     0.09110   0.51313   0.15290   0.00000  Uiso   1.00
H509   H     0.25934   0.79849   0.23586   0.00000  Uiso   1.00
H510   H     0.15115   0.55871   0.03070   0.00000  Uiso   1.00
H511   H     0.14037   0.50587   0.27942   0.00000  Uiso   1.00
H512   H     0.41529   0.50727   0.17309   0.00000  Uiso   1.00
H513   H     0.00712   0.85303   0.24183   0.00000  Uiso   1.00
H514   H     0.01885   0.86865   0.30120   0.00000  Uiso   1.00
H515   H     0.48209   0.92876   0.26028   0.00000  Uiso   1.00
H516   H     0.43953   0.89204   0.24263   0.00000  Uiso   1.00
N517   N    -0.00000   0.75000   0.28402   0.00000  Uiso   1.00
N518   N    -0.00000   0.75000   0.04931   0.00000  Uiso   1.00
N519   N     0.25000   0.50000   0.28402   0.00000  Uiso   1.00
N520   N     0.25000   0.50000   0.04931   0.00000  Uiso   1.00
O521   O     0.04508   0.70491   0.20625   0.00000  Uiso   1.00
O522   O     0.20491   0.54509   0.12709   0.00000  Uiso   1.00
O523   O     0.20491   0.54509   0.20625   0.00000  Uiso   1.00
O524   O     0.29508   0.95491   0.12709   0.00000  Uiso   1.00
O525   O     0.20491   0.95491   0.12709   0.00000  Uiso   1.00
O526   O     0.29508   0.54509   0.20625   0.00000  Uiso   1.00
O527   O     0.29508   0.54509   0.12709   0.00000  Uiso   1.00
O528   O     0.20491   0.95491   0.20625   0.00000  Uiso   1.00
O529   O     0.00683   0.67149   0.04797   0.00000  Uiso   1.00
O530   O     0.47032   0.82214   0.29046   0.00000  Uiso   1.00
O531   O     0.02682   0.82325   0.04430   0.00000  Uiso   1.00
O532   O     0.45491   0.79509   0.12709   0.00000  Uiso   1.00
O533   O     0.49022   0.67157   0.28510   0.00000  Uiso   1.00
O534   O     0.25684   0.92150   0.04796   0.00000  Uiso   1.00
O535   O     0.22031   0.57214   0.29046   0.00000  Uiso   1.00
O536   O     0.27682   0.57325   0.04430   0.00000  Uiso   1.00
O537   O     0.24022   0.92157   0.28510   0.00000  Uiso   1.00
O538   O     0.48786   0.62416   0.12118   0.00000  Uiso   1.00
O539   O     0.46444   0.55376   0.11267   0.00000  Uiso   1.00
O540   O     0.08723   0.90086   0.27519   0.00000  Uiso   1.00
O541   O     0.09098   0.82586   0.27052   0.00000  Uiso   1.00
O542   O     0.11227   0.77018   0.09121   0.00000  Uiso   1.00
O543   O     0.45491   0.79509   0.20625   0.00000  Uiso   1.00
O544   O     0.14422   0.82328   0.04944   0.00000  Uiso   1.00
O545   O     0.31715   0.71068   0.20857   0.00000  Uiso   1.00
O546   O     0.36137   0.73694   0.15420   0.00000  Uiso   1.00
O547   O     0.01311   0.62423   0.21153   0.00000  Uiso   1.00
O548   O     0.03976   0.55653   0.22894   0.00000  Uiso   1.00
O549   O     0.40146   0.88618   0.05086   0.00000  Uiso   1.00
O550   O     0.39818   0.81234   0.06541   0.00000  Uiso   1.00
O551   O     0.37028   0.83253   0.28280   0.00000  Uiso   1.00
O552   O     0.38815   0.76828   0.24686   0.00000  Uiso   1.00
O553   O     0.17884   0.70475   0.11202   0.00000  Uiso   1.00
O554   O     0.04508   0.70491   0.12709   0.00000  Uiso   1.00
O555   O     0.14417   0.73196   0.17442   0.00000  Uiso   1.00
O556   O     0.23785   0.87416   0.12114   0.00000  Uiso   1.00
O557   O     0.21449   0.80373   0.11287   0.00000  Uiso   1.00
O558   O     0.33723   0.65086   0.27519   0.00000  Uiso   1.00
O559   O     0.34097   0.57586   0.27052   0.00000  Uiso   1.00
O560   O     0.36228   0.52019   0.09120   0.00000  Uiso   1.00
O561   O     0.39410   0.57335   0.04940   0.00000  Uiso   1.00
O562   O     0.06715   0.96068   0.20857   0.00000  Uiso   1.00
O563   O     0.11137   0.98694   0.15419   0.00000  Uiso   1.00
O564   O     0.26311   0.87423   0.21152   0.00000  Uiso   1.00
O565   O     0.45491   0.70491   0.12709   0.00000  Uiso   1.00
O566   O     0.28976   0.80653   0.22895   0.00000  Uiso   1.00
O567   O     0.15146   0.63619   0.05087   0.00000  Uiso   1.00
O568   O     0.14818   0.56235   0.06541   0.00000  Uiso   1.00
O569   O     0.12028   0.58252   0.28280   0.00000  Uiso   1.00
O570   O     0.13815   0.51827   0.24686   0.00000  Uiso   1.00
O571   O     0.42883   0.95475   0.11199   0.00000  Uiso   1.00
O572   O     0.39418   0.98197   0.17439   0.00000  Uiso   1.00
O573   O     0.04508   0.79509   0.20625   0.00000  Uiso   1.00
O574   O     0.04508   0.79509   0.12709   0.00000  Uiso   1.00
O575   O     0.45491   0.70491   0.20625   0.00000  Uiso   1.00
O576   O     0.29508   0.95491   0.20625   0.00000  Uiso   1.00
C577   C     0.55871   0.68985   0.16709   0.00000  Uiso   1.00
C578   C     0.99646   0.78920   0.30882   0.00000  Uiso   1.00
C579   C     0.50235   0.78926   0.02507   0.00000  Uiso   1.00
C580   C     0.99800   0.71108   0.30843   0.00000  Uiso   1.00
C581   C     0.75180   0.96115   0.02460   0.00000  Uiso   1.00
C582   C     0.74645   0.53920   0.30882   0.00000  Uiso   1.00
C583   C     0.75234   0.53927   0.02507   0.00000  Uiso   1.00
C584   C     0.74800   0.96108   0.30843   0.00000  Uiso   1.00
C585   C     0.91535   0.61436   0.13889   0.00000  Uiso   1.00
C586   C     0.59957   0.87329   0.20020   0.00000  Uiso   1.00
C587   C     0.62987   0.83601   0.13319   0.00000  Uiso   1.00
C588   C     0.93868   0.80725   0.16639   0.00000  Uiso   1.00
C589   C     0.87161   0.66120   0.18746   0.00000  Uiso   1.00
C590   C     0.58595   0.61577   0.19629   0.00000  Uiso   1.00
C591   C     0.89713   0.86849   0.12985   0.00000  Uiso   1.00
C592   C     0.87176   0.83800   0.20200   0.00000  Uiso   1.00
C593   C     0.62626   0.65776   0.14093   0.00000  Uiso   1.00
C594   C     0.66536   0.86435   0.13891   0.00000  Uiso   1.00
C595   C     0.84958   0.62329   0.20021   0.00000  Uiso   1.00
C596   C     0.87985   0.58602   0.13318   0.00000  Uiso   1.00
C597   C     0.62160   0.91120   0.18745   0.00000  Uiso   1.00
C598   C     0.83595   0.86578   0.19629   0.00000  Uiso   1.00
C599   C     0.94153   0.68973   0.16599   0.00000  Uiso   1.00
C600   C     0.64713   0.61849   0.12986   0.00000  Uiso   1.00
C601   C     0.62175   0.58800   0.20200   0.00000  Uiso   1.00
C602   C     0.87626   0.90776   0.14093   0.00000  Uiso   1.00
C603   C     0.59791   0.83791   0.16766   0.00000  Uiso   1.00
C604   C     0.90942   0.65477   0.16373   0.00000  Uiso   1.00
C605   C     0.90168   0.83703   0.16570   0.00000  Uiso   1.00
C606   C     0.59041   0.65420   0.16850   0.00000  Uiso   1.00
C607   C     0.84791   0.58792   0.16766   0.00000  Uiso   1.00
C608   C     0.65942   0.90477   0.16373   0.00000  Uiso   1.00
C609   C     0.65168   0.58703   0.16570   0.00000  Uiso   1.00
C610   C     0.56119   0.80755   0.16705   0.00000  Uiso   1.00
C611   C     0.84041   0.90421   0.16850   0.00000  Uiso   1.00
C612   C     0.54686   0.65192   0.03831   0.00000  Uiso   1.00
C613   C     0.54114   0.60545   0.01792   0.00000  Uiso   1.00
C614   C     0.99345   0.85939   0.27607   0.00000  Uiso   1.00
C615   C     0.96365   0.89901   0.27027   0.00000  Uiso   1.00
C616   C     0.50220   0.85996   0.05818   0.00000  Uiso   1.00
C617   C     0.53079   0.90052   0.06381   0.00000  Uiso   1.00
C618   C     0.94930   0.65564   0.29660   0.00000  Uiso   1.00
C619   C     0.94367   0.60807   0.27950   0.00000  Uiso   1.00
C620   C     0.79687   0.90192   0.03830   0.00000  Uiso   1.00
C621   C     0.80871   0.93985   0.16709   0.00000  Uiso   1.00
C622   C     0.79115   0.85545   0.01793   0.00000  Uiso   1.00
C623   C     0.74345   0.60939   0.27607   0.00000  Uiso   1.00
C624   C     0.71364   0.64901   0.27027   0.00000  Uiso   1.00
C625   C     0.75220   0.60996   0.05818   0.00000  Uiso   1.00
C626   C     0.78079   0.65052   0.06381   0.00000  Uiso   1.00
C627   C     0.69930   0.90564   0.29660   0.00000  Uiso   1.00
C628   C     0.69368   0.85807   0.27951   0.00000  Uiso   1.00
C629   C     0.95790   0.59876   0.12295   0.00000  Uiso   1.00
C630   C     0.59072   0.86801   0.25033   0.00000  Uiso   1.00
C631   C     0.62747   0.80740   0.09063   0.00000  Uiso   1.00
C632   C     0.68868   0.55725   0.16639   0.00000  Uiso   1.00
C633   C     0.84884   0.70451   0.18557   0.00000  Uiso   1.00
C634   C     0.54425   0.60031   0.21367   0.00000  Uiso   1.00
C635   C     0.90037   0.85675   0.07989   0.00000  Uiso   1.00
C636   C     0.87700   0.81319   0.24629   0.00000  Uiso   1.00
C637   C     0.65080   0.69965   0.14020   0.00000  Uiso   1.00
C638   C     0.70791   0.84875   0.12300   0.00000  Uiso   1.00
C639   C     0.84071   0.61800   0.25034   0.00000  Uiso   1.00
C640   C     0.87743   0.55743   0.09061   0.00000  Uiso   1.00
C641   C     0.59884   0.95451   0.18556   0.00000  Uiso   1.00
C642   C     0.79425   0.85031   0.21367   0.00000  Uiso   1.00
C643   C     0.69153   0.93973   0.16599   0.00000  Uiso   1.00
C644   C     0.65037   0.60676   0.07989   0.00000  Uiso   1.00
C645   C     0.62700   0.56318   0.24628   0.00000  Uiso   1.00
C646   C     0.90080   0.94965   0.14018   0.00000  Uiso   1.00
C647   C     0.81119   0.55755   0.16705   0.00000  Uiso   1.00
C648   C     0.50180   0.71115   0.02460   0.00000  Uiso   1.00
Cu649  Cu    0.50000   0.75000   0.21355   0.00000  Uiso   1.00
Cu650  Cu    0.50000   0.75000   0.11978   0.00000  Uiso   1.00
Cu651  Cu    0.75000   0.50000   0.21355   0.00000  Uiso   1.00
Cu652  Cu    0.75000   0.50000   0.11978   0.00000  Uiso   1.00
H653   H     0.56454   0.64790   0.07146   0.00000  Uiso   1.00
H654   H     0.94719   0.90633   0.30308   0.00000  Uiso   1.00
H655   H     0.98870   0.85404   0.09244   0.00000  Uiso   1.00
H656   H     0.97630   0.86778   0.03316   0.00000  Uiso   1.00
H657   H     0.51164   0.92972   0.07450   0.00000  Uiso   1.00
H658   H     0.55566   0.89421   0.09086   0.00000  Uiso   1.00
H659   H     0.54648   0.90828   0.03077   0.00000  Uiso   1.00
H660   H     0.92412   0.67674   0.28046   0.00000  Uiso   1.00
H661   H     0.94383   0.65513   0.00120   0.00000  Uiso   1.00
H662   H     0.97049   0.58700   0.29129   0.00000  Uiso   1.00
H663   H     0.91476   0.59397   0.29434   0.00000  Uiso   1.00
H664   H     0.56770   0.67185   0.01546   0.00000  Uiso   1.00
H665   H     0.94058   0.60677   0.24121   0.00000  Uiso   1.00
H666   H     0.81456   0.89791   0.07145   0.00000  Uiso   1.00
H667   H     0.81770   0.92185   0.01544   0.00000  Uiso   1.00
H668   H     0.78790   0.85732   0.31308   0.00000  Uiso   1.00
H669   H     0.81946   0.83475   0.02621   0.00000  Uiso   1.00
H670   H     0.76284   0.83907   0.03237   0.00000  Uiso   1.00
H671   H     0.75711   0.60303   0.24183   0.00000  Uiso   1.00
H672   H     0.76884   0.61866   0.30120   0.00000  Uiso   1.00
H673   H     0.73208   0.67875   0.26028   0.00000  Uiso   1.00
H674   H     0.68952   0.64203   0.24262   0.00000  Uiso   1.00
H675   H     0.53791   0.60733   0.31307   0.00000  Uiso   1.00
H676   H     0.69718   0.65633   0.30307   0.00000  Uiso   1.00
H677   H     0.73870   0.60404   0.09244   0.00000  Uiso   1.00
H678   H     0.72630   0.61778   0.03316   0.00000  Uiso   1.00
H679   H     0.76164   0.67973   0.07450   0.00000  Uiso   1.00
H680   H     0.80565   0.64421   0.09086   0.00000  Uiso   1.00
H681   H     0.79648   0.65828   0.03077   0.00000  Uiso   1.00
H682   H     0.67412   0.92674   0.28046   0.00000  Uiso   1.00
H683   H     0.69383   0.90513   0.00120   0.00000  Uiso   1.00
H684   H     0.72049   0.83699   0.29131   0.00000  Uiso   1.00
H685   H     0.66477   0.84396   0.29435   0.00000  Uiso   1.00
H686   H     0.56944   0.58474   0.02621   0.00000  Uiso   1.00
H687   H     0.69058   0.85676   0.24122   0.00000  Uiso   1.00
H688   H     0.99485   0.54688   0.10420   0.00000  Uiso   1.00
H689   H     0.58588   0.82696   0.30507   0.00000  Uiso   1.00
H690   H     0.64283   0.80025   0.02366   0.00000  Uiso   1.00
H691   H     0.84110   0.76313   0.15291   0.00000  Uiso   1.00
H692   H     0.50934   0.54848   0.23585   0.00000  Uiso   1.00
H693   H     0.90115   0.80870   0.03070   0.00000  Uiso   1.00
H694   H     0.89037   0.75588   0.27943   0.00000  Uiso   1.00
H695   H     0.66529   0.75726   0.17313   0.00000  Uiso   1.00
H696   H     0.74490   0.79685   0.10438   0.00000  Uiso   1.00
H697   H     0.51282   0.58907   0.03234   0.00000  Uiso   1.00
H698   H     0.83584   0.57695   0.30507   0.00000  Uiso   1.00
H699   H     0.89272   0.55032   0.02361   0.00000  Uiso   1.00
H700   H     0.59110   0.51313   0.15290   0.00000  Uiso   1.00
H701   H     0.75934   0.79849   0.23586   0.00000  Uiso   1.00
H702   H     0.65115   0.55871   0.03070   0.00000  Uiso   1.00
H703   H     0.64037   0.50587   0.27942   0.00000  Uiso   1.00
H704   H     0.91529   0.50727   0.17309   0.00000  Uiso   1.00
H705   H     0.50712   0.85303   0.24183   0.00000  Uiso   1.00
H706   H     0.51885   0.86865   0.30120   0.00000  Uiso   1.00
H707   H     0.98209   0.92876   0.26028   0.00000  Uiso   1.00
H708   H     0.93953   0.89204   0.24263   0.00000  Uiso   1.00
N709   N     0.50000   0.75000   0.28402   0.00000  Uiso   1.00
N710   N     0.50000   0.75000   0.04931   0.00000  Uiso   1.00
N711   N     0.75000   0.50000   0.28402   0.00000  Uiso   1.00
N712   N     0.75000   0.50000   0.04931   0.00000  Uiso   1.00
O713   O     0.54508   0.70491   0.20625   0.00000  Uiso   1.00
O714   O     0.70491   0.54509   0.12709   0.00000  Uiso   1.00
O715   O     0.70491   0.54509   0.20625   0.00000  Uiso   1.00
O716   O     0.79508   0.95491   0.12709   0.00000  Uiso   1.00
O717   O     0.70491   0.95491   0.12709   0.00000  Uiso   1.00
O718   O     0.79508   0.54509   0.20625   0.00000  Uiso   1.00
O719   O     0.79508   0.54509   0.12709   0.00000  Uiso   1.00
O720   O     0.70491   0.95491   0.20625   0.00000  Uiso   1.00
O721   O     0.50683   0.67149   0.04797   0.00000  Uiso   1.00
O722   O     0.97032   0.82214   0.29046   0.00000  Uiso   1.00
O723   O     0.52682   0.82325   0.04430   0.00000  Uiso   1.00
O724   O     0.95491   0.79509   0.12709   0.00000  Uiso   1.00
O725   O     0.99022   0.67157   0.28510   0.00000  Uiso   1.00
O726   O     0.75684   0.92150   0.04796   0.00000  Uiso   1.00
O727   O     0.72031   0.57214   0.29046   0.00000  Uiso   1.00
O728   O     0.77682   0.57325   0.04430   0.00000  Uiso   1.00
O729   O     0.74022   0.92157   0.28510   0.00000  Uiso   1.00
O730   O     0.98786   0.62416   0.12118   0.00000  Uiso   1.00
O731   O     0.96444   0.55376   0.11267   0.00000  Uiso   1.00
O732   O     0.58723   0.90086   0.27519   0.00000  Uiso   1.00
O733   O     0.59098   0.82586   0.27052   0.00000  Uiso   1.00
O734   O     0.61227   0.77018   0.09121   0.00000  Uiso   1.00
O735   O     0.95491   0.79509   0.20625   0.00000  Uiso   1.00
O736   O     0.64422   0.82328   0.04944   0.00000  Uiso   1.00
O737   O     0.81715   0.71068   0.20857   0.00000  Uiso   1.00
O738   O     0.86137   0.73694   0.15420   0.00000  Uiso   1.00
O739   O     0.51311   0.62423   0.21153   0.00000  Uiso   1.00
O740   O     0.53976   0.55653   0.22894   0.00000  Uiso   1.00
O741   O     0.90146   0.88618   0.05086   0.00000  Uiso   1.00
O742   O     0.89818   0.81234   0.06541   0.00000  Uiso   1.00
O743   O     0.87028   0.83253   0.28280   0.00000  Uiso   1.00
O744   O     0.88815   0.76828   0.24686   0.00000  Uiso   1.00
O745   O     0.67884   0.70475   0.11202   0.00000  Uiso   1.00
O746   O     0.54508   0.70491   0.12709   0.00000  Uiso   1.00
O747   O     0.64417   0.73196   0.17442   0.00000  Uiso   1.00
O748   O     0.73785   0.87416   0.12114   0.00000  Uiso   1.00
O749   O     0.71449   0.80373   0.11287   0.00000  Uiso   1.00
O750   O     0.83723   0.65086   0.27519   0.00000  Uiso   1.00
O751   O     0.84097   0.57586   0.27052   0.00000  Uiso   1.00
O752   O     0.86228   0.52019   0.09120   0.00000  Uiso   1.00
O753   O     0.89410   0.57335   0.04940   0.00000  Uiso   1.00
O754   O     0.56715   0.96068   0.20857   0.00000  Uiso   1.00
O755   O     0.61137   0.98694   0.15419   0.00000  Uiso   1.00
O756   O     0.76311   0.87423   0.21152   0.00000  Uiso   1.00
O757   O     0.95491   0.70491   0.12709   0.00000  Uiso   1.00
O758   O     0.78976   0.80653   0.22895   0.00000  Uiso   1.00
O759   O     0.65146   0.63619   0.05087   0.00000  Uiso   1.00
O760   O     0.64818   0.56235   0.06541   0.00000  Uiso   1.00
O761   O     0.62028   0.58252   0.28280   0.00000  Uiso   1.00
O762   O     0.63815   0.51827   0.24686   0.00000  Uiso   1.00
O763   O     0.92883   0.95475   0.11199   0.00000  Uiso   1.00
O764   O     0.89418   0.98197   0.17439   0.00000  Uiso   1.00
O765   O     0.54508   0.79509   0.20625   0.00000  Uiso   1.00
O766   O     0.54508   0.79509   0.12709   0.00000  Uiso   1.00
O767   O     0.95491   0.70491   0.20625   0.00000  Uiso   1.00
O768   O     0.79508   0.95491   0.20625   0.00000  Uiso   1.00
C769   C     0.05871   0.18985   0.50043   0.00000  Uiso   1.00
C770   C     0.49646   0.28920   0.64215   0.00000  Uiso   1.00
C771   C     0.00235   0.28926   0.35840   0.00000  Uiso   1.00
C772   C     0.49800   0.21108   0.64177   0.00000  Uiso   1.00
C773   C     0.25180   0.46115   0.35793   0.00000  Uiso   1.00
C774   C     0.24645   0.03920   0.64215   0.00000  Uiso   1.00
C775   C     0.25234   0.03927   0.35840   0.00000  Uiso   1.00
C776   C     0.24800   0.46108   0.64177   0.00000  Uiso   1.00
C777   C     0.41535   0.11436   0.47222   0.00000  Uiso   1.00
C778   C     0.09957   0.37329   0.53353   0.00000  Uiso   1.00
C779   C     0.12987   0.33601   0.46653   0.00000  Uiso   1.00
C780   C     0.43868   0.30725   0.49973   0.00000  Uiso   1.00
C781   C     0.37161   0.16120   0.52079   0.00000  Uiso   1.00
C782   C     0.08595   0.11577   0.52962   0.00000  Uiso   1.00
C783   C     0.39713   0.36849   0.46319   0.00000  Uiso   1.00
C784   C     0.37176   0.33800   0.53533   0.00000  Uiso   1.00
C785   C     0.12626   0.15776   0.47427   0.00000  Uiso   1.00
C786   C     0.16536   0.36435   0.47224   0.00000  Uiso   1.00
C787   C     0.34958   0.12329   0.53354   0.00000  Uiso   1.00
C788   C     0.37985   0.08602   0.46651   0.00000  Uiso   1.00
C789   C     0.12160   0.41120   0.52078   0.00000  Uiso   1.00
C790   C     0.33595   0.36578   0.52962   0.00000  Uiso   1.00
C791   C     0.44153   0.18973   0.49932   0.00000  Uiso   1.00
C792   C     0.14713   0.11849   0.46319   0.00000  Uiso   1.00
C793   C     0.12175   0.08800   0.53533   0.00000  Uiso   1.00
C794   C     0.37626   0.40776   0.47426   0.00000  Uiso   1.00
C795   C     0.09791   0.33791   0.50100   0.00000  Uiso   1.00
C796   C     0.40942   0.15477   0.49707   0.00000  Uiso   1.00
C797   C     0.40168   0.33703   0.49903   0.00000  Uiso   1.00
C798   C     0.09041   0.15420   0.50183   0.00000  Uiso   1.00
C799   C     0.34791   0.08792   0.50100   0.00000  Uiso   1.00
C800   C     0.15942   0.40477   0.49707   0.00000  Uiso   1.00
C801   C     0.15168   0.08703   0.49903   0.00000  Uiso   1.00
C802   C     0.06119   0.30755   0.50039   0.00000  Uiso   1.00
C803   C     0.34041   0.40421   0.50183   0.00000  Uiso   1.00
C804   C     0.04686   0.15192   0.37164   0.00000  Uiso   1.00
C805   C     0.04114   0.10545   0.35126   0.00000  Uiso   1.00
C806   C     0.49345   0.35939   0.60940   0.00000  Uiso   1.00
C807   C     0.46365   0.39901   0.60361   0.00000  Uiso   1.00
C808   C     0.00220   0.35996   0.39151   0.00000  Uiso   1.00
C809   C     0.03079   0.40052   0.39714   0.00000  Uiso   1.00
C810   C     0.44930   0.15564   0.62993   0.00000  Uiso   1.00
C811   C     0.44367   0.10807   0.61283   0.00000  Uiso   1.00
C812   C     0.29687   0.40192   0.37163   0.00000  Uiso   1.00
C813   C     0.30871   0.43985   0.50043   0.00000  Uiso   1.00
C814   C     0.29115   0.35545   0.35127   0.00000  Uiso   1.00
C815   C     0.24345   0.10939   0.60940   0.00000  Uiso   1.00
C816   C     0.21364   0.14901   0.60360   0.00000  Uiso   1.00
C817   C     0.25220   0.10996   0.39151   0.00000  Uiso   1.00
C818   C     0.28079   0.15052   0.39714   0.00000  Uiso   1.00
C819   C     0.19930   0.40564   0.62993   0.00000  Uiso   1.00
C820   C     0.19368   0.35807   0.61284   0.00000  Uiso   1.00
C821   C     0.45790   0.09876   0.45628   0.00000  Uiso   1.00
C822   C     0.09072   0.36801   0.58367   0.00000  Uiso   1.00
C823   C     0.12747   0.30740   0.42397   0.00000  Uiso   1.00
C824   C     0.18868   0.05725   0.49973   0.00000  Uiso   1.00
C825   C     0.34884   0.20451   0.51891   0.00000  Uiso   1.00
C826   C     0.04425   0.10031   0.54700   0.00000  Uiso   1.00
C827   C     0.40037   0.35675   0.41322   0.00000  Uiso   1.00
C828   C     0.37700   0.31319   0.57962   0.00000  Uiso   1.00
C829   C     0.15080   0.19965   0.47354   0.00000  Uiso   1.00
C830   C     0.20791   0.34875   0.45634   0.00000  Uiso   1.00
C831   C     0.34071   0.11800   0.58367   0.00000  Uiso   1.00
C832   C     0.37743   0.05743   0.42394   0.00000  Uiso   1.00
C833   C     0.09884   0.45451   0.51890   0.00000  Uiso   1.00
C834   C     0.29425   0.35031   0.54700   0.00000  Uiso   1.00
C835   C     0.19153   0.43973   0.49932   0.00000  Uiso   1.00
C836   C     0.15037   0.10676   0.41322   0.00000  Uiso   1.00
C837   C     0.12700   0.06318   0.57962   0.00000  Uiso   1.00
C838   C     0.40080   0.44965   0.47351   0.00000  Uiso   1.00
C839   C     0.31119   0.05755   0.50039   0.00000  Uiso   1.00
C840   C     0.00180   0.21115   0.35793   0.00000  Uiso   1.00
Cu841  Cu    0.00000   0.25000   0.54689   0.00000  Uiso   1.00
Cu842  Cu    0.00000   0.25000   0.45311   0.00000  Uiso   1.00
Cu843  Cu    0.25000   0.00000   0.54689   0.00000  Uiso   1.00
Cu844  Cu    0.25000   0.00000   0.45311   0.00000  Uiso   1.00
H845   H     0.06454   0.14790   0.40479   0.00000  Uiso   1.00
H846   H     0.44719   0.40633   0.63641   0.00000  Uiso   1.00
H847   H     0.48870   0.35404   0.42577   0.00000  Uiso   1.00
H848   H     0.47630   0.36778   0.36650   0.00000  Uiso   1.00
H849   H     0.01164   0.42972   0.40784   0.00000  Uiso   1.00
H850   H     0.05566   0.39421   0.42419   0.00000  Uiso   1.00
H851   H     0.04648   0.40828   0.36410   0.00000  Uiso   1.00
H852   H     0.42412   0.17674   0.61379   0.00000  Uiso   1.00
H853   H     0.44383   0.15513   0.33453   0.00000  Uiso   1.00
H854   H     0.47049   0.08700   0.62463   0.00000  Uiso   1.00
H855   H     0.41476   0.09397   0.62767   0.00000  Uiso   1.00
H856   H     0.06770   0.17185   0.34880   0.00000  Uiso   1.00
H857   H     0.44058   0.10677   0.57455   0.00000  Uiso   1.00
H858   H     0.31456   0.39791   0.40478   0.00000  Uiso   1.00
H859   H     0.31770   0.42185   0.34878   0.00000  Uiso   1.00
H860   H     0.28790   0.35732   0.64642   0.00000  Uiso   1.00
H861   H     0.31946   0.33475   0.35954   0.00000  Uiso   1.00
H862   H     0.26284   0.33907   0.36570   0.00000  Uiso   1.00
H863   H     0.25711   0.10303   0.57516   0.00000  Uiso   1.00
H864   H     0.26884   0.11866   0.63453   0.00000  Uiso   1.00
H865   H     0.23208   0.17875   0.59361   0.00000  Uiso   1.00
H866   H     0.18952   0.14203   0.57595   0.00000  Uiso   1.00
H867   H     0.03791   0.10733   0.64641   0.00000  Uiso   1.00
H868   H     0.19718   0.15633   0.63641   0.00000  Uiso   1.00
H869   H     0.23870   0.10404   0.42577   0.00000  Uiso   1.00
H870   H     0.22630   0.11778   0.36650   0.00000  Uiso   1.00
H871   H     0.26164   0.17973   0.40783   0.00000  Uiso   1.00
H872   H     0.30565   0.14421   0.42419   0.00000  Uiso   1.00
H873   H     0.29648   0.15828   0.36410   0.00000  Uiso   1.00
H874   H     0.17412   0.42674   0.61379   0.00000  Uiso   1.00
H875   H     0.19383   0.40513   0.33454   0.00000  Uiso   1.00
H876   H     0.22049   0.33699   0.62464   0.00000  Uiso   1.00
H877   H     0.16477   0.34396   0.62769   0.00000  Uiso   1.00
H878   H     0.06944   0.08474   0.35954   0.00000  Uiso   1.00
H879   H     0.19058   0.35676   0.57456   0.00000  Uiso   1.00
H880   H     0.49485   0.04688   0.43753   0.00000  Uiso   1.00
H881   H     0.08588   0.32696   0.63840   0.00000  Uiso   1.00
H882   H     0.14283   0.30025   0.35699   0.00000  Uiso   1.00
H883   H     0.34110   0.26313   0.48624   0.00000  Uiso   1.00
H884   H     0.00934   0.04848   0.56918   0.00000  Uiso   1.00
H885   H     0.40115   0.30870   0.36403   0.00000  Uiso   1.00
H886   H     0.39037   0.25588   0.61276   0.00000  Uiso   1.00
H887   H     0.16529   0.25726   0.50647   0.00000  Uiso   1.00
H888   H     0.24490   0.29685   0.43772   0.00000  Uiso   1.00
H889   H     0.01282   0.08907   0.36567   0.00000  Uiso   1.00
H890   H     0.33584   0.07695   0.63840   0.00000  Uiso   1.00
H891   H     0.39272   0.05032   0.35694   0.00000  Uiso   1.00
H892   H     0.09110   0.01313   0.48623   0.00000  Uiso   1.00
H893   H     0.25934   0.29849   0.56919   0.00000  Uiso   1.00
H894   H     0.15115   0.05871   0.36403   0.00000  Uiso   1.00
H895   H     0.14037   0.00587   0.61276   0.00000  Uiso   1.00
H896   H     0.41529   0.00727   0.50642   0.00000  Uiso   1.00
H897   H     0.00712   0.35303   0.57516   0.00000  Uiso   1.00
H898   H     0.01885   0.36865   0.63453   0.00000  Uiso   1.00
H899   H     0.48209   0.42876   0.59361   0.00000  Uiso   1.00
H900   H     0.43953   0.39204   0.57596   0.00000  Uiso   1.00
N901   N    -0.00000   0.25000   0.61736   0.00000  Uiso   1.00
N902   N    -0.00000   0.25000   0.38264   0.00000  Uiso   1.00
N903   N     0.25000   0.00000   0.61736   0.00000  Uiso   1.00
N904   N     0.25000   0.00000   0.38264   0.00000  Uiso   1.00
O905   O     0.04508   0.20491   0.53958   0.00000  Uiso   1.00
O906   O     0.20491   0.04509   0.46042   0.00000  Uiso   1.00
O907   O     0.20491   0.04509   0.53958   0.00000  Uiso   1.00
O908   O     0.29508   0.45491   0.46042   0.00000  Uiso   1.00
O909   O     0.20491   0.45491   0.46042   0.00000  Uiso   1.00
O910   O     0.29508   0.04509   0.53958   0.00000  Uiso   1.00
O911   O     0.29508   0.04509   0.46042   0.00000  Uiso   1.00
O912   O     0.20491   0.45491   0.53958   0.00000  Uiso   1.00
O913   O     0.00683   0.17149   0.38130   0.00000  Uiso   1.00
O914   O     0.47032   0.32214   0.62379   0.00000  Uiso   1.00
O915   O     0.02682   0.32325   0.37763   0.00000  Uiso   1.00
O916   O     0.45491   0.29509   0.46042   0.00000  Uiso   1.00
O917   O     0.49022   0.17157   0.61843   0.00000  Uiso   1.00
O918   O     0.25684   0.42150   0.38130   0.00000  Uiso   1.00
O919   O     0.22031   0.07214   0.62379   0.00000  Uiso   1.00
O920   O     0.27682   0.07325   0.37763   0.00000  Uiso   1.00
O921   O     0.24022   0.42157   0.61844   0.00000  Uiso   1.00
O922   O     0.48786   0.12416   0.45451   0.00000  Uiso   1.00
O923   O     0.46444   0.05376   0.44601   0.00000  Uiso   1.00
O924   O     0.08723   0.40086   0.60852   0.00000  Uiso   1.00
O925   O     0.09098   0.32586   0.60385   0.00000  Uiso   1.00
O926   O     0.11227   0.27018   0.42454   0.00000  Uiso   1.00
O927   O     0.45491   0.29509   0.53958   0.00000  Uiso   1.00
O928   O     0.14422   0.32328   0.38278   0.00000  Uiso   1.00
O929   O     0.31715   0.21068   0.54191   0.00000  Uiso   1.00
O930   O     0.36137   0.23694   0.48753   0.00000  Uiso   1.00
O931   O     0.01311   0.12423   0.54486   0.00000  Uiso   1.00
O932   O     0.03976   0.05653   0.56227   0.00000  Uiso   1.00
O933   O     0.40146   0.38618   0.38419   0.00000  Uiso   1.00
O934   O     0.39818   0.31234   0.39874   0.00000  Uiso   1.00
O935   O     0.37028   0.33253   0.61613   0.00000  Uiso   1.00
O936   O     0.38815   0.26828   0.58020   0.00000  Uiso   1.00
O937   O     0.17884   0.20475   0.44536   0.00000  Uiso   1.00
O938   O     0.04508   0.20491   0.46042   0.00000  Uiso   1.00
O939   O     0.14417   0.23196   0.50775   0.00000  Uiso   1.00
O940   O     0.23785   0.37416   0.45447   0.00000  Uiso   1.00
O941   O     0.21449   0.30373   0.44620   0.00000  Uiso   1.00
O942   O     0.33723   0.15086   0.60852   0.00000  Uiso   1.00
O943   O     0.34097   0.07586   0.60385   0.00000  Uiso   1.00
O944   O     0.36228   0.02019   0.42453   0.00000  Uiso   1.00
O945   O     0.39410   0.07335   0.38273   0.00000  Uiso   1.00
O946   O     0.06715   0.46068   0.54190   0.00000  Uiso   1.00
O947   O     0.11137   0.48694   0.48752   0.00000  Uiso   1.00
O948   O     0.26311   0.37423   0.54485   0.00000  Uiso   1.00
O949   O     0.45491   0.20491   0.46042   0.00000  Uiso   1.00
O950   O     0.28976   0.30653   0.56228   0.00000  Uiso   1.00
O951   O     0.15146   0.13619   0.38420   0.00000  Uiso   1.00
O952   O     0.14818   0.06235   0.39874   0.00000  Uiso   1.00
O953   O     0.12028   0.08252   0.61613   0.00000  Uiso   1.00
O954   O     0.13815   0.01827   0.58019   0.00000  Uiso   1.00
O955   O     0.42883   0.45475   0.44532   0.00000  Uiso   1.00
O956   O     0.39418   0.48197   0.50772   0.00000  Uiso   1.00
O957   O     0.04508   0.29509   0.53958   0.00000  Uiso   1.00
O958   O     0.04508   0.29509   0.46042   0.00000  Uiso   1.00
O959   O     0.45491   0.20491   0.53958   0.00000  Uiso   1.00
O960   O     0.29508   0.45491   0.53958   0.00000  Uiso   1.00
C961   C     0.55871   0.18985   0.50043   0.00000  Uiso   1.00
C962   C     0.99646   0.28920   0.64215   0.00000  Uiso   1.00
C963   C     0.50235   0.28926   0.35840   0.00000  Uiso   1.00
C964   C     0.99800   0.21108   0.64177   0.00000  Uiso   1.00
C965   C     0.75180   0.46115   0.35793   0.00000  Uiso   1.00
C966   C     0.74645   0.03920   0.64215   0.00000  Uiso   1.00
C967   C     0.75234   0.03927   0.35840   0.00000  Uiso   1.00
C968   C     0.74800   0.46108   0.64177   0.00000  Uiso   1.00
C969   C     0.91535   0.11436   0.47222   0.00000  Uiso   1.00
C970   C     0.59957   0.37329   0.53353   0.00000  Uiso   1.00
C971   C     0.62987   0.33601   0.46653   0.00000  Uiso   1.00
C972   C     0.93868   0.30725   0.49973   0.00000  Uiso   1.00
C973   C     0.87161   0.16120   0.52079   0.00000  Uiso   1.00
C974   C     0.58595   0.11577   0.52962   0.00000  Uiso   1.00
C975   C     0.89713   0.36849   0.46319   0.00000  Uiso   1.00
C976   C     0.87176   0.33800   0.53533   0.00000  Uiso   1.00
C977   C     0.62626   0.15776   0.47427   0.00000  Uiso   1.00
C978   C     0.66536   0.36435   0.47224   0.00000  Uiso   1.00
C979   C     0.84958   0.12329   0.53354   0.00000  Uiso   1.00
C980   C     0.87985   0.08602   0.46651   0.00000  Uiso   1.00
C981   C     0.62160   0.41120   0.52078   0.00000  Uiso   1.00
C982   C     0.83595   0.36578   0.52962   0.00000  Uiso   1.00
C983   C     0.94153   0.18973   0.49932   0.00000  Uiso   1.00
C984   C     0.64713   0.11849   0.46319   0.00000  Uiso   1.00
C985   C     0.62175   0.08800   0.53533   0.00000  Uiso   1.00
C986   C     0.87626   0.40776   0.47426   0.00000  Uiso   1.00
C987   C     0.59791   0.33791   0.50100   0.00000  Uiso   1.00
C988   C     0.90942   0.15477   0.49707   0.00000  Uiso   1.00
C989   C     0.90168   0.33703   0.49903   0.00000  Uiso   1.00
C990   C     0.59041   0.15420   0.50183   0.00000  Uiso   1.00
C991   C     0.84791   0.08792   0.50100   0.00000  Uiso   1.00
C992   C     0.65942   0.40477   0.49707   0.00000  Uiso   1.00
C993   C     0.65168   0.08703   0.49903   0.00000  Uiso   1.00
C994   C     0.56119   0.30755   0.50039   0.00000  Uiso   1.00
C995   C     0.84041   0.40421   0.50183   0.00000  Uiso   1.00
C996   C     0.54686   0.15192   0.37164   0.00000  Uiso   1.00
C997   C     0.54114   0.10545   0.35126   0.00000  Uiso   1.00
C998   C     0.99345   0.35939   0.60940   0.00000  Uiso   1.00
C999   C     0.96365   0.39901   0.60361   0.00000  Uiso   1.00
C1000  C     0.50220   0.35996   0.39151   0.00000  Uiso   1.00
C1001  C     0.53079   0.40052   0.39714   0.00000  Uiso   1.00
C1002  C     0.94930   0.15564   0.62993   0.00000  Uiso   1.00
C1003  C     0.94367   0.10807   0.61283   0.00000  Uiso   1.00
C1004  C     0.79687   0.40192   0.37163   0.00000  Uiso   1.00
C1005  C     0.80871   0.43985   0.50043   0.00000  Uiso   1.00
C1006  C     0.79115   0.35545   0.35127   0.00000  Uiso   1.00
C1007  C     0.74345   0.10939   0.60940   0.00000  Uiso   1.00
C1008  C     0.71364   0.14901   0.60360   0.00000  Uiso   1.00
C1009  C     0.75220   0.10996   0.39151   0.00000  Uiso   1.00
C1010  C     0.78079   0.15052   0.39714   0.00000  Uiso   1.00
C1011  C     0.69930   0.40564   0.62993   0.00000  Uiso   1.00
C1012  C     0.69368   0.35807   0.61284   0.00000  Uiso   1.00
C1013  C     0.95790   0.09876   0.45628   0.00000  Uiso   1.00
C1014  C     0.59072   0.36801   0.58367   0.00000  Uiso   1.00
C1015  C     0.62747   0.30740   0.42397   0.00000  Uiso   1.00
C1016  C     0.68868   0.05725   0.49973   0.00000  Uiso   1.00
C1017  C     0.84884   0.20451   0.51891   0.00000  Uiso   1.00
C1018  C     0.54425   0.10031   0.54700   0.00000  Uiso   1.00
C1019  C     0.90037   0.35675   0.41322   0.00000  Uiso   1.00
C1020  C     0.87700   0.31319   0.57962   0.00000  Uiso   1.00
C1021  C     0.65080   0.19965   0.47354   0.00000  Uiso   1.00
C1022  C     0.70791   0.34875   0.45634   0.00000  Uiso   1.00
C1023  C     0.84071   0.11800   0.58367   0.00000  Uiso   1.00
C1024  C     0.87743   0.05743   0.42394   0.00000  Uiso   1.00
C1025  C     0.59884   0.45451   0.51890   0.00000  Uiso   1.00
C1026  C     0.79425   0.35031   0.54700   0.00000  Uiso   1.00
C1027  C     0.69153   0.43973   0.49932   0.00000  Uiso   1.00
C1028  C     0.65037   0.10676   0.41322   0.00000  Uiso   1.00
C1029  C     0.62700   0.06318   0.57962   0.00000  Uiso   1.00
C1030  C     0.90080   0.44965   0.47351   0.00000  Uiso   1.00
C1031  C     0.81119   0.05755   0.50039   0.00000  Uiso   1.00
C1032  C     0.50180   0.21115   0.35793   0.00000  Uiso   1.00
Cu1033 Cu    0.50000   0.25000   0.54689   0.00000  Uiso   1.00
Cu1034 Cu    0.50000   0.25000   0.45311   0.00000  Uiso   1.00
Cu1035 Cu    0.75000   0.00000   0.54689   0.00000  Uiso   1.00
Cu1036 Cu    0.75000   0.00000   0.45311   0.00000  Uiso   1.00
H1037  H     0.56454   0.14790   0.40479   0.00000  Uiso   1.00
H1038  H     0.94719   0.40633   0.63641   0.00000  Uiso   1.00
H1039  H     0.98870   0.35404   0.42577   0.00000  Uiso   1.00
H1040  H     0.97630   0.36778   0.36650   0.00000  Uiso   1.00
H1041  H     0.51164   0.42972   0.40784   0.00000  Uiso   1.00
H1042  H     0.55566   0.39421   0.42419   0.00000  Uiso   1.00
H1043  H     0.54648   0.40828   0.36410   0.00000  Uiso   1.00
H1044  H     0.92412   0.17674   0.61379   0.00000  Uiso   1.00
H1045  H     0.94383   0.15513   0.33453   0.00000  Uiso   1.00
H1046  H     0.97049   0.08700   0.62463   0.00000  Uiso   1.00
H1047  H     0.91476   0.09397   0.62767   0.00000  Uiso   1.00
H1048  H     0.56770   0.17185   0.34880   0.00000  Uiso   1.00
H1049  H     0.94058   0.10677   0.57455   0.00000  Uiso   1.00
H1050  H     0.81456   0.39791   0.40478   0.00000  Uiso   1.00
H1051  H     0.81770   0.42185   0.34878   0.00000  Uiso   1.00
H1052  H     0.78790   0.35732   0.64642   0.00000  Uiso   1.00
H1053  H     0.81946   0.33475   0.35954   0.00000  Uiso   1.00
H1054  H     0.76284   0.33907   0.36570   0.00000  Uiso   1.00
H1055  H     0.75711   0.10303   0.57516   0.00000  Uiso   1.00
H1056  H     0.76884   0.11866   0.63453   0.00000  Uiso   1.00
H1057  H     0.73208   0.17875   0.59361   0.00000  Uiso   1.00
H1058  H     0.68952   0.14203   0.57595   0.00000  Uiso   1.00
H1059  H     0.53791   0.10733   0.64641   0.00000  Uiso   1.00
H1060  H     0.69718   0.15633   0.63641   0.00000  Uiso   1.00
H1061  H     0.73870   0.10404   0.42577   0.00000  Uiso   1.00
H1062  H     0.72630   0.11778   0.36650   0.00000  Uiso   1.00
H1063  H     0.76164   0.17973   0.40783   0.00000  Uiso   1.00
H1064  H     0.80565   0.14421   0.42419   0.00000  Uiso   1.00
H1065  H     0.79648   0.15828   0.36410   0.00000  Uiso   1.00
H1066  H     0.67412   0.42674   0.61379   0.00000  Uiso   1.00
H1067  H     0.69383   0.40513   0.33454   0.00000  Uiso   1.00
H1068  H     0.72049   0.33699   0.62464   0.00000  Uiso   1.00
H1069  H     0.66477   0.34396   0.62769   0.00000  Uiso   1.00
H1070  H     0.56944   0.08474   0.35954   0.00000  Uiso   1.00
H1071  H     0.69058   0.35676   0.57456   0.00000  Uiso   1.00
H1072  H     0.99485   0.04688   0.43753   0.00000  Uiso   1.00
H1073  H     0.58588   0.32696   0.63840   0.00000  Uiso   1.00
H1074  H     0.64283   0.30025   0.35699   0.00000  Uiso   1.00
H1075  H     0.84110   0.26313   0.48624   0.00000  Uiso   1.00
H1076  H     0.50934   0.04848   0.56918   0.00000  Uiso   1.00
H1077  H     0.90115   0.30870   0.36403   0.00000  Uiso   1.00
H1078  H     0.89037   0.25588   0.61276   0.00000  Uiso   1.00
H1079  H     0.66529   0.25726   0.50647   0.00000  Uiso   1.00
H1080  H     0.74490   0.29685   0.43772   0.00000  Uiso   1.00
H1081  H     0.51282   0.08907   0.36567   0.00000  Uiso   1.00
H1082  H     0.83584   0.07695   0.63840   0.00000  Uiso   1.00
H1083  H     0.89272   0.05032   0.35694   0.00000  Uiso   1.00
H1084  H     0.59110   0.01313   0.48623   0.00000  Uiso   1.00
H1085  H     0.75934   0.29849   0.56919   0.00000  Uiso   1.00
H1086  H     0.65115   0.05871   0.36403   0.00000  Uiso   1.00
H1087  H     0.64037   0.00587   0.61276   0.00000  Uiso   1.00
H1088  H     0.91529   0.00727   0.50642   0.00000  Uiso   1.00
H1089  H     0.50712   0.35303   0.57516   0.00000  Uiso   1.00
H1090  H     0.51885   0.36865   0.63453   0.00000  Uiso   1.00
H1091  H     0.98209   0.42876   0.59361   0.00000  Uiso   1.00
H1092  H     0.93953   0.39204   0.57596   0.00000  Uiso   1.00
N1093  N     0.50000   0.25000   0.61736   0.00000  Uiso   1.00
N1094  N     0.50000   0.25000   0.38264   0.00000  Uiso   1.00
N1095  N     0.75000   0.00000   0.61736   0.00000  Uiso   1.00
N1096  N     0.75000   0.00000   0.38264   0.00000  Uiso   1.00
O1097  O     0.54508   0.20491   0.53958   0.00000  Uiso   1.00
O1098  O     0.70491   0.04509   0.46042   0.00000  Uiso   1.00
O1099  O     0.70491   0.04509   0.53958   0.00000  Uiso   1.00
O1100  O     0.79508   0.45491   0.46042   0.00000  Uiso   1.00
O1101  O     0.70491   0.45491   0.46042   0.00000  Uiso   1.00
O1102  O     0.79508   0.04509   0.53958   0.00000  Uiso   1.00
O1103  O     0.79508   0.04509   0.46042   0.00000  Uiso   1.00
O1104  O     0.70491   0.45491   0.53958   0.00000  Uiso   1.00
O1105  O     0.50683   0.17149   0.38130   0.00000  Uiso   1.00
O1106  O     0.97032   0.32214   0.62379   0.00000  Uiso   1.00
O1107  O     0.52682   0.32325   0.37763   0.00000  Uiso   1.00
O1108  O     0.95491   0.29509   0.46042   0.00000  Uiso   1.00
O1109  O     0.99022   0.17157   0.61843   0.00000  Uiso   1.00
O1110  O     0.75684   0.42150   0.38130   0.00000  Uiso   1.00
O1111  O     0.72031   0.07214   0.62379   0.00000  Uiso   1.00
O1112  O     0.77682   0.07325   0.37763   0.00000  Uiso   1.00
O1113  O     0.74022   0.42157   0.61844   0.00000  Uiso   1.00
O1114  O     0.98786   0.12416   0.45451   0.00000  Uiso   1.00
O1115  O     0.96444   0.05376   0.44601   0.00000  Uiso   1.00
O1116  O     0.58723   0.40086   0.60852   0.00000  Uiso   1.00
O1117  O     0.59098   0.32586   0.60385   0.00000  Uiso   1.00
O1118  O     0.61227   0.27018   0.42454   0.00000  Uiso   1.00
O1119  O     0.95491   0.29509   0.53958   0.00000  Uiso   1.00
O1120  O     0.64422   0.32328   0.38278   0.00000  Uiso   1.00
O1121  O     0.81715   0.21068   0.54191   0.00000  Uiso   1.00
O1122  O     0.86137   0.23694   0.48753   0.00000  Uiso   1.00
O1123  O     0.51311   0.12423   0.54486   0.00000  Uiso   1.00
O1124  O     0.53976   0.05653   0.56227   0.00000  Uiso   1.00
O1125  O     0.90146   0.38618   0.38419   0.00000  Uiso   1.00
O1126  O     0.89818   0.31234   0.39874   0.00000  Uiso   1.00
O1127  O     0.87028   0.33253   0.61613   0.00000  Uiso   1.00
O1128  O     0.88815   0.26828   0.58020   0.00000  Uiso   1.00
O1129  O     0.67884   0.20475   0.44536   0.00000  Uiso   1.00
O1130  O     0.54508   0.20491   0.46042   0.00000  Uiso   1.00
O1131  O     0.64417   0.23196   0.50775   0.00000  Uiso   1.00
O1132  O     0.73785   0.37416   0.45447   0.00000  Uiso   1.00
O1133  O     0.71449   0.30373   0.44620   0.00000  Uiso   1.00
O1134  O     0.83723   0.15086   0.60852   0.00000  Uiso   1.00
O1135  O     0.84097   0.07586   0.60385   0.00000  Uiso   1.00
O1136  O     0.86228   0.02019   0.42453   0.00000  Uiso   1.00
O1137  O     0.89410   0.07335   0.38273   0.00000  Uiso   1.00
O1138  O     0.56715   0.46068   0.54190   0.00000  Uiso   1.00
O1139  O     0.61137   0.48694   0.48752   0.00000  Uiso   1.00
O1140  O     0.76311   0.37423   0.54485   0.00000  Uiso   1.00
O1141  O     0.95491   0.20491   0.46042   0.00000  Uiso   1.00
O1142  O     0.78976   0.30653   0.56228   0.00000  Uiso   1.00
O1143  O     0.65146   0.13619   0.38420   0.00000  Uiso   1.00
O1144  O     0.64818   0.06235   0.39874   0.00000  Uiso   1.00
O1145  O     0.62028   0.08252   0.61613   0.00000  Uiso   1.00
O1146  O     0.63815   0.01827   0.58019   0.00000  Uiso   1.00
O1147  O     0.92883   0.45475   0.44532   0.00000  Uiso   1.00
O1148  O     0.89418   0.48197   0.50772   0.00000  Uiso   1.00
O1149  O     0.54508   0.29509   0.53958   0.00000  Uiso   1.00
O1150  O     0.54508   0.29509   0.46042   0.00000  Uiso   1.00
O1151  O     0.95491   0.20491   0.53958   0.00000  Uiso   1.00
O1152  O     0.79508   0.45491   0.53958   0.00000  Uiso   1.00
C1153  C     0.05871   0.68985   0.50043   0.00000  Uiso   1.00
C1154  C     0.49646   0.78920   0.64215   0.00000  Uiso   1.00
C1155  C     0.00235   0.78926   0.35840   0.00000  Uiso   1.00
C1156  C     0.49800   0.71108   0.64177   0.00000  Uiso   1.00
C1157  C     0.25180   0.96115   0.35793   0.00000  Uiso   1.00
C1158  C     0.24645   0.53920   0.64215   0.00000  Uiso   1.00
C1159  C     0.25234   0.53927   0.35840   0.00000  Uiso   1.00
C1160  C     0.24800   0.96108   0.64177   0.00000  Uiso   1.00
C1161  C     0.41535   0.61436   0.47222   0.00000  Uiso   1.00
C1162  C     0.09957   0.87329   0.53353   0.00000  Uiso   1.00
C1163  C     0.12987   0.83601   0.46653   0.00000  Uiso   1.00
C1164  C     0.43868   0.80725   0.49973   0.00000  Uiso   1.00
C1165  C     0.37161   0.66120   0.52079   0.00000  Uiso   1.00
C1166  C     0.08595   0.61577   0.52962   0.00000  Uiso   1.00
C1167  C     0.39713   0.86849   0.46319   0.00000  Uiso   1.00
C1168  C     0.37176   0.83800   0.53533   0.00000  Uiso   1.00
C1169  C     0.12626   0.65776   0.47427   0.00000  Uiso   1.00
C1170  C     0.16536   0.86435   0.47224   0.00000  Uiso   1.00
C1171  C     0.34958   0.62329   0.53354   0.00000  Uiso   1.00
C1172  C     0.37985   0.58602   0.46651   0.00000  Uiso   1.00
C1173  C     0.12160   0.91120   0.52078   0.00000  Uiso   1.00
C1174  C     0.33595   0.86578   0.52962   0.00000  Uiso   1.00
C1175  C     0.44153   0.68973   0.49932   0.00000  Uiso   1.00
C1176  C     0.14713   0.61849   0.46319   0.00000  Uiso   1.00
C1177  C     0.12175   0.58800   0.53533   0.00000  Uiso   1.00
C1178  C     0.37626   0.90776   0.47426   0.00000  Uiso   1.00
C1179  C     0.09791   0.83791   0.50100   0.00000  Uiso   1.00
C1180  C     0.40942   0.65477   0.49707   0.00000  Uiso   1.00
C1181  C     0.40168   0.83703   0.49903   0.00000  Uiso   1.00
C1182  C     0.09041   0.65420   0.50183   0.00000  Uiso   1.00
C1183  C     0.34791   0.58792   0.50100   0.00000  Uiso   1.00
C1184  C     0.15942   0.90477   0.49707   0.00000  Uiso   1.00
C1185  C     0.15168   0.58703   0.49903   0.00000  Uiso   1.00
C1186  C     0.06119   0.80755   0.50039   0.00000  Uiso   1.00
C1187  C     0.34041   0.90421   0.50183   0.00000  Uiso   1.00
C1188  C     0.04686   0.65192   0.37164   0.00000  Uiso   1.00
C1189  C     0.04114   0.60545   0.35126   0.00000  Uiso   1.00
C1190  C     0.49345   0.85939   0.60940   0.00000  Uiso   1.00
C1191  C     0.46365   0.89901   0.60361   0.00000  Uiso   1.00
C1192  C     0.00220   0.85996   0.39151   0.00000  Uiso   1.00
C1193  C     0.03079   0.90052   0.39714   0.00000  Uiso   1.00
C1194  C     0.44930   0.65564   0.62993   0.00000  Uiso   1.00
C1195  C     0.44367   0.60807   0.61283   0.00000  Uiso   1.00
C1196  C     0.29687   0.90192   0.37163   0.00000  Uiso   1.00
C1197  C     0.30871   0.93985   0.50043   0.00000  Uiso   1.00
C1198  C     0.29115   0.85545   0.35127   0.00000  Uiso   1.00
C1199  C     0.24345   0.60939   0.60940   0.00000  Uiso   1.00
C1200  C     0.21364   0.64901   0.60360   0.00000  Uiso   1.00
C1201  C     0.25220   0.60996   0.39151   0.00000  Uiso   1.00
C1202  C     0.28079   0.65052   0.39714   0.00000  Uiso   1.00
C1203  C     0.19930   0.90564   0.62993   0.00000  Uiso   1.00
C1204  C     0.19368   0.85807   0.61284   0.00000  Uiso   1.00
C1205  C     0.45790   0.59876   0.45628   0.00000  Uiso   1.00
C1206  C     0.09072   0.86801   0.58367   0.00000  Uiso   1.00
C1207  C     0.12747   0.80740   0.42397   0.00000  Uiso   1.00
C1208  C     0.18868   0.55725   0.49973   0.00000  Uiso   1.00
C1209  C     0.34884   0.70451   0.51891   0.00000  Uiso   1.00
C1210  C     0.04425   0.60031   0.54700   0.00000  Uiso   1.00
C1211  C     0.40037   0.85675   0.41322   0.00000  Uiso   1.00
C1212  C     0.37700   0.81319   0.57962   0.00000  Uiso   1.00
C1213  C     0.15080   0.69965   0.47354   0.00000  Uiso   1.00
C1214  C     0.20791   0.84875   0.45634   0.00000  Uiso   1.00
C1215  C     0.34071   0.61800   0.58367   0.00000  Uiso   1.00
C1216  C     0.37743   0.55743   0.42394   0.00000  Uiso   1.00
C1217  C     0.09884   0.95451   0.51890   0.00000  Uiso   1.00
C1218  C     0.29425   0.85031   0.54700   0.00000  Uiso   1.00
C1219  C     0.19153   0.93973   0.49932   0.00000  Uiso   1.00
C1220  C     0.15037   0.60676   0.41322   0.00000  Uiso   1.00
C1221  C     0.12700   0.56318   0.57962   0.00000  Uiso   1.00
C1222  C     0.40080   0.94965   0.47351   0.00000  Uiso   1.00
C1223  C     0.31119   0.55755   0.50039   0.00000  Uiso   1.00
C1224  C     0.00180   0.71115   0.35793   0.00000  Uiso   1.00
Cu1225 Cu    0.00000   0.75000   0.54689   0.00000  Uiso   1.00
Cu1226 Cu    0.00000   0.75000   0.45311   0.00000  Uiso   1.00
Cu1227 Cu    0.25000   0.50000   0.54689   0.00000  Uiso   1.00
Cu1228 Cu    0.25000   0.50000   0.45311   0.00000  Uiso   1.00
H1229  H     0.06454   0.64790   0.40479   0.00000  Uiso   1.00
H1230  H     0.44719   0.90633   0.63641   0.00000  Uiso   1.00
H1231  H     0.48870   0.85404   0.42577   0.00000  Uiso   1.00
H1232  H     0.47630   0.86778   0.36650   0.00000  Uiso   1.00
H1233  H     0.01164   0.92972   0.40784   0.00000  Uiso   1.00
H1234  H     0.05566   0.89421   0.42419   0.00000  Uiso   1.00
H1235  H     0.04648   0.90828   0.36410   0.00000  Uiso   1.00
H1236  H     0.42412   0.67674   0.61379   0.00000  Uiso   1.00
H1237  H     0.44383   0.65513   0.33453   0.00000  Uiso   1.00
H1238  H     0.47049   0.58700   0.62463   0.00000  Uiso   1.00
H1239  H     0.41476   0.59397   0.62767   0.00000  Uiso   1.00
H1240  H     0.06770   0.67185   0.34880   0.00000  Uiso   1.00
H1241  H     0.44058   0.60677   0.57455   0.00000  Uiso   1.00
H1242  H     0.31456   0.89791   0.40478   0.00000  Uiso   1.00
H1243  H     0.31770   0.92185   0.34878   0.00000  Uiso   1.00
H1244  H     0.28790   0.85732   0.64642   0.00000  Uiso   1.00
H1245  H     0.31946   0.83475   0.35954   0.00000  Uiso   1.00
H1246  H     0.26284   0.83907   0.36570   0.00000  Uiso   1.00
H1247  H     0.25711   0.60303   0.57516   0.00000  Uiso   1.00
H1248  H     0.26884   0.61866   0.63453   0.00000  Uiso   1.00
H1249  H     0.23208   0.67875   0.59361   0.00000  Uiso   1.00
H1250  H     0.18952   0.64203   0.57595   0.00000  Uiso   1.00
H1251  H     0.03791   0.60733   0.64641   0.00000  Uiso   1.00
H1252  H     0.19718   0.65633   0.63641   0.00000  Uiso   1.00
H1253  H     0.23870   0.60404   0.42577   0.00000  Uiso   1.00
H1254  H     0.22630   0.61778   0.36650   0.00000  Uiso   1.00
H1255  H     0.26164   0.67973   0.40783   0.00000  Uiso   1.00
H1256  H     0.30565   0.64421   0.42419   0.00000  Uiso   1.00
H1257  H     0.29648   0.65828   0.36410   0.00000  Uiso   1.00
H1258  H     0.17412   0.92674   0.61379   0.00000  Uiso   1.00
H1259  H     0.19383   0.90513   0.33454   0.00000  Uiso   1.00
H1260  H     0.22049   0.83699   0.62464   0.00000  Uiso   1.00
H1261  H     0.16477   0.84396   0.62769   0.00000  Uiso   1.00
H1262  H     0.06944   0.58474   0.35954   0.00000  Uiso   1.00
H1263  H     0.19058   0.85676   0.57456   0.00000  Uiso   1.00
H1264  H     0.49485   0.54688   0.43753   0.00000  Uiso   1.00
H1265  H     0.08588   0.82696   0.63840   0.00000  Uiso   1.00
H1266  H     0.14283   0.80025   0.35699   0.00000  Uiso   1.00
H1267  H     0.34110   0.76313   0.48624   0.00000  Uiso   1.00
H1268  H     0.00934   0.54848   0.56918   0.00000  Uiso   1.00
H1269  H     0.40115   0.80870   0.36403   0.00000  Uiso   1.00
H1270  H     0.39037   0.75588   0.61276   0.00000  Uiso   1.00
H1271  H     0.16529   0.75726   0.50647   0.00000  Uiso   1.00
H1272  H     0.24490   0.79685   0.43772   0.00000  Uiso   1.00
H1273  H     0.01282   0.58907   0.36567   0.00000  Uiso   1.00
H1274  H     0.33584   0.57695   0.63840   0.00000  Uiso   1.00
H1275  H     0.39272   0.55032   0.35694   0.00000  Uiso   1.00
H1276  H     0.09110   0.51313   0.48623   0.00000  Uiso   1.00
H1277  H     0.25934   0.79849   0.56919   0.00000  Uiso   1.00
H1278  H     0.15115   0.55871   0.36403   0.00000  Uiso   1.00
H1279  H     0.14037   0.50587   0.61276   0.00000  Uiso   1.00
H1280  H     0.41529   0.50727   0.50642   0.00000  Uiso   1.00
H1281  H     0.00712   0.85303   0.57516   0.00000  Uiso   1.00
H1282  H     0.01885   0.86865   0.63453   0.00000  Uiso   1.00
H1283  H     0.48209   0.92876   0.59361   0.00000  Uiso   1.00
H1284  H     0.43953   0.89204   0.57596   0.00000  Uiso   1.00
N1285  N    -0.00000   0.75000   0.61736   0.00000  Uiso   1.00
N1286  N    -0.00000   0.75000   0.38264   0.00000  Uiso   1.00
N1287  N     0.25000   0.50000   0.61736   0.00000  Uiso   1.00
N1288  N     0.25000   0.50000   0.38264   0.00000  Uiso   1.00
O1289  O     0.04508   0.70491   0.53958   0.00000  Uiso   1.00
O1290  O     0.20491   0.54509   0.46042   0.00000  Uiso   1.00
O1291  O     0.20491   0.54509   0.53958   0.00000  Uiso   1.00
O1292  O     0.29508   0.95491   0.46042   0.00000  Uiso   1.00
O1293  O     0.20491   0.95491   0.46042   0.00000  Uiso   1.00
O1294  O     0.29508   0.54509   0.53958   0.00000  Uiso   1.00
O1295  O     0.29508   0.54509   0.46042   0.00000  Uiso   1.00
O1296  O     0.20491   0.95491   0.53958   0.00000  Uiso   1.00
O1297  O     0.00683   0.67149   0.38130   0.00000  Uiso   1.00
O1298  O     0.47032   0.82214   0.62379   0.00000  Uiso   1.00
O1299  O     0.02682   0.82325   0.37763   0.00000  Uiso   1.00
O1300  O     0.45491   0.79509   0.46042   0.00000  Uiso   1.00
O1301  O     0.49022   0.67157   0.61843   0.00000  Uiso   1.00
O1302  O     0.25684   0.92150   0.38130   0.00000  Uiso   1.00
O1303  O     0.22031   0.57214   0.62379   0.00000  Uiso   1.00
O1304  O     0.27682   0.57325   0.37763   0.00000  Uiso   1.00
O1305  O     0.24022   0.92157   0.61844   0.00000  Uiso   1.00
O1306  O     0.48786   0.62416   0.45451   0.00000  Uiso   1.00
O1307  O     0.46444   0.55376   0.44601   0.00000  Uiso   1.00
O1308  O     0.08723   0.90086   0.60852   0.00000  Uiso   1.00
O1309  O     0.09098   0.82586   0.60385   0.00000  Uiso   1.00
O1310  O     0.11227   0.77018   0.42454   0.00000  Uiso   1.00
O1311  O     0.45491   0.79509   0.53958   0.00000  Uiso   1.00
O1312  O     0.14422   0.82328   0.38278   0.00000  Uiso   1.00
O1313  O     0.31715   0.71068   0.54191   0.00000  Uiso   1.00
O1314  O     0.36137   0.73694   0.48753   0.00000  Uiso   1.00
O1315  O     0.01311   0.62423   0.54486   0.00000  Uiso   1.00
O1316  O     0.03976   0.55653   0.56227   0.00000  Uiso   1.00
O1317  O     0.40146   0.88618   0.38419   0.00000  Uiso   1.00
O1318  O     0.39818   0.81234   0.39874   0.00000  Uiso   1.00
O1319  O     0.37028   0.83253   0.61613   0.00000  Uiso   1.00
O1320  O     0.38815   0.76828   0.58020   0.00000  Uiso   1.00
O1321  O     0.17884   0.70475   0.44536   0.00000  Uiso   1.00
O1322  O     0.04508   0.70491   0.46042   0.00000  Uiso   1.00
O1323  O     0.14417   0.73196   0.50775   0.00000  Uiso   1.00
O1324  O     0.23785   0.87416   0.45447   0.00000  Uiso   1.00
O1325  O     0.21449   0.80373   0.44620   0.00000  Uiso   1.00
O1326  O     0.33723   0.65086   0.60852   0.00000  Uiso   1.00
O1327  O     0.34097   0.57586   0.60385   0.00000  Uiso   1.00
O1328  O     0.36228   0.52019   0.42453   0.00000  Uiso   1.00
O1329  O     0.39410   0.57335   0.38273   0.00000  Uiso   1.00
O1330  O     0.06715   0.96068   0.54190   0.00000  Uiso   1.00
O1331  O     0.11137   0.98694   0.48752   0.00000  Uiso   1.00
O1332  O     0.26311   0.87423   0.54485   0.00000  Uiso   1.00
O1333  O     0.45491   0.70491   0.46042   0.00000  Uiso   1.00
O1334  O     0.28976   0.80653   0.56228   0.00000  Uiso   1.00
O1335  O     0.15146   0.63619   0.38420   0.00000  Uiso   1.00
O1336  O     0.14818   0.56235   0.39874   0.00000  Uiso   1.00
O1337  O     0.12028   0.58252   0.61613   0.00000  Uiso   1.00
O1338  O     0.13815   0.51827   0.58019   0.00000  Uiso   1.00
O1339  O     0.42883   0.95475   0.44532   0.00000  Uiso   1.00
O1340  O     0.39418   0.98197   0.50772   0.00000  Uiso   1.00
O1341  O     0.04508   0.79509   0.53958   0.00000  Uiso   1.00
O1342  O     0.04508   0.79509   0.46042   0.00000  Uiso   1.00
O1343  O     0.45491   0.70491   0.53958   0.00000  Uiso   1.00
O1344  O     0.29508   0.95491   0.53958   0.00000  Uiso   1.00
C1345  C     0.55871   0.68985   0.50043   0.00000  Uiso   1.00
C1346  C     0.99646   0.78920   0.64215   0.00000  Uiso   1.00
C1347  C     0.50235   0.78926   0.35840   0.00000  Uiso   1.00
C1348  C     0.99800   0.71108   0.64177   0.00000  Uiso   1.00
C1349  C     0.75180   0.96115   0.35793   0.00000  Uiso   1.00
C1350  C     0.74645   0.53920   0.64215   0.00000  Uiso   1.00
C1351  C     0.75234   0.53927   0.35840   0.00000  Uiso   1.00
C1352  C     0.74800   0.96108   0.64177   0.00000  Uiso   1.00
C1353  C     0.91535   0.61436   0.47222   0.00000  Uiso   1.00
C1354  C     0.59957   0.87329   0.53353   0.00000  Uiso   1.00
C1355  C     0.62987   0.83601   0.46653   0.00000  Uiso   1.00
C1356  C     0.93868   0.80725   0.49973   0.00000  Uiso   1.00
C1357  C     0.87161   0.66120   0.52079   0.00000  Uiso   1.00
C1358  C     0.58595   0.61577   0.52962   0.00000  Uiso   1.00
C1359  C     0.89713   0.86849   0.46319   0.00000  Uiso   1.00
C1360  C     0.87176   0.83800   0.53533   0.00000  Uiso   1.00
C1361  C     0.62626   0.65776   0.47427   0.00000  Uiso   1.00
C1362  C     0.66536   0.86435   0.47224   0.00000  Uiso   1.00
C1363  C     0.84958   0.62329   0.53354   0.00000  Uiso   1.00
C1364  C     0.87985   0.58602   0.46651   0.00000  Uiso   1.00
C1365  C     0.62160   0.91120   0.52078   0.00000  Uiso   1.00
C1366  C     0.83595   0.86578   0.52962   0.00000  Uiso   1.00
C1367  C     0.94153   0.68973   0.49932   0.00000  Uiso   1.00
C1368  C     0.64713   0.61849   0.46319   0.00000  Uiso   1.00
C1369  C     0.62175   0.58800   0.53533   0.00000  Uiso   1.00
C1370  C     0.87626   0.90776   0.47426   0.00000  Uiso   1.00
C1371  C     0.59791   0.83791   0.50100   0.00000  Uiso   1.00
C1372  C     0.90942   0.65477   0.49707   0.00000  Uiso   1.00
C1373  C     0.90168   0.83703   0.49903   0.00000  Uiso   1.00
C1374  C     0.59041   0.65420   0.50183   0.00000  Uiso   1.00
C1375  C     0.84791   0.58792   0.50100   0.00000  Uiso   1.00
C1376  C     0.65942   0.90477   0.49707   0.00000  Uiso   1.00
C1377  C     0.65168   0.58703   0.49903   0.00000  Uiso   1.00
C1378  C     0.56119   0.80755   0.50039   0.00000  Uiso   1.00
C1379  C     0.84041   0.90421   0.50183   0.00000  Uiso   1.00
C1380  C     0.54686   0.65192   0.37164   0.00000  Uiso   1.00
C1381  C     0.54114   0.60545   0.35126   0.00000  Uiso   1.00
C1382  C     0.99345   0.85939   0.60940   0.00000  Uiso   1.00
C1383  C     0.96365   0.89901   0.60361   0.00000  Uiso   1.00
C1384  C     0.50220   0.85996   0.39151   0.00000  Uiso   1.00
C1385  C     0.53079   0.90052   0.39714   0.00000  Uiso   1.00
C1386  C     0.94930   0.65564   0.62993   0.00000  Uiso   1.00
C1387  C     0.94367   0.60807   0.61283   0.00000  Uiso   1.00
C1388  C     0.79687   0.90192   0.37163   0.00000  Uiso   1.00
C1389  C     0.80871   0.93985   0.50043   0.00000  Uiso   1.00
C1390  C     0.79115   0.85545   0.35127   0.00000  Uiso   1.00
C1391  C     0.74345   0.60939   0.60940   0.00000  Uiso   1.00
C1392  C     0.71364   0.64901   0.60360   0.00000  Uiso   1.00
C1393  C     0.75220   0.60996   0.39151   0.00000  Uiso   1.00
C1394  C     0.78079   0.65052   0.39714   0.00000  Uiso   1.00
C1395  C     0.69930   0.90564   0.62993   0.00000  Uiso   1.00
C1396  C     0.69368   0.85807   0.61284   0.00000  Uiso   1.00
C1397  C     0.95790   0.59876   0.45628   0.00000  Uiso   1.00
C1398  C     0.59072   0.86801   0.58367   0.00000  Uiso   1.00
C1399  C     0.62747   0.80740   0.42397   0.00000  Uiso   1.00
C1400  C     0.68868   0.55725   0.49973   0.00000  Uiso   1.00
C1401  C     0.84884   0.70451   0.51891   0.00000  Uiso   1.00
C1402  C     0.54425   0.60031   0.54700   0.00000  Uiso   1.00
C1403  C     0.90037   0.85675   0.41322   0.00000  Uiso   1.00
C1404  C     0.87700   0.81319   0.57962   0.00000  Uiso   1.00
C1405  C     0.65080   0.69965   0.47354   0.00000  Uiso   1.00
C1406  C     0.70791   0.84875   0.45634   0.00000  Uiso   1.00
C1407  C     0.84071   0.61800   0.58367   0.00000  Uiso   1.00
C1408  C     0.87743   0.55743   0.42394   0.00000  Uiso   1.00
C1409  C     0.59884   0.95451   0.51890   0.00000  Uiso   1.00
C1410  C     0.79425   0.85031   0.54700   0.00000  Uiso   1.00
C1411  C     0.69153   0.93973   0.49932   0.00000  Uiso   1.00
C1412  C     0.65037   0.60676   0.41322   0.00000  Uiso   1.00
C1413  C     0.62700   0.56318   0.57962   0.00000  Uiso   1.00
C1414  C     0.90080   0.94965   0.47351   0.00000  Uiso   1.00
C1415  C     0.81119   0.55755   0.50039   0.00000  Uiso   1.00
C1416  C     0.50180   0.71115   0.35793   0.00000  Uiso   1.00
Cu1417 Cu    0.50000   0.75000   0.54689   0.00000  Uiso   1.00
Cu1418 Cu    0.50000   0.75000   0.45311   0.00000  Uiso   1.00
Cu1419 Cu    0.75000   0.50000   0.54689   0.00000  Uiso   1.00
Cu1420 Cu    0.75000   0.50000   0.45311   0.00000  Uiso   1.00
H1421  H     0.56454   0.64790   0.40479   0.00000  Uiso   1.00
H1422  H     0.94719   0.90633   0.63641   0.00000  Uiso   1.00
H1423  H     0.98870   0.85404   0.42577   0.00000  Uiso   1.00
H1424  H     0.97630   0.86778   0.36650   0.00000  Uiso   1.00
H1425  H     0.51164   0.92972   0.40784   0.00000  Uiso   1.00
H1426  H     0.55566   0.89421   0.42419   0.00000  Uiso   1.00
H1427  H     0.54648   0.90828   0.36410   0.00000  Uiso   1.00
H1428  H     0.92412   0.67674   0.61379   0.00000  Uiso   1.00
H1429  H     0.94383   0.65513   0.33453   0.00000  Uiso   1.00
H1430  H     0.97049   0.58700   0.62463   0.00000  Uiso   1.00
H1431  H     0.91476   0.59397   0.62767   0.00000  Uiso   1.00
H1432  H     0.56770   0.67185   0.34880   0.00000  Uiso   1.00
H1433  H     0.94058   0.60677   0.57455   0.00000  Uiso   1.00
H1434  H     0.81456   0.89791   0.40478   0.00000  Uiso   1.00
H1435  H     0.81770   0.92185   0.34878   0.00000  Uiso   1.00
H1436  H     0.78790   0.85732   0.64642   0.00000  Uiso   1.00
H1437  H     0.81946   0.83475   0.35954   0.00000  Uiso   1.00
H1438  H     0.76284   0.83907   0.36570   0.00000  Uiso   1.00
H1439  H     0.75711   0.60303   0.57516   0.00000  Uiso   1.00
H1440  H     0.76884   0.61866   0.63453   0.00000  Uiso   1.00
H1441  H     0.73208   0.67875   0.59361   0.00000  Uiso   1.00
H1442  H     0.68952   0.64203   0.57595   0.00000  Uiso   1.00
H1443  H     0.53791   0.60733   0.64641   0.00000  Uiso   1.00
H1444  H     0.69718   0.65633   0.63641   0.00000  Uiso   1.00
H1445  H     0.73870   0.60404   0.42577   0.00000  Uiso   1.00
H1446  H     0.72630   0.61778   0.36650   0.00000  Uiso   1.00
H1447  H     0.76164   0.67973   0.40783   0.00000  Uiso   1.00
H1448  H     0.80565   0.64421   0.42419   0.00000  Uiso   1.00
H1449  H     0.79648   0.65828   0.36410   0.00000  Uiso   1.00
H1450  H     0.67412   0.92674   0.61379   0.00000  Uiso   1.00
H1451  H     0.69383   0.90513   0.33454   0.00000  Uiso   1.00
H1452  H     0.72049   0.83699   0.62464   0.00000  Uiso   1.00
H1453  H     0.66477   0.84396   0.62769   0.00000  Uiso   1.00
H1454  H     0.56944   0.58474   0.35954   0.00000  Uiso   1.00
H1455  H     0.69058   0.85676   0.57456   0.00000  Uiso   1.00
H1456  H     0.99485   0.54688   0.43753   0.00000  Uiso   1.00
H1457  H     0.58588   0.82696   0.63840   0.00000  Uiso   1.00
H1458  H     0.64283   0.80025   0.35699   0.00000  Uiso   1.00
H1459  H     0.84110   0.76313   0.48624   0.00000  Uiso   1.00
H1460  H     0.50934   0.54848   0.56918   0.00000  Uiso   1.00
H1461  H     0.90115   0.80870   0.36403   0.00000  Uiso   1.00
H1462  H     0.89037   0.75588   0.61276   0.00000  Uiso   1.00
H1463  H     0.66529   0.75726   0.50647   0.00000  Uiso   1.00
H1464  H     0.74490   0.79685   0.43772   0.00000  Uiso   1.00
H1465  H     0.51282   0.58907   0.36567   0.00000  Uiso   1.00
H1466  H     0.83584   0.57695   0.63840   0.00000  Uiso   1.00
H1467  H     0.89272   0.55032   0.35694   0.00000  Uiso   1.00
H1468  H     0.59110   0.51313   0.48623   0.00000  Uiso   1.00
H1469  H     0.75934   0.79849   0.56919   0.00000  Uiso   1.00
H1470  H     0.65115   0.55871   0.36403   0.00000  Uiso   1.00
H1471  H     0.64037   0.50587   0.61276   0.00000  Uiso   1.00
H1472  H     0.91529   0.50727   0.50642   0.00000  Uiso   1.00
H1473  H     0.50712   0.85303   0.57516   0.00000  Uiso   1.00
H1474  H     0.51885   0.86865   0.63453   0.00000  Uiso   1.00
H1475  H     0.98209   0.92876   0.59361   0.00000  Uiso   1.00
H1476  H     0.93953   0.89204   0.57596   0.00000  Uiso   1.00
N1477  N     0.50000   0.75000   0.61736   0.00000  Uiso   1.00
N1478  N     0.50000   0.75000   0.38264   0.00000  Uiso   1.00
N1479  N     0.75000   0.50000   0.61736   0.00000  Uiso   1.00
N1480  N     0.75000   0.50000   0.38264   0.00000  Uiso   1.00
O1481  O     0.54508   0.70491   0.53958   0.00000  Uiso   1.00
O1482  O     0.70491   0.54509   0.46042   0.00000  Uiso   1.00
O1483  O     0.70491   0.54509   0.53958   0.00000  Uiso   1.00
O1484  O     0.79508   0.95491   0.46042   0.00000  Uiso   1.00
O1485  O     0.70491   0.95491   0.46042   0.00000  Uiso   1.00
O1486  O     0.79508   0.54509   0.53958   0.00000  Uiso   1.00
O1487  O     0.79508   0.54509   0.46042   0.00000  Uiso   1.00
O1488  O     0.70491   0.95491   0.53958   0.00000  Uiso   1.00
O1489  O     0.50683   0.67149   0.38130   0.00000  Uiso   1.00
O1490  O     0.97032   0.82214   0.62379   0.00000  Uiso   1.00
O1491  O     0.52682   0.82325   0.37763   0.00000  Uiso   1.00
O1492  O     0.95491   0.79509   0.46042   0.00000  Uiso   1.00
O1493  O     0.99022   0.67157   0.61843   0.00000  Uiso   1.00
O1494  O     0.75684   0.92150   0.38130   0.00000  Uiso   1.00
O1495  O     0.72031   0.57214   0.62379   0.00000  Uiso   1.00
O1496  O     0.77682   0.57325   0.37763   0.00000  Uiso   1.00
O1497  O     0.74022   0.92157   0.61844   0.00000  Uiso   1.00
O1498  O     0.98786   0.62416   0.45451   0.00000  Uiso   1.00
O1499  O     0.96444   0.55376   0.44601   0.00000  Uiso   1.00
O1500  O     0.58723   0.90086   0.60852   0.00000  Uiso   1.00
O1501  O     0.59098   0.82586   0.60385   0.00000  Uiso   1.00
O1502  O     0.61227   0.77018   0.42454   0.00000  Uiso   1.00
O1503  O     0.95491   0.79509   0.53958   0.00000  Uiso   1.00
O1504  O     0.64422   0.82328   0.38278   0.00000  Uiso   1.00
O1505  O     0.81715   0.71068   0.54191   0.00000  Uiso   1.00
O1506  O     0.86137   0.73694   0.48753   0.00000  Uiso   1.00
O1507  O     0.51311   0.62423   0.54486   0.00000  Uiso   1.00
O1508  O     0.53976   0.55653   0.56227   0.00000  Uiso   1.00
O1509  O     0.90146   0.88618   0.38419   0.00000  Uiso   1.00
O1510  O     0.89818   0.81234   0.39874   0.00000  Uiso   1.00
O1511  O     0.87028   0.83253   0.61613   0.00000  Uiso   1.00
O1512  O     0.88815   0.76828   0.58020   0.00000  Uiso   1.00
O1513  O     0.67884   0.70475   0.44536   0.00000  Uiso   1.00
O1514  O     0.54508   0.70491   0.46042   0.00000  Uiso   1.00
O1515  O     0.64417   0.73196   0.50775   0.00000  Uiso   1.00
O1516  O     0.73785   0.87416   0.45447   0.00000  Uiso   1.00
O1517  O     0.71449   0.80373   0.44620   0.00000  Uiso   1.00
O1518  O     0.83723   0.65086   0.60852   0.00000  Uiso   1.00
O1519  O     0.84097   0.57586   0.60385   0.00000  Uiso   1.00
O1520  O     0.86228   0.52019   0.42453   0.00000  Uiso   1.00
O1521  O     0.89410   0.57335   0.38273   0.00000  Uiso   1.00
O1522  O     0.56715   0.96068   0.54190   0.00000  Uiso   1.00
O1523  O     0.61137   0.98694   0.48752   0.00000  Uiso   1.00
O1524  O     0.76311   0.87423   0.54485   0.00000  Uiso   1.00
O1525  O     0.95491   0.70491   0.46042   0.00000  Uiso   1.00
O1526  O     0.78976   0.80653   0.56228   0.00000  Uiso   1.00
O1527  O     0.65146   0.63619   0.38420   0.00000  Uiso   1.00
O1528  O     0.64818   0.56235   0.39874   0.00000  Uiso   1.00
O1529  O     0.62028   0.58252   0.61613   0.00000  Uiso   1.00
O1530  O     0.63815   0.51827   0.58019   0.00000  Uiso   1.00
O1531  O     0.92883   0.95475   0.44532   0.00000  Uiso   1.00
O1532  O     0.89418   0.98197   0.50772   0.00000  Uiso   1.00
O1533  O     0.54508   0.79509   0.53958   0.00000  Uiso   1.00
O1534  O     0.54508   0.79509   0.46042   0.00000  Uiso   1.00
O1535  O     0.95491   0.70491   0.53958   0.00000  Uiso   1.00
O1536  O     0.79508   0.95491   0.53958   0.00000  Uiso   1.00
C1537  C     0.05871   0.18985   0.83376   0.00000  Uiso   1.00
C1538  C     0.49646   0.28920   0.97548   0.00000  Uiso   1.00
C1539  C     0.00235   0.28926   0.69173   0.00000  Uiso   1.00
C1540  C     0.49800   0.21108   0.97510   0.00000  Uiso   1.00
C1541  C     0.25180   0.46115   0.69126   0.00000  Uiso   1.00
C1542  C     0.24645   0.03920   0.97548   0.00000  Uiso   1.00
C1543  C     0.25234   0.03927   0.69173   0.00000  Uiso   1.00
C1544  C     0.24800   0.46108   0.97510   0.00000  Uiso   1.00
C1545  C     0.41535   0.11436   0.80556   0.00000  Uiso   1.00
C1546  C     0.09957   0.37329   0.86687   0.00000  Uiso   1.00
C1547  C     0.12987   0.33601   0.79986   0.00000  Uiso   1.00
C1548  C     0.43868   0.30725   0.83306   0.00000  Uiso   1.00
C1549  C     0.37161   0.16120   0.85412   0.00000  Uiso   1.00
C1550  C     0.08595   0.11577   0.86295   0.00000  Uiso   1.00
C1551  C     0.39713   0.36849   0.79652   0.00000  Uiso   1.00
C1552  C     0.37176   0.33800   0.86867   0.00000  Uiso   1.00
C1553  C     0.12626   0.15776   0.80760   0.00000  Uiso   1.00
C1554  C     0.16536   0.36435   0.80558   0.00000  Uiso   1.00
C1555  C     0.34958   0.12329   0.86687   0.00000  Uiso   1.00
C1556  C     0.37985   0.08602   0.79985   0.00000  Uiso   1.00
C1557  C     0.12160   0.41120   0.85412   0.00000  Uiso   1.00
C1558  C     0.33595   0.36578   0.86296   0.00000  Uiso   1.00
C1559  C     0.44153   0.18973   0.83266   0.00000  Uiso   1.00
C1560  C     0.14713   0.11849   0.79652   0.00000  Uiso   1.00
C1561  C     0.12175   0.08800   0.86867   0.00000  Uiso   1.00
C1562  C     0.37626   0.40776   0.80759   0.00000  Uiso   1.00
C1563  C     0.09791   0.33791   0.83433   0.00000  Uiso   1.00
C1564  C     0.40942   0.15477   0.83040   0.00000  Uiso   1.00
C1565  C     0.40168   0.33703   0.83237   0.00000  Uiso   1.00
C1566  C     0.09041   0.15420   0.83516   0.00000  Uiso   1.00
C1567  C     0.34791   0.08792   0.83433   0.00000  Uiso   1.00
C1568  C     0.15942   0.40477   0.83040   0.00000  Uiso   1.00
C1569  C     0.15168   0.08703   0.83237   0.00000  Uiso   1.00
C1570  C     0.06119   0.30755   0.83372   0.00000  Uiso   1.00
C1571  C     0.34041   0.40421   0.83516   0.00000  Uiso   1.00
C1572  C     0.04686   0.15192   0.70497   0.00000  Uiso   1.00
C1573  C     0.04114   0.10545   0.68459   0.00000  Uiso   1.00
C1574  C     0.49345   0.35939   0.94274   0.00000  Uiso   1.00
C1575  C     0.46365   0.39901   0.93694   0.00000  Uiso   1.00
C1576  C     0.00220   0.35996   0.72484   0.00000  Uiso   1.00
C1577  C     0.03079   0.40052   0.73047   0.00000  Uiso   1.00
C1578  C     0.44930   0.15564   0.96326   0.00000  Uiso   1.00
C1579  C     0.44367   0.10807   0.94617   0.00000  Uiso   1.00
C1580  C     0.29687   0.40192   0.70496   0.00000  Uiso   1.00
C1581  C     0.30871   0.43985   0.83376   0.00000  Uiso   1.00
C1582  C     0.29115   0.35545   0.68460   0.00000  Uiso   1.00
C1583  C     0.24345   0.10939   0.94274   0.00000  Uiso   1.00
C1584  C     0.21364   0.14901   0.93694   0.00000  Uiso   1.00
C1585  C     0.25220   0.10996   0.72484   0.00000  Uiso   1.00
C1586  C     0.28079   0.15052   0.73047   0.00000  Uiso   1.00
C1587  C     0.19930   0.40564   0.96327   0.00000  Uiso   1.00
C1588  C     0.19368   0.35807   0.94618   0.00000  Uiso   1.00
C1589  C     0.45790   0.09876   0.78961   0.00000  Uiso   1.00
C1590  C     0.09072   0.36801   0.91700   0.00000  Uiso   1.00
C1591  C     0.12747   0.30740   0.75730   0.00000  Uiso   1.00
C1592  C     0.18868   0.05725   0.83306   0.00000  Uiso   1.00
C1593  C     0.34884   0.20451   0.85224   0.00000  Uiso   1.00
C1594  C     0.04425   0.10031   0.88034   0.00000  Uiso   1.00
C1595  C     0.40037   0.35675   0.74655   0.00000  Uiso   1.00
C1596  C     0.37700   0.31319   0.91295   0.00000  Uiso   1.00
C1597  C     0.15080   0.19965   0.80687   0.00000  Uiso   1.00
C1598  C     0.20791   0.34875   0.78967   0.00000  Uiso   1.00
C1599  C     0.34071   0.11800   0.91700   0.00000  Uiso   1.00
C1600  C     0.37743   0.05743   0.75728   0.00000  Uiso   1.00
C1601  C     0.09884   0.45451   0.85223   0.00000  Uiso   1.00
C1602  C     0.29425   0.35031   0.88034   0.00000  Uiso   1.00
C1603  C     0.19153   0.43973   0.83266   0.00000  Uiso   1.00
C1604  C     0.15037   0.10676   0.74656   0.00000  Uiso   1.00
C1605  C     0.12700   0.06318   0.91295   0.00000  Uiso   1.00
C1606  C     0.40080   0.44965   0.80685   0.00000  Uiso   1.00
C1607  C     0.31119   0.05755   0.83372   0.00000  Uiso   1.00
C1608  C     0.00180   0.21115   0.69126   0.00000  Uiso   1.00
Cu1609 Cu    0.00000   0.25000   0.88022   0.00000  Uiso   1.00
Cu1610 Cu    0.00000   0.25000   0.78645   0.00000  Uiso   1.00
Cu1611 Cu    0.25000   0.00000   0.88022   0.00000  Uiso   1.00
Cu1612 Cu    0.25000   0.00000   0.78645   0.00000  Uiso   1.00
H1613  H     0.06454   0.14790   0.73813   0.00000  Uiso   1.00
H1614  H     0.44719   0.40633   0.96974   0.00000  Uiso   1.00
H1615  H     0.48870   0.35404   0.75911   0.00000  Uiso   1.00
H1616  H     0.47630   0.36778   0.69983   0.00000  Uiso   1.00
H1617  H     0.01164   0.42972   0.74117   0.00000  Uiso   1.00
H1618  H     0.05566   0.39421   0.75753   0.00000  Uiso   1.00
H1619  H     0.04648   0.40828   0.69743   0.00000  Uiso   1.00
H1620  H     0.42412   0.17674   0.94713   0.00000  Uiso   1.00
H1621  H     0.44383   0.15513   0.66787   0.00000  Uiso   1.00
H1622  H     0.47049   0.08700   0.95796   0.00000  Uiso   1.00
H1623  H     0.41476   0.09397   0.96100   0.00000  Uiso   1.00
H1624  H     0.06770   0.17185   0.68213   0.00000  Uiso   1.00
H1625  H     0.44058   0.10677   0.90788   0.00000  Uiso   1.00
H1626  H     0.31456   0.39791   0.73812   0.00000  Uiso   1.00
H1627  H     0.31770   0.42185   0.68211   0.00000  Uiso   1.00
H1628  H     0.28790   0.35732   0.97975   0.00000  Uiso   1.00
H1629  H     0.31946   0.33475   0.69287   0.00000  Uiso   1.00
H1630  H     0.26284   0.33907   0.69904   0.00000  Uiso   1.00
H1631  H     0.25711   0.10303   0.90849   0.00000  Uiso   1.00
H1632  H     0.26884   0.11866   0.96786   0.00000  Uiso   1.00
H1633  H     0.23208   0.17875   0.92694   0.00000  Uiso   1.00
H1634  H     0.18952   0.14203   0.90929   0.00000  Uiso   1.00
H1635  H     0.03791   0.10733   0.97974   0.00000  Uiso   1.00
H1636  H     0.19718   0.15633   0.96974   0.00000  Uiso   1.00
H1637  H     0.23870   0.10404   0.75911   0.00000  Uiso   1.00
H1638  H     0.22630   0.11778   0.69983   0.00000  Uiso   1.00
H1639  H     0.26164   0.17973   0.74117   0.00000  Uiso   1.00
H1640  H     0.30565   0.14421   0.75752   0.00000  Uiso   1.00
H1641  H     0.29648   0.15828   0.69743   0.00000  Uiso   1.00
H1642  H     0.17412   0.42674   0.94712   0.00000  Uiso   1.00
H1643  H     0.19383   0.40513   0.66787   0.00000  Uiso   1.00
H1644  H     0.22049   0.33699   0.95797   0.00000  Uiso   1.00
H1645  H     0.16477   0.34396   0.96102   0.00000  Uiso   1.00
H1646  H     0.06944   0.08474   0.69287   0.00000  Uiso   1.00
H1647  H     0.19058   0.35676   0.90789   0.00000  Uiso   1.00
H1648  H     0.49485   0.04688   0.77086   0.00000  Uiso   1.00
H1649  H     0.08588   0.32696   0.97174   0.00000  Uiso   1.00
H1650  H     0.14283   0.30025   0.69032   0.00000  Uiso   1.00
H1651  H     0.34110   0.26313   0.81957   0.00000  Uiso   1.00
H1652  H     0.00934   0.04848   0.90252   0.00000  Uiso   1.00
H1653  H     0.40115   0.30870   0.69736   0.00000  Uiso   1.00
H1654  H     0.39037   0.25588   0.94610   0.00000  Uiso   1.00
H1655  H     0.16529   0.25726   0.83980   0.00000  Uiso   1.00
H1656  H     0.24490   0.29685   0.77105   0.00000  Uiso   1.00
H1657  H     0.01282   0.08907   0.69901   0.00000  Uiso   1.00
H1658  H     0.33584   0.07695   0.97174   0.00000  Uiso   1.00
H1659  H     0.39272   0.05032   0.69028   0.00000  Uiso   1.00
H1660  H     0.09110   0.01313   0.81957   0.00000  Uiso   1.00
H1661  H     0.25934   0.29849   0.90252   0.00000  Uiso   1.00
H1662  H     0.15115   0.05871   0.69736   0.00000  Uiso   1.00
H1663  H     0.14037   0.00587   0.94609   0.00000  Uiso   1.00
H1664  H     0.41529   0.00727   0.83976   0.00000  Uiso   1.00
H1665  H     0.00712   0.35303   0.90849   0.00000  Uiso   1.00
H1666  H     0.01885   0.36865   0.96786   0.00000  Uiso   1.00
H1667  H     0.48209   0.42876   0.92695   0.00000  Uiso   1.00
H1668  H     0.43953   0.39204   0.90929   0.00000  Uiso   1.00
N1669  N    -0.00000   0.25000   0.95069   0.00000  Uiso   1.00
N1670  N    -0.00000   0.25000   0.71598   0.00000  Uiso   1.00
N1671  N     0.25000   0.00000   0.95069   0.00000  Uiso   1.00
N1672  N     0.25000   0.00000   0.71598   0.00000  Uiso   1.00
O1673  O     0.04508   0.20491   0.87291   0.00000  Uiso   1.00
O1674  O     0.20491   0.04509   0.79375   0.00000  Uiso   1.00
O1675  O     0.20491   0.04509   0.87291   0.00000  Uiso   1.00
O1676  O     0.29508   0.45491   0.79375   0.00000  Uiso   1.00
O1677  O     0.20491   0.45491   0.79375   0.00000  Uiso   1.00
O1678  O     0.29508   0.04509   0.87291   0.00000  Uiso   1.00
O1679  O     0.29508   0.04509   0.79375   0.00000  Uiso   1.00
O1680  O     0.20491   0.45491   0.87291   0.00000  Uiso   1.00
O1681  O     0.00683   0.17149   0.71463   0.00000  Uiso   1.00
O1682  O     0.47032   0.32214   0.95712   0.00000  Uiso   1.00
O1683  O     0.02682   0.32325   0.71097   0.00000  Uiso   1.00
O1684  O     0.45491   0.29509   0.79375   0.00000  Uiso   1.00
O1685  O     0.49022   0.17157   0.95177   0.00000  Uiso   1.00
O1686  O     0.25684   0.42150   0.71463   0.00000  Uiso   1.00
O1687  O     0.22031   0.07214   0.95713   0.00000  Uiso   1.00
O1688  O     0.27682   0.07325   0.71097   0.00000  Uiso   1.00
O1689  O     0.24022   0.42157   0.95177   0.00000  Uiso   1.00
O1690  O     0.48786   0.12416   0.78784   0.00000  Uiso   1.00
O1691  O     0.46444   0.05376   0.77934   0.00000  Uiso   1.00
O1692  O     0.08723   0.40086   0.94186   0.00000  Uiso   1.00
O1693  O     0.09098   0.32586   0.93719   0.00000  Uiso   1.00
O1694  O     0.11227   0.27018   0.75788   0.00000  Uiso   1.00
O1695  O     0.45491   0.29509   0.87291   0.00000  Uiso   1.00
O1696  O     0.14422   0.32328   0.71611   0.00000  Uiso   1.00
O1697  O     0.31715   0.21068   0.87524   0.00000  Uiso   1.00
O1698  O     0.36137   0.23694   0.82086   0.00000  Uiso   1.00
O1699  O     0.01311   0.12423   0.87820   0.00000  Uiso   1.00
O1700  O     0.03976   0.05653   0.89560   0.00000  Uiso   1.00
O1701  O     0.40146   0.38618   0.71753   0.00000  Uiso   1.00
O1702  O     0.39818   0.31234   0.73208   0.00000  Uiso   1.00
O1703  O     0.37028   0.33253   0.94947   0.00000  Uiso   1.00
O1704  O     0.38815   0.26828   0.91353   0.00000  Uiso   1.00
O1705  O     0.17884   0.20475   0.77869   0.00000  Uiso   1.00
O1706  O     0.04508   0.20491   0.79375   0.00000  Uiso   1.00
O1707  O     0.14417   0.23196   0.84109   0.00000  Uiso   1.00
O1708  O     0.23785   0.37416   0.78780   0.00000  Uiso   1.00
O1709  O     0.21449   0.30373   0.77953   0.00000  Uiso   1.00
O1710  O     0.33723   0.15086   0.94186   0.00000  Uiso   1.00
O1711  O     0.34097   0.07586   0.93719   0.00000  Uiso   1.00
O1712  O     0.36228   0.02019   0.75786   0.00000  Uiso   1.00
O1713  O     0.39410   0.07335   0.71606   0.00000  Uiso   1.00
O1714  O     0.06715   0.46068   0.87523   0.00000  Uiso   1.00
O1715  O     0.11137   0.48694   0.82085   0.00000  Uiso   1.00
O1716  O     0.26311   0.37423   0.87818   0.00000  Uiso   1.00
O1717  O     0.45491   0.20491   0.79375   0.00000  Uiso   1.00
O1718  O     0.28976   0.30653   0.89561   0.00000  Uiso   1.00
O1719  O     0.15146   0.13619   0.71753   0.00000  Uiso   1.00
O1720  O     0.14818   0.06235   0.73208   0.00000  Uiso   1.00
O1721  O     0.12028   0.08252   0.94947   0.00000  Uiso   1.00
O1722  O     0.13815   0.01827   0.91352   0.00000  Uiso   1.00
O1723  O     0.42883   0.45475   0.77866   0.00000  Uiso   1.00
O1724  O     0.39418   0.48197   0.84106   0.00000  Uiso   1.00
O1725  O     0.04508   0.29509   0.87291   0.00000  Uiso   1.00
O1726  O     0.04508   0.29509   0.79375   0.00000  Uiso   1.00
O1727  O     0.45491   0.20491   0.87291   0.00000  Uiso   1.00
O1728  O     0.29508   0.45491   0.87291   0.00000  Uiso   1.00
C1729  C     0.55871   0.18985   0.83376   0.00000  Uiso   1.00
C1730  C     0.99646   0.28920   0.97548   0.00000  Uiso   1.00
C1731  C     0.50235   0.28926   0.69173   0.00000  Uiso   1.00
C1732  C     0.99800   0.21108   0.97510   0.00000  Uiso   1.00
C1733  C     0.75180   0.46115   0.69126   0.00000  Uiso   1.00
C1734  C     0.74645   0.03920   0.97548   0.00000  Uiso   1.00
C1735  C     0.75234   0.03927   0.69173   0.00000  Uiso   1.00
C1736  C     0.74800   0.46108   0.97510   0.00000  Uiso   1.00
C1737  C     0.91535   0.11436   0.80556   0.00000  Uiso   1.00
C1738  C     0.59957   0.37329   0.86687   0.00000  Uiso   1.00
C1739  C     0.62987   0.33601   0.79986   0.00000  Uiso   1.00
C1740  C     0.93868   0.30725   0.83306   0.00000  Uiso   1.00
C1741  C     0.87161   0.16120   0.85412   0.00000  Uiso   1.00
C1742  C     0.58595   0.11577   0.86295   0.00000  Uiso   1.00
C1743  C     0.89713   0.36849   0.79652   0.00000  Uiso   1.00
C1744  C     0.87176   0.33800   0.86867   0.00000  Uiso   1.00
C1745  C     0.62626   0.15776   0.80760   0.00000  Uiso   1.00
C1746  C     0.66536   0.36435   0.80558   0.00000  Uiso   1.00
C1747  C     0.84958   0.12329   0.86687   0.00000  Uiso   1.00
C1748  C     0.87985   0.08602   0.79985   0.00000  Uiso   1.00
C1749  C     0.62160   0.41120   0.85412   0.00000  Uiso   1.00
C1750  C     0.83595   0.36578   0.86296   0.00000  Uiso   1.00
C1751  C     0.94153   0.18973   0.83266   0.00000  Uiso   1.00
C1752  C     0.64713   0.11849   0.79652   0.00000  Uiso   1.00
C1753  C     0.62175   0.08800   0.86867   0.00000  Uiso   1.00
C1754  C     0.87626   0.40776   0.80759   0.00000  Uiso   1.00
C1755  C     0.59791   0.33791   0.83433   0.00000  Uiso   1.00
C1756  C     0.90942   0.15477   0.83040   0.00000  Uiso   1.00
C1757  C     0.90168   0.33703   0.83237   0.00000  Uiso   1.00
C1758  C     0.59041   0.15420   0.83516   0.00000  Uiso   1.00
C1759  C     0.84791   0.08792   0.83433   0.00000  Uiso   1.00
C1760  C     0.65942   0.40477   0.83040   0.00000  Uiso   1.00
C1761  C     0.65168   0.08703   0.83237   0.00000  Uiso   1.00
C1762  C     0.56119   0.30755   0.83372   0.00000  Uiso   1.00
C1763  C     0.84041   0.40421   0.83516   0.00000  Uiso   1.00
C1764  C     0.54686   0.15192   0.70497   0.00000  Uiso   1.00
C1765  C     0.54114   0.10545   0.68459   0.00000  Uiso   1.00
C1766  C     0.99345   0.35939   0.94274   0.00000  Uiso   1.00
C1767  C     0.96365   0.39901   0.93694   0.00000  Uiso   1.00
C1768  C     0.50220   0.35996   0.72484   0.00000  Uiso   1.00
C1769  C     0.53079   0.40052   0.73047   0.00000  Uiso   1.00
C1770  C     0.94930   0.15564   0.96326   0.00000  Uiso   1.00
C1771  C     0.94367   0.10807   0.94617   0.00000  Uiso   1.00
C1772  C     0.79687   0.40192   0.70496   0.00000  Uiso   1.00
C1773  C     0.80871   0.43985   0.83376   0.00000  Uiso   1.00
C1774  C     0.79115   0.35545   0.68460   0.00000  Uiso   1.00
C1775  C     0.74345   0.10939   0.94274   0.00000  Uiso   1.00
C1776  C     0.71364   0.14901   0.93694   0.00000  Uiso   1.00
C1777  C     0.75220   0.10996   0.72484   0.00000  Uiso   1.00
C1778  C     0.78079   0.15052   0.73047   0.00000  Uiso   1.00
C1779  C     0.69930   0.40564   0.96327   0.00000  Uiso   1.00
C1780  C     0.69368   0.35807   0.94618   0.00000  Uiso   1.00
C1781  C     0.95790   0.09876   0.78961   0.00000  Uiso   1.00
C1782  C     0.59072   0.36801   0.91700   0.00000  Uiso   1.00
C1783  C     0.62747   0.30740   0.75730   0.00000  Uiso   1.00
C1784  C     0.68868   0.05725   0.83306   0.00000  Uiso   1.00
C1785  C     0.84884   0.20451   0.85224   0.00000  Uiso   1.00
C1786  C     0.54425   0.10031   0.88034   0.00000  Uiso   1.00
C1787  C     0.90037   0.35675   0.74655   0.00000  Uiso   1.00
C1788  C     0.87700   0.31319   0.91295   0.00000  Uiso   1.00
C1789  C     0.65080   0.19965   0.80687   0.00000  Uiso   1.00
C1790  C     0.70791   0.34875   0.78967   0.00000  Uiso   1.00
C1791  C     0.84071   0.11800   0.91700   0.00000  Uiso   1.00
C1792  C     0.87743   0.05743   0.75728   0.00000  Uiso   1.00
C1793  C     0.59884   0.45451   0.85223   0.00000  Uiso   1.00
C1794  C     0.79425   0.35031   0.88034   0.00000  Uiso   1.00
C1795  C     0.69153   0.43973   0.83266   0.00000  Uiso   1.00
C1796  C     0.65037   0.10676   0.74656   0.00000  Uiso   1.00
C1797  C     0.62700   0.06318   0.91295   0.00000  Uiso   1.00
C1798  C     0.90080   0.44965   0.80685   0.00000  Uiso   1.00
C1799  C     0.81119   0.05755   0.83372   0.00000  Uiso   1.00
C1800  C     0.50180   0.21115   0.69126   0.00000  Uiso   1.00
Cu1801 Cu    0.50000   0.25000   0.88022   0.00000  Uiso   1.00
Cu1802 Cu    0.50000   0.25000   0.78645   0.00000  Uiso   1.00
Cu1803 Cu    0.75000   0.00000   0.88022   0.00000  Uiso   1.00
Cu1804 Cu    0.75000   0.00000   0.78645   0.00000  Uiso   1.00
H1805  H     0.56454   0.14790   0.73813   0.00000  Uiso   1.00
H1806  H     0.94719   0.40633   0.96974   0.00000  Uiso   1.00
H1807  H     0.98870   0.35404   0.75911   0.00000  Uiso   1.00
H1808  H     0.97630   0.36778   0.69983   0.00000  Uiso   1.00
H1809  H     0.51164   0.42972   0.74117   0.00000  Uiso   1.00
H1810  H     0.55566   0.39421   0.75753   0.00000  Uiso   1.00
H1811  H     0.54648   0.40828   0.69743   0.00000  Uiso   1.00
H1812  H     0.92412   0.17674   0.94713   0.00000  Uiso   1.00
H1813  H     0.94383   0.15513   0.66787   0.00000  Uiso   1.00
H1814  H     0.97049   0.08700   0.95796   0.00000  Uiso   1.00
H1815  H     0.91476   0.09397   0.96100   0.00000  Uiso   1.00
H1816  H     0.56770   0.17185   0.68213   0.00000  Uiso   1.00
H1817  H     0.94058   0.10677   0.90788   0.00000  Uiso   1.00
H1818  H     0.81456   0.39791   0.73812   0.00000  Uiso   1.00
H1819  H     0.81770   0.42185   0.68211   0.00000  Uiso   1.00
H1820  H     0.78790   0.35732   0.97975   0.00000  Uiso   1.00
H1821  H     0.81946   0.33475   0.69287   0.00000  Uiso   1.00
H1822  H     0.76284   0.33907   0.69904   0.00000  Uiso   1.00
H1823  H     0.75711   0.10303   0.90849   0.00000  Uiso   1.00
H1824  H     0.76884   0.11866   0.96786   0.00000  Uiso   1.00
H1825  H     0.73208   0.17875   0.92694   0.00000  Uiso   1.00
H1826  H     0.68952   0.14203   0.90929   0.00000  Uiso   1.00
H1827  H     0.53791   0.10733   0.97974   0.00000  Uiso   1.00
H1828  H     0.69718   0.15633   0.96974   0.00000  Uiso   1.00
H1829  H     0.73870   0.10404   0.75911   0.00000  Uiso   1.00
H1830  H     0.72630   0.11778   0.69983   0.00000  Uiso   1.00
H1831  H     0.76164   0.17973   0.74117   0.00000  Uiso   1.00
H1832  H     0.80565   0.14421   0.75752   0.00000  Uiso   1.00
H1833  H     0.79648   0.15828   0.69743   0.00000  Uiso   1.00
H1834  H     0.67412   0.42674   0.94712   0.00000  Uiso   1.00
H1835  H     0.69383   0.40513   0.66787   0.00000  Uiso   1.00
H1836  H     0.72049   0.33699   0.95797   0.00000  Uiso   1.00
H1837  H     0.66477   0.34396   0.96102   0.00000  Uiso   1.00
H1838  H     0.56944   0.08474   0.69287   0.00000  Uiso   1.00
H1839  H     0.69058   0.35676   0.90789   0.00000  Uiso   1.00
H1840  H     0.99485   0.04688   0.77086   0.00000  Uiso   1.00
H1841  H     0.58588   0.32696   0.97174   0.00000  Uiso   1.00
H1842  H     0.64283   0.30025   0.69032   0.00000  Uiso   1.00
H1843  H     0.84110   0.26313   0.81957   0.00000  Uiso   1.00
H1844  H     0.50934   0.04848   0.90252   0.00000  Uiso   1.00
H1845  H     0.90115   0.30870   0.69736   0.00000  Uiso   1.00
H1846  H     0.89037   0.25588   0.94610   0.00000  Uiso   1.00
H1847  H     0.66529   0.25726   0.83980   0.00000  Uiso   1.00
H1848  H     0.74490   0.29685   0.77105   0.00000  Uiso   1.00
H1849  H     0.51282   0.08907   0.69901   0.00000  Uiso   1.00
H1850  H     0.83584   0.07695   0.97174   0.00000  Uiso   1.00
H1851  H     0.89272   0.05032   0.69028   0.00000  Uiso   1.00
H1852  H     0.59110   0.01313   0.81957   0.00000  Uiso   1.00
H1853  H     0.75934   0.29849   0.90252   0.00000  Uiso   1.00
H1854  H     0.65115   0.05871   0.69736   0.00000  Uiso   1.00
H1855  H     0.64037   0.00587   0.94609   0.00000  Uiso   1.00
H1856  H     0.91529   0.00727   0.83976   0.00000  Uiso   1.00
H1857  H     0.50712   0.35303   0.90849   0.00000  Uiso   1.00
H1858  H     0.51885   0.36865   0.96786   0.00000  Uiso   1.00
H1859  H     0.98209   0.42876   0.92695   0.00000  Uiso   1.00
H1860  H     0.93953   0.39204   0.90929   0.00000  Uiso   1.00
N1861  N     0.50000   0.25000   0.95069   0.00000  Uiso   1.00
N1862  N     0.50000   0.25000   0.71598   0.00000  Uiso   1.00
N1863  N     0.75000   0.00000   0.95069   0.00000  Uiso   1.00
N1864  N     0.75000   0.00000   0.71598   0.00000  Uiso   1.00
O1865  O     0.54508   0.20491   0.87291   0.00000  Uiso   1.00
O1866  O     0.70491   0.04509   0.79375   0.00000  Uiso   1.00
O1867  O     0.70491   0.04509   0.87291   0.00000  Uiso   1.00
O1868  O     0.79508   0.45491   0.79375   0.00000  Uiso   1.00
O1869  O     0.70491   0.45491   0.79375   0.00000  Uiso   1.00
O1870  O     0.79508   0.04509   0.87291   0.00000  Uiso   1.00
O1871  O     0.79508   0.04509   0.79375   0.00000  Uiso   1.00
O1872  O     0.70491   0.45491   0.87291   0.00000  Uiso   1.00
O1873  O     0.50683   0.17149   0.71463   0.00000  Uiso   1.00
O1874  O     0.97032   0.32214   0.95712   0.00000  Uiso   1.00
O1875  O     0.52682   0.32325   0.71097   0.00000  Uiso   1.00
O1876  O     0.95491   0.29509   0.79375   0.00000  Uiso   1.00
O1877  O     0.99022   0.17157   0.95177   0.00000  Uiso   1.00
O1878  O     0.75684   0.42150   0.71463   0.00000  Uiso   1.00
O1879  O     0.72031   0.07214   0.95713   0.00000  Uiso   1.00
O1880  O     0.77682   0.07325   0.71097   0.00000  Uiso   1.00
O1881  O     0.74022   0.42157   0.95177   0.00000  Uiso   1.00
O1882  O     0.98786   0.12416   0.78784   0.00000  Uiso   1.00
O1883  O     0.96444   0.05376   0.77934   0.00000  Uiso   1.00
O1884  O     0.58723   0.40086   0.94186   0.00000  Uiso   1.00
O1885  O     0.59098   0.32586   0.93719   0.00000  Uiso   1.00
O1886  O     0.61227   0.27018   0.75788   0.00000  Uiso   1.00
O1887  O     0.95491   0.29509   0.87291   0.00000  Uiso   1.00
O1888  O     0.64422   0.32328   0.71611   0.00000  Uiso   1.00
O1889  O     0.81715   0.21068   0.87524   0.00000  Uiso   1.00
O1890  O     0.86137   0.23694   0.82086   0.00000  Uiso   1.00
O1891  O     0.51311   0.12423   0.87820   0.00000  Uiso   1.00
O1892  O     0.53976   0.05653   0.89560   0.00000  Uiso   1.00
O1893  O     0.90146   0.38618   0.71753   0.00000  Uiso   1.00
O1894  O     0.89818   0.31234   0.73208   0.00000  Uiso   1.00
O1895  O     0.87028   0.33253   0.94947   0.00000  Uiso   1.00
O1896  O     0.88815   0.26828   0.91353   0.00000  Uiso   1.00
O1897  O     0.67884   0.20475   0.77869   0.00000  Uiso   1.00
O1898  O     0.54508   0.20491   0.79375   0.00000  Uiso   1.00
O1899  O     0.64417   0.23196   0.84109   0.00000  Uiso   1.00
O1900  O     0.73785   0.37416   0.78780   0.00000  Uiso   1.00
O1901  O     0.71449   0.30373   0.77953   0.00000  Uiso   1.00
O1902  O     0.83723   0.15086   0.94186   0.00000  Uiso   1.00
O1903  O     0.84097   0.07586   0.93719   0.00000  Uiso   1.00
O1904  O     0.86228   0.02019   0.75786   0.00000  Uiso   1.00
O1905  O     0.89410   0.07335   0.71606   0.00000  Uiso   1.00
O1906  O     0.56715   0.46068   0.87523   0.00000  Uiso   1.00
O1907  O     0.61137   0.48694   0.82085   0.00000  Uiso   1.00
O1908  O     0.76311   0.37423   0.87818   0.00000  Uiso   1.00
O1909  O     0.95491   0.20491   0.79375   0.00000  Uiso   1.00
O1910  O     0.78976   0.30653   0.89561   0.00000  Uiso   1.00
O1911  O     0.65146   0.13619   0.71753   0.00000  Uiso   1.00
O1912  O     0.64818   0.06235   0.73208   0.00000  Uiso   1.00
O1913  O     0.62028   0.08252   0.94947   0.00000  Uiso   1.00
O1914  O     0.63815   0.01827   0.91352   0.00000  Uiso   1.00
O1915  O     0.92883   0.45475   0.77866   0.00000  Uiso   1.00
O1916  O     0.89418   0.48197   0.84106   0.00000  Uiso   1.00
O1917  O     0.54508   0.29509   0.87291   0.00000  Uiso   1.00
O1918  O     0.54508   0.29509   0.79375   0.00000  Uiso   1.00
O1919  O     0.95491   0.20491   0.87291   0.00000  Uiso   1.00
O1920  O     0.79508   0.45491   0.87291   0.00000  Uiso   1.00
C1921  C     0.05871   0.68985   0.83376   0.00000  Uiso   1.00
C1922  C     0.49646   0.78920   0.97548   0.00000  Uiso   1.00
C1923  C     0.00235   0.78926   0.69173   0.00000  Uiso   1.00
C1924  C     0.49800   0.71108   0.97510   0.00000  Uiso   1.00
C1925  C     0.25180   0.96115   0.69126   0.00000  Uiso   1.00
C1926  C     0.24645   0.53920   0.97548   0.00000  Uiso   1.00
C1927  C     0.25234   0.53927   0.69173   0.00000  Uiso   1.00
C1928  C     0.24800   0.96108   0.97510   0.00000  Uiso   1.00
C1929  C     0.41535   0.61436   0.80556   0.00000  Uiso   1.00
C1930  C     0.09957   0.87329   0.86687   0.00000  Uiso   1.00
C1931  C     0.12987   0.83601   0.79986   0.00000  Uiso   1.00
C1932  C     0.43868   0.80725   0.83306   0.00000  Uiso   1.00
C1933  C     0.37161   0.66120   0.85412   0.00000  Uiso   1.00
C1934  C     0.08595   0.61577   0.86295   0.00000  Uiso   1.00
C1935  C     0.39713   0.86849   0.79652   0.00000  Uiso   1.00
C1936  C     0.37176   0.83800   0.86867   0.00000  Uiso   1.00
C1937  C     0.12626   0.65776   0.80760   0.00000  Uiso   1.00
C1938  C     0.16536   0.86435   0.80558   0.00000  Uiso   1.00
C1939  C     0.34958   0.62329   0.86687   0.00000  Uiso   1.00
C1940  C     0.37985   0.58602   0.79985   0.00000  Uiso   1.00
C1941  C     0.12160   0.91120   0.85412   0.00000  Uiso   1.00
C1942  C     0.33595   0.86578   0.86296   0.00000  Uiso   1.00
C1943  C     0.44153   0.68973   0.83266   0.00000  Uiso   1.00
C1944  C     0.14713   0.61849   0.79652   0.00000  Uiso   1.00
C1945  C     0.12175   0.58800   0.86867   0.00000  Uiso   1.00
C1946  C     0.37626   0.90776   0.80759   0.00000  Uiso   1.00
C1947  C     0.09791   0.83791   0.83433   0.00000  Uiso   1.00
C1948  C     0.40942   0.65477   0.83040   0.00000  Uiso   1.00
C1949  C     0.40168   0.83703   0.83237   0.00000  Uiso   1.00
C1950  C     0.09041   0.65420   0.83516   0.00000  Uiso   1.00
C1951  C     0.34791   0.58792   0.83433   0.00000  Uiso   1.00
C1952  C     0.15942   0.90477   0.83040   0.00000  Uiso   1.00
C1953  C     0.15168   0.58703   0.83237   0.00000  Uiso   1.00
C1954  C     0.06119   0.80755   0.83372   0.00000  Uiso   1.00
C1955  C     0.34041   0.90421   0.83516   0.00000  Uiso   1.00
C1956  C     0.04686   0.65192   0.70497   0.00000  Uiso   1.00
C1957  C     0.04114   0.60545   0.68459   0.00000  Uiso   1.00
C1958  C     0.49345   0.85939   0.94274   0.00000  Uiso   1.00
C1959  C     0.46365   0.89901   0.93694   0.00000  Uiso   1.00
C1960  C     0.00220   0.85996   0.72484   0.00000  Uiso   1.00
C1961  C     0.03079   0.90052   0.73047   0.00000  Uiso   1.00
C1962  C     0.44930   0.65564   0.96326   0.00000  Uiso   1.00
C1963  C     0.44367   0.60807   0.94617   0.00000  Uiso   1.00
C1964  C     0.29687   0.90192   0.70496   0.00000  Uiso   1.00
C1965  C     0.30871   0.93985   0.83376   0.00000  Uiso   1.00
C1966  C     0.29115   0.85545   0.68460   0.00000  Uiso   1.00
C1967  C     0.24345   0.60939   0.94274   0.00000  Uiso   1.00
C1968  C     0.21364   0.64901   0.93694   0.00000  Uiso   1.00
C1969  C     0.25220   0.60996   0.72484   0.00000  Uiso   1.00
C1970  C     0.28079   0.65052   0.73047   0.00000  Uiso   1.00
C1971  C     0.19930   0.90564   0.96327   0.00000  Uiso   1.00
C1972  C     0.19368   0.85807   0.94618   0.00000  Uiso   1.00
C1973  C     0.45790   0.59876   0.78961   0.00000  Uiso   1.00
C1974  C     0.09072   0.86801   0.91700   0.00000  Uiso   1.00
C1975  C     0.12747   0.80740   0.75730   0.00000  Uiso   1.00
C1976  C     0.18868   0.55725   0.83306   0.00000  Uiso   1.00
C1977  C     0.34884   0.70451   0.85224   0.00000  Uiso   1.00
C1978  C     0.04425   0.60031   0.88034   0.00000  Uiso   1.00
C1979  C     0.40037   0.85675   0.74655   0.00000  Uiso   1.00
C1980  C     0.37700   0.81319   0.91295   0.00000  Uiso   1.00
C1981  C     0.15080   0.69965   0.80687   0.00000  Uiso   1.00
C1982  C     0.20791   0.84875   0.78967   0.00000  Uiso   1.00
C1983  C     0.34071   0.61800   0.91700   0.00000  Uiso   1.00
C1984  C     0.37743   0.55743   0.75728   0.00000  Uiso   1.00
C1985  C     0.09884   0.95451   0.85223   0.00000  Uiso   1.00
C1986  C     0.29425   0.85031   0.88034   0.00000  Uiso   1.00
C1987  C     0.19153   0.93973   0.83266   0.00000  Uiso   1.00
C1988  C     0.15037   0.60676   0.74656   0.00000  Uiso   1.00
C1989  C     0.12700   0.56318   0.91295   0.00000  Uiso   1.00
C1990  C     0.40080   0.94965   0.80685   0.00000  Uiso   1.00
C1991  C     0.31119   0.55755   0.83372   0.00000  Uiso   1.00
C1992  C     0.00180   0.71115   0.69126   0.00000  Uiso   1.00
Cu1993 Cu    0.00000   0.75000   0.88022   0.00000  Uiso   1.00
Cu1994 Cu    0.00000   0.75000   0.78645   0.00000  Uiso   1.00
Cu1995 Cu    0.25000   0.50000   0.88022   0.00000  Uiso   1.00
Cu1996 Cu    0.25000   0.50000   0.78645   0.00000  Uiso   1.00
H1997  H     0.06454   0.64790   0.73813   0.00000  Uiso   1.00
H1998  H     0.44719   0.90633   0.96974   0.00000  Uiso   1.00
H1999  H     0.48870   0.85404   0.75911   0.00000  Uiso   1.00
H2000  H     0.47630   0.86778   0.69983   0.00000  Uiso   1.00
H2001  H     0.01164   0.92972   0.74117   0.00000  Uiso   1.00
H2002  H     0.05566   0.89421   0.75753   0.00000  Uiso   1.00
H2003  H     0.04648   0.90828   0.69743   0.00000  Uiso   1.00
H2004  H     0.42412   0.67674   0.94713   0.00000  Uiso   1.00
H2005  H     0.44383   0.65513   0.66787   0.00000  Uiso   1.00
H2006  H     0.47049   0.58700   0.95796   0.00000  Uiso   1.00
H2007  H     0.41476   0.59397   0.96100   0.00000  Uiso   1.00
H2008  H     0.06770   0.67185   0.68213   0.00000  Uiso   1.00
H2009  H     0.44058   0.60677   0.90788   0.00000  Uiso   1.00
H2010  H     0.31456   0.89791   0.73812   0.00000  Uiso   1.00
H2011  H     0.31770   0.92185   0.68211   0.00000  Uiso   1.00
H2012  H     0.28790   0.85732   0.97975   0.00000  Uiso   1.00
H2013  H     0.31946   0.83475   0.69287   0.00000  Uiso   1.00
H2014  H     0.26284   0.83907   0.69904   0.00000  Uiso   1.00
H2015  H     0.25711   0.60303   0.90849   0.00000  Uiso   1.00
H2016  H     0.26884   0.61866   0.96786   0.00000  Uiso   1.00
H2017  H     0.23208   0.67875   0.92694   0.00000  Uiso   1.00
H2018  H     0.18952   0.64203   0.90929   0.00000  Uiso   1.00
H2019  H     0.03791   0.60733   0.97974   0.00000  Uiso   1.00
H2020  H     0.19718   0.65633   0.96974   0.00000  Uiso   1.00
H2021  H     0.23870   0.60404   0.75911   0.00000  Uiso   1.00
H2022  H     0.22630   0.61778   0.69983   0.00000  Uiso   1.00
H2023  H     0.26164   0.67973   0.74117   0.00000  Uiso   1.00
H2024  H     0.30565   0.64421   0.75752   0.00000  Uiso   1.00
H2025  H     0.29648   0.65828   0.69743   0.00000  Uiso   1.00
H2026  H     0.17412   0.92674   0.94712   0.00000  Uiso   1.00
H2027  H     0.19383   0.90513   0.66787   0.00000  Uiso   1.00
H2028  H     0.22049   0.83699   0.95797   0.00000  Uiso   1.00
H2029  H     0.16477   0.84396   0.96102   0.00000  Uiso   1.00
H2030  H     0.06944   0.58474   0.69287   0.00000  Uiso   1.00
H2031  H     0.19058   0.85676   0.90789   0.00000  Uiso   1.00
H2032  H     0.49485   0.54688   0.77086   0.00000  Uiso   1.00
H2033  H     0.08588   0.82696   0.97174   0.00000  Uiso   1.00
H2034  H     0.14283   0.80025   0.69032   0.00000  Uiso   1.00
H2035  H     0.34110   0.76313   0.81957   0.00000  Uiso   1.00
H2036  H     0.00934   0.54848   0.90252   0.00000  Uiso   1.00
H2037  H     0.40115   0.80870   0.69736   0.00000  Uiso   1.00
H2038  H     0.39037   0.75588   0.94610   0.00000  Uiso   1.00
H2039  H     0.16529   0.75726   0.83980   0.00000  Uiso   1.00
H2040  H     0.24490   0.79685   0.77105   0.00000  Uiso   1.00
H2041  H     0.01282   0.58907   0.69901   0.00000  Uiso   1.00
H2042  H     0.33584   0.57695   0.97174   0.00000  Uiso   1.00
H2043  H     0.39272   0.55032   0.69028   0.00000  Uiso   1.00
H2044  H     0.09110   0.51313   0.81957   0.00000  Uiso   1.00
H2045  H     0.25934   0.79849   0.90252   0.00000  Uiso   1.00
H2046  H     0.15115   0.55871   0.69736   0.00000  Uiso   1.00
H2047  H     0.14037   0.50587   0.94609   0.00000  Uiso   1.00
H2048  H     0.41529   0.50727   0.83976   0.00000  Uiso   1.00
H2049  H     0.00712   0.85303   0.90849   0.00000  Uiso   1.00
H2050  H     0.01885   0.86865   0.96786   0.00000  Uiso   1.00
H2051  H     0.48209   0.92876   0.92695   0.00000  Uiso   1.00
H2052  H     0.43953   0.89204   0.90929   0.00000  Uiso   1.00
N2053  N    -0.00000   0.75000   0.95069   0.00000  Uiso   1.00
N2054  N    -0.00000   0.75000   0.71598   0.00000  Uiso   1.00
N2055  N     0.25000   0.50000   0.95069   0.00000  Uiso   1.00
N2056  N     0.25000   0.50000   0.71598   0.00000  Uiso   1.00
O2057  O     0.04508   0.70491   0.87291   0.00000  Uiso   1.00
O2058  O     0.20491   0.54509   0.79375   0.00000  Uiso   1.00
O2059  O     0.20491   0.54509   0.87291   0.00000  Uiso   1.00
O2060  O     0.29508   0.95491   0.79375   0.00000  Uiso   1.00
O2061  O     0.20491   0.95491   0.79375   0.00000  Uiso   1.00
O2062  O     0.29508   0.54509   0.87291   0.00000  Uiso   1.00
O2063  O     0.29508   0.54509   0.79375   0.00000  Uiso   1.00
O2064  O     0.20491   0.95491   0.87291   0.00000  Uiso   1.00
O2065  O     0.00683   0.67149   0.71463   0.00000  Uiso   1.00
O2066  O     0.47032   0.82214   0.95712   0.00000  Uiso   1.00
O2067  O     0.02682   0.82325   0.71097   0.00000  Uiso   1.00
O2068  O     0.45491   0.79509   0.79375   0.00000  Uiso   1.00
O2069  O     0.49022   0.67157   0.95177   0.00000  Uiso   1.00
O2070  O     0.25684   0.92150   0.71463   0.00000  Uiso   1.00
O2071  O     0.22031   0.57214   0.95713   0.00000  Uiso   1.00
O2072  O     0.27682   0.57325   0.71097   0.00000  Uiso   1.00
O2073  O     0.24022   0.92157   0.95177   0.00000  Uiso   1.00
O2074  O     0.48786   0.62416   0.78784   0.00000  Uiso   1.00
O2075  O     0.46444   0.55376   0.77934   0.00000  Uiso   1.00
O2076  O     0.08723   0.90086   0.94186   0.00000  Uiso   1.00
O2077  O     0.09098   0.82586   0.93719   0.00000  Uiso   1.00
O2078  O     0.11227   0.77018   0.75788   0.00000  Uiso   1.00
O2079  O     0.45491   0.79509   0.87291   0.00000  Uiso   1.00
O2080  O     0.14422   0.82328   0.71611   0.00000  Uiso   1.00
O2081  O     0.31715   0.71068   0.87524   0.00000  Uiso   1.00
O2082  O     0.36137   0.73694   0.82086   0.00000  Uiso   1.00
O2083  O     0.01311   0.62423   0.87820   0.00000  Uiso   1.00
O2084  O     0.03976   0.55653   0.89560   0.00000  Uiso   1.00
O2085  O     0.40146   0.88618   0.71753   0.00000  Uiso   1.00
O2086  O     0.39818   0.81234   0.73208   0.00000  Uiso   1.00
O2087  O     0.37028   0.83253   0.94947   0.00000  Uiso   1.00
O2088  O     0.38815   0.76828   0.91353   0.00000  Uiso   1.00
O2089  O     0.17884   0.70475   0.77869   0.00000  Uiso   1.00
O2090  O     0.04508   0.70491   0.79375   0.00000  Uiso   1.00
O2091  O     0.14417   0.73196   0.84109   0.00000  Uiso   1.00
O2092  O     0.23785   0.87416   0.78780   0.00000  Uiso   1.00
O2093  O     0.21449   0.80373   0.77953   0.00000  Uiso   1.00
O2094  O     0.33723   0.65086   0.94186   0.00000  Uiso   1.00
O2095  O     0.34097   0.57586   0.93719   0.00000  Uiso   1.00
O2096  O     0.36228   0.52019   0.75786   0.00000  Uiso   1.00
O2097  O     0.39410   0.57335   0.71606   0.00000  Uiso   1.00
O2098  O     0.06715   0.96068   0.87523   0.00000  Uiso   1.00
O2099  O     0.11137   0.98694   0.82085   0.00000  Uiso   1.00
O2100  O     0.26311   0.87423   0.87818   0.00000  Uiso   1.00
O2101  O     0.45491   0.70491   0.79375   0.00000  Uiso   1.00
O2102  O     0.28976   0.80653   0.89561   0.00000  Uiso   1.00
O2103  O     0.15146   0.63619   0.71753   0.00000  Uiso   1.00
O2104  O     0.14818   0.56235   0.73208   0.00000  Uiso   1.00
O2105  O     0.12028   0.58252   0.94947   0.00000  Uiso   1.00
O2106  O     0.13815   0.51827   0.91352   0.00000  Uiso   1.00
O2107  O     0.42883   0.95475   0.77866   0.00000  Uiso   1.00
O2108  O     0.39418   0.98197   0.84106   0.00000  Uiso   1.00
O2109  O     0.04508   0.79509   0.87291   0.00000  Uiso   1.00
O2110  O     0.04508   0.79509   0.79375   0.00000  Uiso   1.00
O2111  O     0.45491   0.70491   0.87291   0.00000  Uiso   1.00
O2112  O     0.29508   0.95491   0.87291   0.00000  Uiso   1.00
C2113  C     0.55871   0.68985   0.83376   0.00000  Uiso   1.00
C2114  C     0.99646   0.78920   0.97548   0.00000  Uiso   1.00
C2115  C     0.50235   0.78926   0.69173   0.00000  Uiso   1.00
C2116  C     0.99800   0.71108   0.97510   0.00000  Uiso   1.00
C2117  C     0.75180   0.96115   0.69126   0.00000  Uiso   1.00
C2118  C     0.74645   0.53920   0.97548   0.00000  Uiso   1.00
C2119  C     0.75234   0.53927   0.69173   0.00000  Uiso   1.00
C2120  C     0.74800   0.96108   0.97510   0.00000  Uiso   1.00
C2121  C     0.91535   0.61436   0.80556   0.00000  Uiso   1.00
C2122  C     0.59957   0.87329   0.86687   0.00000  Uiso   1.00
C2123  C     0.62987   0.83601   0.79986   0.00000  Uiso   1.00
C2124  C     0.93868   0.80725   0.83306   0.00000  Uiso   1.00
C2125  C     0.87161   0.66120   0.85412   0.00000  Uiso   1.00
C2126  C     0.58595   0.61577   0.86295   0.00000  Uiso   1.00
C2127  C     0.89713   0.86849   0.79652   0.00000  Uiso   1.00
C2128  C     0.87176   0.83800   0.86867   0.00000  Uiso   1.00
C2129  C     0.62626   0.65776   0.80760   0.00000  Uiso   1.00
C2130  C     0.66536   0.86435   0.80558   0.00000  Uiso   1.00
C2131  C     0.84958   0.62329   0.86687   0.00000  Uiso   1.00
C2132  C     0.87985   0.58602   0.79985   0.00000  Uiso   1.00
C2133  C     0.62160   0.91120   0.85412   0.00000  Uiso   1.00
C2134  C     0.83595   0.86578   0.86296   0.00000  Uiso   1.00
C2135  C     0.94153   0.68973   0.83266   0.00000  Uiso   1.00
C2136  C     0.64713   0.61849   0.79652   0.00000  Uiso   1.00
C2137  C     0.62175   0.58800   0.86867   0.00000  Uiso   1.00
C2138  C     0.87626   0.90776   0.80759   0.00000  Uiso   1.00
C2139  C     0.59791   0.83791   0.83433   0.00000  Uiso   1.00
C2140  C     0.90942   0.65477   0.83040   0.00000  Uiso   1.00
C2141  C     0.90168   0.83703   0.83237   0.00000  Uiso   1.00
C2142  C     0.59041   0.65420   0.83516   0.00000  Uiso   1.00
C2143  C     0.84791   0.58792   0.83433   0.00000  Uiso   1.00
C2144  C     0.65942   0.90477   0.83040   0.00000  Uiso   1.00
C2145  C     0.65168   0.58703   0.83237   0.00000  Uiso   1.00
C2146  C     0.56119   0.80755   0.83372   0.00000  Uiso   1.00
C2147  C     0.84041   0.90421   0.83516   0.00000  Uiso   1.00
C2148  C     0.54686   0.65192   0.70497   0.00000  Uiso   1.00
C2149  C     0.54114   0.60545   0.68459   0.00000  Uiso   1.00
C2150  C     0.99345   0.85939   0.94274   0.00000  Uiso   1.00
C2151  C     0.96365   0.89901   0.93694   0.00000  Uiso   1.00
C2152  C     0.50220   0.85996   0.72484   0.00000  Uiso   1.00
C2153  C     0.53079   0.90052   0.73047   0.00000  Uiso   1.00
C2154  C     0.94930   0.65564   0.96326   0.00000  Uiso   1.00
C2155  C     0.94367   0.60807   0.94617   0.00000  Uiso   1.00
C2156  C     0.79687   0.90192   0.70496   0.00000  Uiso   1.00
C2157  C     0.80871   0.93985   0.83376   0.00000  Uiso   1.00
C2158  C     0.79115   0.85545   0.68460   0.00000  Uiso   1.00
C2159  C     0.74345   0.60939   0.94274   0.00000  Uiso   1.00
C2160  C     0.71364   0.64901   0.93694   0.00000  Uiso   1.00
C2161  C     0.75220   0.60996   0.72484   0.00000  Uiso   1.00
C2162  C     0.78079   0.65052   0.73047   0.00000  Uiso   1.00
C2163  C     0.69930   0.90564   0.96327   0.00000  Uiso   1.00
C2164  C     0.69368   0.85807   0.94618   0.00000  Uiso   1.00
C2165  C     0.95790   0.59876   0.78961   0.00000  Uiso   1.00
C2166  C     0.59072   0.86801   0.91700   0.00000  Uiso   1.00
C2167  C     0.62747   0.80740   0.75730   0.00000  Uiso   1.00
C2168  C     0.68868   0.55725   0.83306   0.00000  Uiso   1.00
C2169  C     0.84884   0.70451   0.85224   0.00000  Uiso   1.00
C2170  C     0.54425   0.60031   0.88034   0.00000  Uiso   1.00
C2171  C     0.90037   0.85675   0.74655   0.00000  Uiso   1.00
C2172  C     0.87700   0.81319   0.91295   0.00000  Uiso   1.00
C2173  C     0.65080   0.69965   0.80687   0.00000  Uiso   1.00
C2174  C     0.70791   0.84875   0.78967   0.00000  Uiso   1.00
C2175  C     0.84071   0.61800   0.91700   0.00000  Uiso   1.00
C2176  C     0.87743   0.55743   0.75728   0.00000  Uiso   1.00
C2177  C     0.59884   0.95451   0.85223   0.00000  Uiso   1.00
C2178  C     0.79425   0.85031   0.88034   0.00000  Uiso   1.00
C2179  C     0.69153   0.93973   0.83266   0.00000  Uiso   1.00
C2180  C     0.65037   0.60676   0.74656   0.00000  Uiso   1.00
C2181  C     0.62700   0.56318   0.91295   0.00000  Uiso   1.00
C2182  C     0.90080   0.94965   0.80685   0.00000  Uiso   1.00
C2183  C     0.81119   0.55755   0.83372   0.00000  Uiso   1.00
C2184  C     0.50180   0.71115   0.69126   0.00000  Uiso   1.00
Cu2185 Cu    0.50000   0.75000   0.88022   0.00000  Uiso   1.00
Cu2186 Cu    0.50000   0.75000   0.78645   0.00000  Uiso   1.00
Cu2187 Cu    0.75000   0.50000   0.88022   0.00000  Uiso   1.00
Cu2188 Cu    0.75000   0.50000   0.78645   0.00000  Uiso   1.00
H2189  H     0.56454   0.64790   0.73813   0.00000  Uiso   1.00
H2190  H     0.94719   0.90633   0.96974   0.00000  Uiso   1.00
H2191  H     0.98870   0.85404   0.75911   0.00000  Uiso   1.00
H2192  H     0.97630   0.86778   0.69983   0.00000  Uiso   1.00
H2193  H     0.51164   0.92972   0.74117   0.00000  Uiso   1.00
H2194  H     0.55566   0.89421   0.75753   0.00000  Uiso   1.00
H2195  H     0.54648   0.90828   0.69743   0.00000  Uiso   1.00
H2196  H     0.92412   0.67674   0.94713   0.00000  Uiso   1.00
H2197  H     0.94383   0.65513   0.66787   0.00000  Uiso   1.00
H2198  H     0.97049   0.58700   0.95796   0.00000  Uiso   1.00
H2199  H     0.91476   0.59397   0.96100   0.00000  Uiso   1.00
H2200  H     0.56770   0.67185   0.68213   0.00000  Uiso   1.00
H2201  H     0.94058   0.60677   0.90788   0.00000  Uiso   1.00
H2202  H     0.81456   0.89791   0.73812   0.00000  Uiso   1.00
H2203  H     0.81770   0.92185   0.68211   0.00000  Uiso   1.00
H2204  H     0.78790   0.85732   0.97975   0.00000  Uiso   1.00
H2205  H     0.81946   0.83475   0.69287   0.00000  Uiso   1.00
H2206  H     0.76284   0.83907   0.69904   0.00000  Uiso   1.00
H2207  H     0.75711   0.60303   0.90849   0.00000  Uiso   1.00
H2208  H     0.76884   0.61866   0.96786   0.00000  Uiso   1.00
H2209  H     0.73208   0.67875   0.92694   0.00000  Uiso   1.00
H2210  H     0.68952   0.64203   0.90929   0.00000  Uiso   1.00
H2211  H     0.53791   0.60733   0.97974   0.00000  Uiso   1.00
H2212  H     0.69718   0.65633   0.96974   0.00000  Uiso   1.00
H2213  H     0.73870   0.60404   0.75911   0.00000  Uiso   1.00
H2214  H     0.72630   0.61778   0.69983   0.00000  Uiso   1.00
H2215  H     0.76164   0.67973   0.74117   0.00000  Uiso   1.00
H2216  H     0.80565   0.64421   0.75752   0.00000  Uiso   1.00
H2217  H     0.79648   0.65828   0.69743   0.00000  Uiso   1.00
H2218  H     0.67412   0.92674   0.94712   0.00000  Uiso   1.00
H2219  H     0.69383   0.90513   0.66787   0.00000  Uiso   1.00
H2220  H     0.72049   0.83699   0.95797   0.00000  Uiso   1.00
H2221  H     0.66477   0.84396   0.96102   0.00000  Uiso   1.00
H2222  H     0.56944   0.58474   0.69287   0.00000  Uiso   1.00
H2223  H     0.69058   0.85676   0.90789   0.00000  Uiso   1.00
H2224  H     0.99485   0.54688   0.77086   0.00000  Uiso   1.00
H2225  H     0.58588   0.82696   0.97174   0.00000  Uiso   1.00
H2226  H     0.64283   0.80025   0.69032   0.00000  Uiso   1.00
H2227  H     0.84110   0.76313   0.81957   0.00000  Uiso   1.00
H2228  H     0.50934   0.54848   0.90252   0.00000  Uiso   1.00
H2229  H     0.90115   0.80870   0.69736   0.00000  Uiso   1.00
H2230  H     0.89037   0.75588   0.94610   0.00000  Uiso   1.00
H2231  H     0.66529   0.75726   0.83980   0.00000  Uiso   1.00
H2232  H     0.74490   0.79685   0.77105   0.00000  Uiso   1.00
H2233  H     0.51282   0.58907   0.69901   0.00000  Uiso   1.00
H2234  H     0.83584   0.57695   0.97174   0.00000  Uiso   1.00
H2235  H     0.89272   0.55032   0.69028   0.00000  Uiso   1.00
H2236  H     0.59110   0.51313   0.81957   0.00000  Uiso   1.00
H2237  H     0.75934   0.79849   0.90252   0.00000  Uiso   1.00
H2238  H     0.65115   0.55871   0.69736   0.00000  Uiso   1.00
H2239  H     0.64037   0.50587   0.94609   0.00000  Uiso   1.00
H2240  H     0.91529   0.50727   0.83976   0.00000  Uiso   1.00
H2241  H     0.50712   0.85303   0.90849   0.00000  Uiso   1.00
H2242  H     0.51885   0.86865   0.96786   0.00000  Uiso   1.00
H2243  H     0.98209   0.92876   0.92695   0.00000  Uiso   1.00
H2244  H     0.93953   0.89204   0.90929   0.00000  Uiso   1.00
N2245  N     0.50000   0.75000   0.95069   0.00000  Uiso   1.00
N2246  N     0.50000   0.75000   0.71598   0.00000  Uiso   1.00
N2247  N     0.75000   0.50000   0.95069   0.00000  Uiso   1.00
N2248  N     0.75000   0.50000   0.71598   0.00000  Uiso   1.00
O2249  O     0.54508   0.70491   0.87291   0.00000  Uiso   1.00
O2250  O     0.70491   0.54509   0.79375   0.00000  Uiso   1.00
O2251  O     0.70491   0.54509   0.87291   0.00000  Uiso   1.00
O2252  O     0.79508   0.95491   0.79375   0.00000  Uiso   1.00
O2253  O     0.70491   0.95491   0.79375   0.00000  Uiso   1.00
O2254  O     0.79508   0.54509   0.87291   0.00000  Uiso   1.00
O2255  O     0.79508   0.54509   0.79375   0.00000  Uiso   1.00
O2256  O     0.70491   0.95491   0.87291   0.00000  Uiso   1.00
O2257  O     0.50683   0.67149   0.71463   0.00000  Uiso   1.00
O2258  O     0.97032   0.82214   0.95712   0.00000  Uiso   1.00
O2259  O     0.52682   0.82325   0.71097   0.00000  Uiso   1.00
O2260  O     0.95491   0.79509   0.79375   0.00000  Uiso   1.00
O2261  O     0.99022   0.67157   0.95177   0.00000  Uiso   1.00
O2262  O     0.75684   0.92150   0.71463   0.00000  Uiso   1.00
O2263  O     0.72031   0.57214   0.95713   0.00000  Uiso   1.00
O2264  O     0.77682   0.57325   0.71097   0.00000  Uiso   1.00
O2265  O     0.74022   0.92157   0.95177   0.00000  Uiso   1.00
O2266  O     0.98786   0.62416   0.78784   0.00000  Uiso   1.00
O2267  O     0.96444   0.55376   0.77934   0.00000  Uiso   1.00
O2268  O     0.58723   0.90086   0.94186   0.00000  Uiso   1.00
O2269  O     0.59098   0.82586   0.93719   0.00000  Uiso   1.00
O2270  O     0.61227   0.77018   0.75788   0.00000  Uiso   1.00
O2271  O     0.95491   0.79509   0.87291   0.00000  Uiso   1.00
O2272  O     0.64422   0.82328   0.71611   0.00000  Uiso   1.00
O2273  O     0.81715   0.71068   0.87524   0.00000  Uiso   1.00
O2274  O     0.86137   0.73694   0.82086   0.00000  Uiso   1.00
O2275  O     0.51311   0.62423   0.87820   0.00000  Uiso   1.00
O2276  O     0.53976   0.55653   0.89560   0.00000  Uiso   1.00
O2277  O     0.90146   0.88618   0.71753   0.00000  Uiso   1.00
O2278  O     0.89818   0.81234   0.73208   0.00000  Uiso   1.00
O2279  O     0.87028   0.83253   0.94947   0.00000  Uiso   1.00
O2280  O     0.88815   0.76828   0.91353   0.00000  Uiso   1.00
O2281  O     0.67884   0.70475   0.77869   0.00000  Uiso   1.00
O2282  O     0.54508   0.70491   0.79375   0.00000  Uiso   1.00
O2283  O     0.64417   0.73196   0.84109   0.00000  Uiso   1.00
O2284  O     0.73785   0.87416   0.78780   0.00000  Uiso   1.00
O2285  O     0.71449   0.80373   0.77953   0.00000  Uiso   1.00
O2286  O     0.83723   0.65086   0.94186   0.00000  Uiso   1.00
O2287  O     0.84097   0.57586   0.93719   0.00000  Uiso   1.00
O2288  O     0.86228   0.52019   0.75786   0.00000  Uiso   1.00
O2289  O     0.89410   0.57335   0.71606   0.00000  Uiso   1.00
O2290  O     0.56715   0.96068   0.87523   0.00000  Uiso   1.00
O2291  O     0.61137   0.98694   0.82085   0.00000  Uiso   1.00
O2292  O     0.76311   0.87423   0.87818   0.00000  Uiso   1.00
O2293  O     0.95491   0.70491   0.79375   0.00000  Uiso   1.00
O2294  O     0.78976   0.80653   0.89561   0.00000  Uiso   1.00
O2295  O     0.65146   0.63619   0.71753   0.00000  Uiso   1.00
O2296  O     0.64818   0.56235   0.73208   0.00000  Uiso   1.00
O2297  O     0.62028   0.58252   0.94947   0.00000  Uiso   1.00
O2298  O     0.63815   0.51827   0.91352   0.00000  Uiso   1.00
O2299  O     0.92883   0.95475   0.77866   0.00000  Uiso   1.00
O2300  O     0.89418   0.98197   0.84106   0.00000  Uiso   1.00
O2301  O     0.54508   0.79509   0.87291   0.00000  Uiso   1.00
O2302  O     0.54508   0.79509   0.79375   0.00000  Uiso   1.00
O2303  O     0.95491   0.70491   0.87291   0.00000  Uiso   1.00
O2304  O     0.79508   0.95491   0.87291   0.00000  Uiso   1.00
loop_
_geom_bond_atom_site_label_1
_geom_bond_atom_site_label_2
_geom_bond_distance
_geom_bond_site_symmetry_2
_ccdc_geom_bond_type
C1     O137    1.295   .     A
C1     O170    1.306   .     A
C1     C30     1.464   .     S
C2     N325    1.381   .     A
C2     O146    1.387   .     S
C2     C963    1.438   .     S
C3     O147    1.388   .     S
C3     C1730   1.438   1_454 S
C3     N134    1.379   .     S
C4     O149    1.382   .     S
C4     N325    1.372   .     A
C4     C1032   1.430   .     S
C5     O150    1.381   .     S
C5     C1544   1.430   1_554 S
C5     N520    1.367   .     S
C6     N135    1.381   .     A
C6     O151    1.387   .     S
C6     C775    1.438   .     S
C7     N136    1.379   .     A
C7     O152    1.388   .     S
C7     C1542   1.438   1_554 S
C8     O153    1.382   .     S
C8     C773    1.430   .     S
C8     N519    1.372   .     S
C9     C20     1.414   .     A
C9     C53     1.499   .     S
C9     C28     1.421   .     A
C10    C27     1.415   .     A
C10    C21     1.392   .     A
C10    C54     1.488   .     S
C11    C18     1.414   .     A
C11    C27     1.430   .     A
C11    C55     1.495   .     S
C12    C29     1.468   .     S
C12    O148    1.303   .     A
C12    O159    1.303   .     A
C13    C57     1.486   .     S
C13    C28     1.398   .     A
C13    C19     1.392   .     A
C14    C30     1.420   .     A
C14    C58     1.492   .     S
C14    C25     1.410   .     A
C15    C29     1.411   .     A
C15    C26     1.390   .     A
C15    C59     1.487   .     S
C16    C60     1.490   .     S
C16    C29     1.424   .     A
C16    C22     1.410   .     A
C17    C61     1.480   .     S
C17    C30     1.399   .     A
C17    C24     1.390   .     A
C18    C32     1.421   .     A
C18    C62     1.499   .     S
C19    C31     1.415   .     A
C19    C63     1.488   .     S
C20    C64     1.495   .     S
C20    C31     1.430   .     A
C21    C32     1.398   .     A
C21    C65     1.486   .     S
C22    C66     1.492   .     S
C22    C35     1.420   .     A
C23    O191    1.307   .     A
C23    O181    1.293   .     A
C23    C28     1.461   .     S
C24    C68     1.487   .     S
C24    C33     1.411   .     A
C25    C69     1.490   .     S
C25    C33     1.424   .     A
C26    C35     1.399   .     A
C26    C70     1.480   .     S
C27    C34     1.475   .     S
C31    C71     1.475   .     S
C32    C67     1.461   .     S
C33    C56     1.468   .     S
C34    O190    1.303   .     A
C34    O189    1.306   .     A
C35    C45     1.464   .     S
C36    H88     1.118   .     S
C36    C37     1.523   .     S
C36    H77     1.104   .     S
C36    O145    1.422   .     S
C37    H110    1.109   .     S
C37    H121    1.110   .     S
C37    H1635   1.106   1_554 S
C38    C39     1.523   .     S
C38    O146    1.407   .     S
C38    H321    1.101   .     S
C38    H322    1.103   .     S
C39    H131    1.111   .     S
C39    H132    1.109   .     S
C39    H78     1.109   .     S
C40    C41     1.524   .     S
C40    O147    1.409   .     S
C40    H271    1.100   1_455 S
C40    H272    1.104   1_455 S
C41    H83     1.109   .     S
C41    H81     1.110   .     S
C41    H82     1.111   .     S
C42    O149    1.422   .     S
C42    H84     1.111   .     S
C42    C43     1.520   .     S
C42    H853    1.111   .     S
C43    H89     1.107   .     S
C43    H86     1.104   .     S
C43    H87     1.101   .     S
C44    C46     1.523   .     S
C44    O150    1.422   .     S
C44    H91     1.118   .     S
C44    H90     1.104   .     S
C45    O192    1.295   .     A
C45    O140    1.306   .     A
C46    H94     1.110   .     S
C46    H93     1.109   .     S
C46    H1628   1.106   1_554 S
C47    H96     1.103   .     S
C47    C48     1.523   .     S
C47    O151    1.407   .     S
C47    H95     1.101   .     S
C48    H97     1.111   .     S
C48    H100    1.109   .     S
C48    H98     1.109   .     S
C49    H102    1.104   .     S
C49    O152    1.409   .     S
C49    H101    1.100   .     S
C49    C50     1.524   .     S
C50    H104    1.111   .     S
C50    H105    1.109   .     S
C50    H103    1.110   .     S
C51    C52     1.520   .     S
C51    O153    1.422   .     S
C51    H106    1.111   .     S
C51    H875    1.111   .     S
C52    H111    1.107   .     S
C52    H109    1.101   .     S
C52    H108    1.104   .     S
C53    O154    1.217   .     D
C53    O155    1.400   .     S
C54    O156    1.224   .     D
C54    O157    1.398   .     S
C55    O158    1.219   .     D
C55    O160    1.397   .     S
C56    O139    1.303   .     A
C56    O138    1.303   .     A
C57    O162    1.398   .     S
C57    O161    1.223   .     D
C58    O164    1.400   .     S
C58    O163    1.216   .     D
C59    O165    1.223   .     D
C59    O166    1.399   .     S
C60    O168    1.395   .     S
C60    O167    1.222   .     D
C61    O169    1.223   .     D
C61    O171    1.399   .     S
C62    O173    1.400   .     S
C62    O172    1.217   .     D
C63    O174    1.224   .     D
C63    O175    1.398   .     S
C64    O176    1.219   .     D
C64    O177    1.397   .     S
C65    O179    1.398   .     S
C65    O178    1.223   .     D
C66    O182    1.400   .     S
C66    O180    1.216   .     D
C67    O144    1.307   .     A
C67    O141    1.293   .     A
C68    O183    1.223   .     D
C68    O184    1.399   .     S
C69    O185    1.222   .     D
C69    O186    1.395   .     S
C70    O188    1.399   .     S
C70    O187    1.223   .     D
C71    O142    1.306   .     A
C71    O143    1.303   .     A
C72    O145    1.381   .     S
C72    C1732   1.430   1_454 S
C72    N134    1.367   .     S
Cu73   Cu74    2.705   .     S
Cu73   O137    1.975   .     S
Cu73   O189    1.981   .     S
Cu73   N133    2.033   .     S
Cu73   O351    1.971   1_455 S
Cu73   O383    1.973   1_455 S
Cu74   O190    1.973   .     S
Cu74   O170    1.971   .     S
Cu74   N134    2.033   .     S
Cu74   O340    1.975   1_455 S
Cu74   O373    1.981   1_455 S
Cu75   N135    2.033   .     S
Cu75   Cu76    2.705   .     S
Cu75   O142    1.981   .     S
Cu75   O139    1.971   .     S
Cu75   O528    1.973   1_545 S
Cu75   O576    1.975   1_545 S
Cu76   N136    2.033   .     S
Cu76   O138    1.975   .     S
Cu76   O143    1.973   .     S
Cu76   O524    1.971   1_545 S
Cu76   O525    1.981   1_545 S
H79    C232    1.100   .     S
H80    C232    1.104   .     S
H85    C1578   1.111   1_554 S
H92    C814    1.106   .     S
H99    C805    1.106   .     S
H107   C1587   1.111   1_554 S
H112   O155    1.014   .     S
H113   O157    1.013   .     S
H114   O160    1.014   .     S
H115   O162    1.013   .     S
H116   O164    1.013   .     S
H117   O166    1.013   .     S
H118   O168    1.014   .     S
H119   O171    1.013   .     S
H120   O173    1.014   .     S
H122   O175    1.013   .     S
H123   O177    1.014   .     S
H124   O563    1.013   1_545 S
H125   O182    1.013   .     S
H126   O184    1.013   .     S
H127   O186    1.014   .     S
H128   O572    1.013   1_545 S
H129   C230    1.101   1_455 S
H130   C230    1.103   1_455 S
N133   C194    1.381   1_455 A
N133   C196    1.372   1_455 A
N135   C392    1.372   1_545 S
N136   C389    1.367   1_545 S
O140   Cu460   1.971   .     S
O141   Cu460   1.981   .     S
O144   Cu459   1.973   .     S
O148   Cu266   1.975   .     S
O159   Cu265   1.971   .     S
O179   H508    1.013   .     S
O181   Cu266   1.981   .     S
O188   H512    1.013   .     S
O191   Cu265   1.973   .     S
O192   Cu459   1.975   .     S
C193   O329    1.295   .     A
C193   O362    1.306   .     A
C193   C222    1.464   .     S
C194   N133    1.381   1_655 A
C194   O338    1.387   .     S
C194   C771    1.438   1_655 S
C195   O339    1.388   .     S
C195   C1538   1.438   1_554 S
C195   N326    1.379   .     S
C196   O341    1.382   .     S
C196   N133    1.372   1_655 A
C196   C840    1.430   1_655 S
C197   O342    1.381   .     S
C197   C1736   1.430   1_554 S
C197   N712    1.367   .     S
C198   N327    1.381   .     A
C198   O343    1.387   .     S
C198   C967    1.438   .     S
C199   N328    1.379   .     A
C199   O344    1.388   .     S
C199   C1734   1.438   1_554 S
C200   O345    1.382   .     S
C200   C965    1.430   .     S
C200   N711    1.372   .     S
C201   C212    1.414   .     A
C201   C245    1.499   .     S
C201   C220    1.421   .     A
C202   C219    1.415   .     A
C202   C213    1.392   .     A
C202   C246    1.488   .     S
C203   C210    1.414   .     A
C203   C219    1.430   .     A
C203   C247    1.495   .     S
C204   C221    1.468   .     S
C204   O340    1.303   .     A
C204   O351    1.303   .     A
C205   C249    1.486   .     S
C205   C220    1.398   .     A
C205   C211    1.392   .     A
C206   C222    1.420   .     A
C206   C250    1.492   .     S
C206   C217    1.410   .     A
C207   C221    1.411   .     A
C207   C218    1.390   .     A
C207   C251    1.487   .     S
C208   C252    1.490   .     S
C208   C221    1.424   .     A
C208   C214    1.410   .     A
C209   C253    1.480   .     S
C209   C222    1.399   .     A
C209   C216    1.390   .     A
C210   C224    1.421   .     A
C210   C254    1.499   .     S
C211   C223    1.415   .     A
C211   C255    1.488   .     S
C212   C256    1.495   .     S
C212   C223    1.430   .     A
C213   C224    1.398   .     A
C213   C257    1.486   .     S
C214   C258    1.492   .     S
C214   C227    1.420   .     A
C215   O383    1.307   .     A
C215   O373    1.293   .     A
C215   C220    1.461   .     S
C216   C260    1.487   .     S
C216   C225    1.411   .     A
C217   C261    1.490   .     S
C217   C225    1.424   .     A
C218   C227    1.399   .     A
C218   C262    1.480   .     S
C219   C226    1.475   .     S
C223   C263    1.475   .     S
C224   C259    1.461   .     S
C225   C248    1.468   .     S
C226   O382    1.303   .     A
C226   O381    1.306   .     A
C227   C237    1.464   .     S
C228   H280    1.118   .     S
C228   C229    1.523   .     S
C228   H269    1.104   .     S
C228   O337    1.422   .     S
C229   H302    1.109   .     S
C229   H313    1.110   .     S
C229   H1827   1.106   1_554 S
C230   C231    1.523   .     S
C230   O338    1.407   .     S
C230   H129    1.101   1_655 S
C230   H130    1.103   1_655 S
C231   H323    1.111   .     S
C231   H324    1.109   .     S
C231   H270    1.109   .     S
C232   C233    1.524   .     S
C232   O339    1.409   .     S
C233   H275    1.109   .     S
C233   H273    1.110   .     S
C233   H274    1.111   .     S
C234   O341    1.422   .     S
C234   H276    1.111   .     S
C234   C235    1.520   .     S
C234   H1045   1.111   .     S
C235   H281    1.107   .     S
C235   H278    1.104   .     S
C235   H279    1.101   .     S
C236   C238    1.523   .     S
C236   O342    1.422   .     S
C236   H283    1.118   .     S
C236   H282    1.104   .     S
C237   O384    1.295   .     A
C237   O332    1.306   .     A
C238   H286    1.110   .     S
C238   H285    1.109   .     S
C238   H1820   1.106   1_554 S
C239   H288    1.103   .     S
C239   C240    1.523   .     S
C239   O343    1.407   .     S
C239   H287    1.101   .     S
C240   H289    1.111   .     S
C240   H292    1.109   .     S
C240   H290    1.109   .     S
C241   H294    1.104   .     S
C241   O344    1.409   .     S
C241   H293    1.100   .     S
C241   C242    1.524   .     S
C242   H296    1.111   .     S
C242   H297    1.109   .     S
C242   H295    1.110   .     S
C243   C244    1.520   .     S
C243   O345    1.422   .     S
C243   H298    1.111   .     S
C243   H1067   1.111   .     S
C244   H303    1.107   .     S
C244   H301    1.101   .     S
C244   H300    1.104   .     S
C245   O346    1.217   .     D
C245   O347    1.400   .     S
C246   O348    1.224   .     D
C246   O349    1.398   .     S
C247   O350    1.219   .     D
C247   O352    1.397   .     S
C248   O331    1.303   .     A
C248   O330    1.303   .     A
C249   O354    1.398   .     S
C249   O353    1.223   .     D
C250   O356    1.400   .     S
C250   O355    1.216   .     D
C251   O357    1.223   .     D
C251   O358    1.399   .     S
C252   O360    1.395   .     S
C252   O359    1.222   .     D
C253   O361    1.223   .     D
C253   O363    1.399   .     S
C254   O365    1.400   .     S
C254   O364    1.217   .     D
C255   O366    1.224   .     D
C255   O367    1.398   .     S
C256   O368    1.219   .     D
C256   O369    1.397   .     S
C257   O371    1.398   .     S
C257   O370    1.223   .     D
C258   O374    1.400   .     S
C258   O372    1.216   .     D
C259   O336    1.307   .     A
C259   O333    1.293   .     A
C260   O375    1.223   .     D
C260   O376    1.399   .     S
C261   O377    1.222   .     D
C261   O378    1.395   .     S
C262   O380    1.399   .     S
C262   O379    1.223   .     D
C263   O334    1.306   .     A
C263   O335    1.303   .     A
C264   O337    1.381   .     S
C264   C1540   1.430   1_554 S
C264   N326    1.367   .     S
Cu265  Cu266   2.705   .     S
Cu265  O329    1.975   .     S
Cu265  O381    1.981   .     S
Cu265  N325    2.033   .     S
Cu266  O382    1.973   .     S
Cu266  O362    1.971   .     S
Cu266  N326    2.033   .     S
Cu267  N327    2.033   .     S
Cu267  Cu268   2.705   .     S
Cu267  O334    1.981   .     S
Cu267  O331    1.971   .     S
Cu267  O720    1.973   1_545 S
Cu267  O768    1.975   1_545 S
Cu268  N328    2.033   .     S
Cu268  O330    1.975   .     S
Cu268  O335    1.973   .     S
Cu268  O716    1.971   1_545 S
Cu268  O717    1.981   1_545 S
H271   C40     1.100   1_655 S
H272   C40     1.104   1_655 S
H277   C1770   1.111   1_554 S
H284   C1006   1.106   .     S
H291   C997    1.106   .     S
H299   C1779   1.111   1_554 S
H304   O347    1.014   .     S
H305   O349    1.013   .     S
H306   O352    1.014   .     S
H307   O354    1.013   .     S
H308   O356    1.013   .     S
H309   O358    1.013   .     S
H310   O360    1.014   .     S
H311   O363    1.013   .     S
H312   O365    1.014   .     S
H314   O367    1.013   .     S
H315   O369    1.014   .     S
H316   O755    1.013   1_545 S
H317   O374    1.013   .     S
H318   O376    1.013   .     S
H319   O378    1.014   .     S
H320   O764    1.013   1_545 S
N327   C584    1.372   1_545 S
N328   C581    1.367   1_545 S
O332   Cu652   1.971   .     S
O333   Cu652   1.981   .     S
O336   Cu651   1.973   .     S
O340   Cu74    1.975   1_655 S
O351   Cu73    1.971   1_655 S
O371   H700    1.013   .     S
O373   Cu74    1.981   1_655 S
O380   H704    1.013   .     S
O383   Cu73    1.973   1_655 S
O384   Cu651   1.975   .     S
C385   O521    1.295   .     A
C385   O554    1.306   .     A
C385   C414    1.464   .     S
C386   N709    1.381   .     A
C386   O530    1.387   .     S
C386   C1347   1.438   .     S
C387   O531    1.388   .     S
C387   C2114   1.438   1_454 S
C387   N518    1.379   .     S
C388   O533    1.382   .     S
C388   N709    1.372   .     A
C388   C1416   1.430   .     S
C389   O534    1.381   .     S
C389   C1928   1.430   1_554 S
C389   N136    1.367   1_565 S
C390   N519    1.381   .     A
C390   O535    1.387   .     S
C390   C1159   1.438   .     S
C391   N520    1.379   .     A
C391   O536    1.388   .     S
C391   C1926   1.438   1_554 S
C392   O537    1.382   .     S
C392   C1157   1.430   .     S
C392   N135    1.372   1_565 S
C393   C404    1.414   .     A
C393   C437    1.499   .     S
C393   C412    1.421   .     A
C394   C411    1.415   .     A
C394   C405    1.392   .     A
C394   C438    1.488   .     S
C395   C402    1.414   .     A
C395   C411    1.430   .     A
C395   C439    1.495   .     S
C396   C413    1.468   .     S
C396   O532    1.303   .     A
C396   O543    1.303   .     A
C397   C441    1.486   .     S
C397   C412    1.398   .     A
C397   C403    1.392   .     A
C398   C414    1.420   .     A
C398   C442    1.492   .     S
C398   C409    1.410   .     A
C399   C413    1.411   .     A
C399   C410    1.390   .     A
C399   C443    1.487   .     S
C400   C444    1.490   .     S
C400   C413    1.424   .     A
C400   C406    1.410   .     A
C401   C445    1.480   .     S
C401   C414    1.399   .     A
C401   C408    1.390   .     A
C402   C416    1.421   .     A
C402   C446    1.499   .     S
C403   C415    1.415   .     A
C403   C447    1.488   .     S
C404   C448    1.495   .     S
C404   C415    1.430   .     A
C405   C416    1.398   .     A
C405   C449    1.486   .     S
C406   C450    1.492   .     S
C406   C419    1.420   .     A
C407   O575    1.307   .     A
C407   O565    1.293   .     A
C407   C412    1.461   .     S
C408   C452    1.487   .     S
C408   C417    1.411   .     A
C409   C453    1.490   .     S
C409   C417    1.424   .     A
C410   C419    1.399   .     A
C410   C454    1.480   .     S
C411   C418    1.475   .     S
C415   C455    1.475   .     S
C416   C451    1.461   .     S
C417   C440    1.468   .     S
C418   O574    1.303   .     A
C418   O573    1.306   .     A
C419   C429    1.464   .     S
C420   H472    1.118   .     S
C420   C421    1.523   .     S
C420   H461    1.104   .     S
C420   O529    1.422   .     S
C421   H494    1.109   .     S
C421   H505    1.110   .     S
C421   H2019   1.106   1_554 S
C422   C423    1.523   .     S
C422   O530    1.407   .     S
C422   H705    1.101   .     S
C422   H706    1.103   .     S
C423   H515    1.111   .     S
C423   H516    1.109   .     S
C423   H462    1.109   .     S
C424   C425    1.524   .     S
C424   O531    1.409   .     S
C424   H655    1.100   1_455 S
C424   H656    1.104   1_455 S
C425   H467    1.109   .     S
C425   H465    1.110   .     S
C425   H466    1.111   .     S
C426   O533    1.422   .     S
C426   H468    1.111   .     S
C426   C427    1.520   .     S
C426   H1237   1.111   .     S
C427   H473    1.107   .     S
C427   H470    1.104   .     S
C427   H471    1.101   .     S
C428   C430    1.523   .     S
C428   O534    1.422   .     S
C428   H475    1.118   .     S
C428   H474    1.104   .     S
C429   O576    1.295   .     A
C429   O524    1.306   .     A
C430   H478    1.110   .     S
C430   H477    1.109   .     S
C430   H2012   1.106   1_554 S
C431   H480    1.103   .     S
C431   C432    1.523   .     S
C431   O535    1.407   .     S
C431   H479    1.101   .     S
C432   H481    1.111   .     S
C432   H484    1.109   .     S
C432   H482    1.109   .     S
C433   H486    1.104   .     S
C433   O536    1.409   .     S
C433   H485    1.100   .     S
C433   C434    1.524   .     S
C434   H488    1.111   .     S
C434   H489    1.109   .     S
C434   H487    1.110   .     S
C435   C436    1.520   .     S
C435   O537    1.422   .     S
C435   H490    1.111   .     S
C435   H1259   1.111   .     S
C436   H495    1.107   .     S
C436   H493    1.101   .     S
C436   H492    1.104   .     S
C437   O538    1.217   .     D
C437   O539    1.400   .     S
C438   O540    1.224   .     D
C438   O541    1.398   .     S
C439   O542    1.219   .     D
C439   O544    1.397   .     S
C440   O523    1.303   .     A
C440   O522    1.303   .     A
C441   O546    1.398   .     S
C441   O545    1.223   .     D
C442   O548    1.400   .     S
C442   O547    1.216   .     D
C443   O549    1.223   .     D
C443   O550    1.399   .     S
C444   O552    1.395   .     S
C444   O551    1.222   .     D
C445   O553    1.223   .     D
C445   O555    1.399   .     S
C446   O557    1.400   .     S
C446   O556    1.217   .     D
C447   O558    1.224   .     D
C447   O559    1.398   .     S
C448   O560    1.219   .     D
C448   O561    1.397   .     S
C449   O563    1.398   .     S
C449   O562    1.223   .     D
C450   O566    1.400   .     S
C450   O564    1.216   .     D
C451   O528    1.307   .     A
C451   O525    1.293   .     A
C452   O567    1.223   .     D
C452   O568    1.399   .     S
C453   O569    1.222   .     D
C453   O570    1.395   .     S
C454   O572    1.399   .     S
C454   O571    1.223   .     D
C455   O526    1.306   .     A
C455   O527    1.303   .     A
C456   O529    1.381   .     S
C456   C2116   1.430   1_454 S
C456   N518    1.367   .     S
Cu457  Cu458   2.705   .     S
Cu457  O521    1.975   .     S
Cu457  O573    1.981   .     S
Cu457  N517    2.033   .     S
Cu457  O735    1.971   1_455 S
Cu457  O767    1.973   1_455 S
Cu458  O574    1.973   .     S
Cu458  O554    1.971   .     S
Cu458  N518    2.033   .     S
Cu458  O724    1.975   1_455 S
Cu458  O757    1.981   1_455 S
Cu459  N519    2.033   .     S
Cu459  Cu460   2.705   .     S
Cu459  O526    1.981   .     S
Cu459  O523    1.971   .     S
Cu460  N520    2.033   .     S
Cu460  O522    1.975   .     S
Cu460  O527    1.973   .     S
H463   C616    1.100   .     S
H464   C616    1.104   .     S
H469   C1962   1.111   1_554 S
H476   C1198   1.106   .     S
H483   C1189   1.106   .     S
H491   C1971   1.111   1_554 S
H496   O539    1.014   .     S
H497   O541    1.013   .     S
H498   O544    1.014   .     S
H499   O546    1.013   .     S
H500   O548    1.013   .     S
H501   O550    1.013   .     S
H502   O552    1.014   .     S
H503   O555    1.013   .     S
H504   O557    1.014   .     S
H506   O559    1.013   .     S
H507   O561    1.014   .     S
H509   O566    1.013   .     S
H510   O568    1.013   .     S
H511   O570    1.014   .     S
H513   C614    1.101   1_455 S
H514   C614    1.103   1_455 S
N517   C578    1.381   1_455 A
N517   C580    1.372   1_455 A
O524   Cu76    1.971   1_565 S
O525   Cu76    1.981   1_565 S
O528   Cu75    1.973   1_565 S
O532   Cu650   1.975   .     S
O543   Cu649   1.971   .     S
O563   H124    1.013   1_565 S
O565   Cu650   1.981   .     S
O572   H128    1.013   1_565 S
O575   Cu649   1.973   .     S
O576   Cu75    1.975   1_565 S
C577   O713    1.295   .     A
C577   O746    1.306   .     A
C577   C606    1.464   .     S
C578   N517    1.381   1_655 A
C578   O722    1.387   .     S
C578   C1155   1.438   1_655 S
C579   O723    1.388   .     S
C579   C1922   1.438   1_554 S
C579   N710    1.379   .     S
C580   O725    1.382   .     S
C580   N517    1.372   1_655 A
C580   C1224   1.430   1_655 S
C581   O726    1.381   .     S
C581   C2120   1.430   1_554 S
C581   N328    1.367   1_565 S
C582   N711    1.381   .     A
C582   O727    1.387   .     S
C582   C1351   1.438   .     S
C583   N712    1.379   .     A
C583   O728    1.388   .     S
C583   C2118   1.438   1_554 S
C584   O729    1.382   .     S
C584   C1349   1.430   .     S
C584   N327    1.372   1_565 S
C585   C596    1.414   .     A
C585   C629    1.499   .     S
C585   C604    1.421   .     A
C586   C603    1.415   .     A
C586   C597    1.392   .     A
C586   C630    1.488   .     S
C587   C594    1.414   .     A
C587   C603    1.430   .     A
C587   C631    1.495   .     S
C588   C605    1.468   .     S
C588   O724    1.303   .     A
C588   O735    1.303   .     A
C589   C633    1.486   .     S
C589   C604    1.398   .     A
C589   C595    1.392   .     A
C590   C606    1.420   .     A
C590   C634    1.492   .     S
C590   C601    1.410   .     A
C591   C605    1.411   .     A
C591   C602    1.390   .     A
C591   C635    1.487   .     S
C592   C636    1.490   .     S
C592   C605    1.424   .     A
C592   C598    1.410   .     A
C593   C637    1.480   .     S
C593   C606    1.399   .     A
C593   C600    1.390   .     A
C594   C608    1.421   .     A
C594   C638    1.499   .     S
C595   C607    1.415   .     A
C595   C639    1.488   .     S
C596   C640    1.495   .     S
C596   C607    1.430   .     A
C597   C608    1.398   .     A
C597   C641    1.486   .     S
C598   C642    1.492   .     S
C598   C611    1.420   .     A
C599   O767    1.307   .     A
C599   O757    1.293   .     A
C599   C604    1.461   .     S
C600   C644    1.487   .     S
C600   C609    1.411   .     A
C601   C645    1.490   .     S
C601   C609    1.424   .     A
C602   C611    1.399   .     A
C602   C646    1.480   .     S
C603   C610    1.475   .     S
C607   C647    1.475   .     S
C608   C643    1.461   .     S
C609   C632    1.468   .     S
C610   O766    1.303   .     A
C610   O765    1.306   .     A
C611   C621    1.464   .     S
C612   H664    1.118   .     S
C612   C613    1.523   .     S
C612   H653    1.104   .     S
C612   O721    1.422   .     S
C613   H686    1.109   .     S
C613   H697    1.110   .     S
C613   H2211   1.106   1_554 S
C614   C615    1.523   .     S
C614   O722    1.407   .     S
C614   H513    1.101   1_655 S
C614   H514    1.103   1_655 S
C615   H707    1.111   .     S
C615   H708    1.109   .     S
C615   H654    1.109   .     S
C616   C617    1.524   .     S
C616   O723    1.409   .     S
C617   H659    1.109   .     S
C617   H657    1.110   .     S
C617   H658    1.111   .     S
C618   O725    1.422   .     S
C618   H660    1.111   .     S
C618   C619    1.520   .     S
C618   H1429   1.111   .     S
C619   H665    1.107   .     S
C619   H662    1.104   .     S
C619   H663    1.101   .     S
C620   C622    1.523   .     S
C620   O726    1.422   .     S
C620   H667    1.118   .     S
C620   H666    1.104   .     S
C621   O768    1.295   .     A
C621   O716    1.306   .     A
C622   H670    1.110   .     S
C622   H669    1.109   .     S
C622   H2204   1.106   1_554 S
C623   H672    1.103   .     S
C623   C624    1.523   .     S
C623   O727    1.407   .     S
C623   H671    1.101   .     S
C624   H673    1.111   .     S
C624   H676    1.109   .     S
C624   H674    1.109   .     S
C625   H678    1.104   .     S
C625   O728    1.409   .     S
C625   H677    1.100   .     S
C625   C626    1.524   .     S
C626   H680    1.111   .     S
C626   H681    1.109   .     S
C626   H679    1.110   .     S
C627   C628    1.520   .     S
C627   O729    1.422   .     S
C627   H682    1.111   .     S
C627   H1451   1.111   .     S
C628   H687    1.107   .     S
C628   H685    1.101   .     S
C628   H684    1.104   .     S
C629   O730    1.217   .     D
C629   O731    1.400   .     S
C630   O732    1.224   .     D
C630   O733    1.398   .     S
C631   O734    1.219   .     D
C631   O736    1.397   .     S
C632   O715    1.303   .     A
C632   O714    1.303   .     A
C633   O738    1.398   .     S
C633   O737    1.223   .     D
C634   O740    1.400   .     S
C634   O739    1.216   .     D
C635   O741    1.223   .     D
C635   O742    1.399   .     S
C636   O744    1.395   .     S
C636   O743    1.222   .     D
C637   O745    1.223   .     D
C637   O747    1.399   .     S
C638   O749    1.400   .     S
C638   O748    1.217   .     D
C639   O750    1.224   .     D
C639   O751    1.398   .     S
C640   O752    1.219   .     D
C640   O753    1.397   .     S
C641   O755    1.398   .     S
C641   O754    1.223   .     D
C642   O758    1.400   .     S
C642   O756    1.216   .     D
C643   O720    1.307   .     A
C643   O717    1.293   .     A
C644   O759    1.223   .     D
C644   O760    1.399   .     S
C645   O761    1.222   .     D
C645   O762    1.395   .     S
C646   O764    1.399   .     S
C646   O763    1.223   .     D
C647   O718    1.306   .     A
C647   O719    1.303   .     A
C648   O721    1.381   .     S
C648   C1924   1.430   1_554 S
C648   N710    1.367   .     S
Cu649  Cu650   2.705   .     S
Cu649  O713    1.975   .     S
Cu649  O765    1.981   .     S
Cu649  N709    2.033   .     S
Cu650  O766    1.973   .     S
Cu650  O746    1.971   .     S
Cu650  N710    2.033   .     S
Cu651  N711    2.033   .     S
Cu651  Cu652   2.705   .     S
Cu651  O718    1.981   .     S
Cu651  O715    1.971   .     S
Cu652  N712    2.033   .     S
Cu652  O714    1.975   .     S
Cu652  O719    1.973   .     S
H655   C424    1.100   1_655 S
H656   C424    1.104   1_655 S
H661   C2154   1.111   1_554 S
H668   C1390   1.106   .     S
H675   C1381   1.106   .     S
H683   C2163   1.111   1_554 S
H688   O731    1.014   .     S
H689   O733    1.013   .     S
H690   O736    1.014   .     S
H691   O738    1.013   .     S
H692   O740    1.013   .     S
H693   O742    1.013   .     S
H694   O744    1.014   .     S
H695   O747    1.013   .     S
H696   O749    1.014   .     S
H698   O751    1.013   .     S
H699   O753    1.014   .     S
H701   O758    1.013   .     S
H702   O760    1.013   .     S
H703   O762    1.014   .     S
O716   Cu268   1.971   1_565 S
O717   Cu268   1.981   1_565 S
O720   Cu267   1.973   1_565 S
O724   Cu458   1.975   1_655 S
O735   Cu457   1.971   1_655 S
O755   H316    1.013   1_565 S
O757   Cu458   1.981   1_655 S
O764   H320    1.013   1_565 S
O767   Cu457   1.973   1_655 S
O768   Cu267   1.975   1_565 S
C769   O905    1.295   .     A
C769   O938    1.306   .     A
C769   C798    1.464   .     S
C770   N1093   1.381   .     A
C770   O914    1.387   .     S
C770   C1731   1.438   .     S
C771   O915    1.388   .     S
C771   C194    1.438   1_455 S
C771   N902    1.379   .     S
C772   O917    1.382   .     S
C772   N1093   1.372   .     A
C772   C1800   1.430   .     S
C773   O918    1.381   .     S
C773   N1288   1.367   .     S
C774   N903    1.381   .     A
C774   O919    1.387   .     S
C774   C1543   1.438   .     S
C775   N904    1.379   .     A
C775   O920    1.388   .     S
C776   O921    1.382   .     S
C776   C1541   1.430   .     S
C776   N1287   1.372   .     S
C777   C788    1.414   .     A
C777   C821    1.499   .     S
C777   C796    1.421   .     A
C778   C795    1.415   .     A
C778   C789    1.392   .     A
C778   C822    1.488   .     S
C779   C786    1.414   .     A
C779   C795    1.430   .     A
C779   C823    1.495   .     S
C780   C797    1.468   .     S
C780   O916    1.303   .     A
C780   O927    1.303   .     A
C781   C825    1.486   .     S
C781   C796    1.398   .     A
C781   C787    1.392   .     A
C782   C798    1.420   .     A
C782   C826    1.492   .     S
C782   C793    1.410   .     A
C783   C797    1.411   .     A
C783   C794    1.390   .     A
C783   C827    1.487   .     S
C784   C828    1.490   .     S
C784   C797    1.424   .     A
C784   C790    1.410   .     A
C785   C829    1.480   .     S
C785   C798    1.399   .     A
C785   C792    1.390   .     A
C786   C800    1.421   .     A
C786   C830    1.499   .     S
C787   C799    1.415   .     A
C787   C831    1.488   .     S
C788   C832    1.495   .     S
C788   C799    1.430   .     A
C789   C800    1.398   .     A
C789   C833    1.486   .     S
C790   C834    1.492   .     S
C790   C803    1.420   .     A
C791   O959    1.307   .     A
C791   O949    1.293   .     A
C791   C796    1.461   .     S
C792   C836    1.487   .     S
C792   C801    1.411   .     A
C793   C837    1.490   .     S
C793   C801    1.424   .     A
C794   C803    1.399   .     A
C794   C838    1.480   .     S
C795   C802    1.475   .     S
C799   C839    1.475   .     S
C800   C835    1.461   .     S
C801   C824    1.468   .     S
C802   O958    1.303   .     A
C802   O957    1.306   .     A
C803   C813    1.464   .     S
C804   H856    1.118   .     S
C804   C805    1.523   .     S
C804   H845    1.104   .     S
C804   O913    1.422   .     S
C805   H878    1.109   .     S
C805   H889    1.110   .     S
C806   C807    1.523   .     S
C806   O914    1.407   .     S
C806   H1089   1.101   .     S
C806   H1090   1.103   .     S
C807   H899    1.111   .     S
C807   H900    1.109   .     S
C807   H846    1.109   .     S
C808   C809    1.524   .     S
C808   O915    1.409   .     S
C808   H1039   1.100   1_455 S
C808   H1040   1.104   1_455 S
C809   H851    1.109   .     S
C809   H849    1.110   .     S
C809   H850    1.111   .     S
C810   O917    1.422   .     S
C810   H852    1.111   .     S
C810   C811    1.520   .     S
C810   H1621   1.111   .     S
C811   H857    1.107   .     S
C811   H854    1.104   .     S
C811   H855    1.101   .     S
C812   C814    1.523   .     S
C812   O918    1.422   .     S
C812   H859    1.118   .     S
C812   H858    1.104   .     S
C813   O960    1.295   .     A
C813   O908    1.306   .     A
C814   H862    1.110   .     S
C814   H861    1.109   .     S
C815   H864    1.103   .     S
C815   C816    1.523   .     S
C815   O919    1.407   .     S
C815   H863    1.101   .     S
C816   H865    1.111   .     S
C816   H868    1.109   .     S
C816   H866    1.109   .     S
C817   H870    1.104   .     S
C817   O920    1.409   .     S
C817   H869    1.100   .     S
C817   C818    1.524   .     S
C818   H872    1.111   .     S
C818   H873    1.109   .     S
C818   H871    1.110   .     S
C819   C820    1.520   .     S
C819   O921    1.422   .     S
C819   H874    1.111   .     S
C819   H1643   1.111   .     S
C820   H879    1.107   .     S
C820   H877    1.101   .     S
C820   H876    1.104   .     S
C821   O922    1.217   .     D
C821   O923    1.400   .     S
C822   O924    1.224   .     D
C822   O925    1.398   .     S
C823   O926    1.219   .     D
C823   O928    1.397   .     S
C824   O907    1.303   .     A
C824   O906    1.303   .     A
C825   O930    1.398   .     S
C825   O929    1.223   .     D
C826   O932    1.400   .     S
C826   O931    1.216   .     D
C827   O933    1.223   .     D
C827   O934    1.399   .     S
C828   O936    1.395   .     S
C828   O935    1.222   .     D
C829   O937    1.223   .     D
C829   O939    1.399   .     S
C830   O941    1.400   .     S
C830   O940    1.217   .     D
C831   O942    1.224   .     D
C831   O943    1.398   .     S
C832   O944    1.219   .     D
C832   O945    1.397   .     S
C833   O947    1.398   .     S
C833   O946    1.223   .     D
C834   O950    1.400   .     S
C834   O948    1.216   .     D
C835   O912    1.307   .     A
C835   O909    1.293   .     A
C836   O951    1.223   .     D
C836   O952    1.399   .     S
C837   O953    1.222   .     D
C837   O954    1.395   .     S
C838   O956    1.399   .     S
C838   O955    1.223   .     D
C839   O910    1.306   .     A
C839   O911    1.303   .     A
C840   O913    1.381   .     S
C840   C196    1.430   1_455 S
C840   N902    1.367   .     S
Cu841  Cu842   2.705   .     S
Cu841  O905    1.975   .     S
Cu841  O957    1.981   .     S
Cu841  N901    2.033   .     S
Cu841  O1119   1.971   1_455 S
Cu841  O1151   1.973   1_455 S
Cu842  O958    1.973   .     S
Cu842  O938    1.971   .     S
Cu842  N902    2.033   .     S
Cu842  O1108   1.975   1_455 S
Cu842  O1141   1.981   1_455 S
Cu843  N903    2.033   .     S
Cu843  Cu844   2.705   .     S
Cu843  O910    1.981   .     S
Cu843  O907    1.971   .     S
Cu843  O1296   1.973   1_545 S
Cu843  O1344   1.975   1_545 S
Cu844  N904    2.033   .     S
Cu844  O906    1.975   .     S
Cu844  O911    1.973   .     S
Cu844  O1292   1.971   1_545 S
Cu844  O1293   1.981   1_545 S
H847   C1000   1.100   .     S
H848   C1000   1.104   .     S
H860   C1582   1.106   .     S
H867   C1573   1.106   .     S
H880   O923    1.014   .     S
H881   O925    1.013   .     S
H882   O928    1.014   .     S
H883   O930    1.013   .     S
H884   O932    1.013   .     S
H885   O934    1.013   .     S
H886   O936    1.014   .     S
H887   O939    1.013   .     S
H888   O941    1.014   .     S
H890   O943    1.013   .     S
H891   O945    1.014   .     S
H892   O1331   1.013   1_545 S
H893   O950    1.013   .     S
H894   O952    1.013   .     S
H895   O954    1.014   .     S
H896   O1340   1.013   1_545 S
H897   C998    1.101   1_455 S
H898   C998    1.103   1_455 S
N901   C962    1.381   1_455 A
N901   C964    1.372   1_455 A
N903   C1160   1.372   1_545 S
N904   C1157   1.367   1_545 S
O908   Cu1228  1.971   .     S
O909   Cu1228  1.981   .     S
O912   Cu1227  1.973   .     S
O916   Cu1034  1.975   .     S
O927   Cu1033  1.971   .     S
O947   H1276   1.013   .     S
O949   Cu1034  1.981   .     S
O956   H1280   1.013   .     S
O959   Cu1033  1.973   .     S
O960   Cu1227  1.975   .     S
C961   O1097   1.295   .     A
C961   O1130   1.306   .     A
C961   C990    1.464   .     S
C962   N901    1.381   1_655 A
C962   O1106   1.387   .     S
C962   C1539   1.438   1_655 S
C963   O1107   1.388   .     S
C963   N1094   1.379   .     S
C964   O1109   1.382   .     S
C964   N901    1.372   1_655 A
C964   C1608   1.430   1_655 S
C965   O1110   1.381   .     S
C965   N1480   1.367   .     S
C966   N1095   1.381   .     A
C966   O1111   1.387   .     S
C966   C1735   1.438   .     S
C967   N1096   1.379   .     A
C967   O1112   1.388   .     S
C968   O1113   1.382   .     S
C968   C1733   1.430   .     S
C968   N1479   1.372   .     S
C969   C980    1.414   .     A
C969   C1013   1.499   .     S
C969   C988    1.421   .     A
C970   C987    1.415   .     A
C970   C981    1.392   .     A
C970   C1014   1.488   .     S
C971   C978    1.414   .     A
C971   C987    1.430   .     A
C971   C1015   1.495   .     S
C972   C989    1.468   .     S
C972   O1108   1.303   .     A
C972   O1119   1.303   .     A
C973   C1017   1.486   .     S
C973   C988    1.398   .     A
C973   C979    1.392   .     A
C974   C990    1.420   .     A
C974   C1018   1.492   .     S
C974   C985    1.410   .     A
C975   C989    1.411   .     A
C975   C986    1.390   .     A
C975   C1019   1.487   .     S
C976   C1020   1.490   .     S
C976   C989    1.424   .     A
C976   C982    1.410   .     A
C977   C1021   1.480   .     S
C977   C990    1.399   .     A
C977   C984    1.390   .     A
C978   C992    1.421   .     A
C978   C1022   1.499   .     S
C979   C991    1.415   .     A
C979   C1023   1.488   .     S
C980   C1024   1.495   .     S
C980   C991    1.430   .     A
C981   C992    1.398   .     A
C981   C1025   1.486   .     S
C982   C1026   1.492   .     S
C982   C995    1.420   .     A
C983   O1151   1.307   .     A
C983   O1141   1.293   .     A
C983   C988    1.461   .     S
C984   C1028   1.487   .     S
C984   C993    1.411   .     A
C985   C1029   1.490   .     S
C985   C993    1.424   .     A
C986   C995    1.399   .     A
C986   C1030   1.480   .     S
C987   C994    1.475   .     S
C991   C1031   1.475   .     S
C992   C1027   1.461   .     S
C993   C1016   1.468   .     S
C994   O1150   1.303   .     A
C994   O1149   1.306   .     A
C995   C1005   1.464   .     S
C996   H1048   1.118   .     S
C996   C997    1.523   .     S
C996   H1037   1.104   .     S
C996   O1105   1.422   .     S
C997   H1070   1.109   .     S
C997   H1081   1.110   .     S
C998   C999    1.523   .     S
C998   O1106   1.407   .     S
C998   H897    1.101   1_655 S
C998   H898    1.103   1_655 S
C999   H1091   1.111   .     S
C999   H1092   1.109   .     S
C999   H1038   1.109   .     S
C1000  C1001   1.524   .     S
C1000  O1107   1.409   .     S
C1001  H1043   1.109   .     S
C1001  H1041   1.110   .     S
C1001  H1042   1.111   .     S
C1002  O1109   1.422   .     S
C1002  H1044   1.111   .     S
C1002  C1003   1.520   .     S
C1002  H1813   1.111   .     S
C1003  H1049   1.107   .     S
C1003  H1046   1.104   .     S
C1003  H1047   1.101   .     S
C1004  C1006   1.523   .     S
C1004  O1110   1.422   .     S
C1004  H1051   1.118   .     S
C1004  H1050   1.104   .     S
C1005  O1152   1.295   .     A
C1005  O1100   1.306   .     A
C1006  H1054   1.110   .     S
C1006  H1053   1.109   .     S
C1007  H1056   1.103   .     S
C1007  C1008   1.523   .     S
C1007  O1111   1.407   .     S
C1007  H1055   1.101   .     S
C1008  H1057   1.111   .     S
C1008  H1060   1.109   .     S
C1008  H1058   1.109   .     S
C1009  H1062   1.104   .     S
C1009  O1112   1.409   .     S
C1009  H1061   1.100   .     S
C1009  C1010   1.524   .     S
C1010  H1064   1.111   .     S
C1010  H1065   1.109   .     S
C1010  H1063   1.110   .     S
C1011  C1012   1.520   .     S
C1011  O1113   1.422   .     S
C1011  H1066   1.111   .     S
C1011  H1835   1.111   .     S
C1012  H1071   1.107   .     S
C1012  H1069   1.101   .     S
C1012  H1068   1.104   .     S
C1013  O1114   1.217   .     D
C1013  O1115   1.400   .     S
C1014  O1116   1.224   .     D
C1014  O1117   1.398   .     S
C1015  O1118   1.219   .     D
C1015  O1120   1.397   .     S
C1016  O1099   1.303   .     A
C1016  O1098   1.303   .     A
C1017  O1122   1.398   .     S
C1017  O1121   1.223   .     D
C1018  O1124   1.400   .     S
C1018  O1123   1.216   .     D
C1019  O1125   1.223   .     D
C1019  O1126   1.399   .     S
C1020  O1128   1.395   .     S
C1020  O1127   1.222   .     D
C1021  O1129   1.223   .     D
C1021  O1131   1.399   .     S
C1022  O1133   1.400   .     S
C1022  O1132   1.217   .     D
C1023  O1134   1.224   .     D
C1023  O1135   1.398   .     S
C1024  O1136   1.219   .     D
C1024  O1137   1.397   .     S
C1025  O1139   1.398   .     S
C1025  O1138   1.223   .     D
C1026  O1142   1.400   .     S
C1026  O1140   1.216   .     D
C1027  O1104   1.307   .     A
C1027  O1101   1.293   .     A
C1028  O1143   1.223   .     D
C1028  O1144   1.399   .     S
C1029  O1145   1.222   .     D
C1029  O1146   1.395   .     S
C1030  O1148   1.399   .     S
C1030  O1147   1.223   .     D
C1031  O1102   1.306   .     A
C1031  O1103   1.303   .     A
C1032  O1105   1.381   .     S
C1032  N1094   1.367   .     S
Cu1033 Cu1034  2.705   .     S
Cu1033 O1097   1.975   .     S
Cu1033 O1149   1.981   .     S
Cu1033 N1093   2.033   .     S
Cu1034 O1150   1.973   .     S
Cu1034 O1130   1.971   .     S
Cu1034 N1094   2.033   .     S
Cu1035 N1095   2.033   .     S
Cu1035 Cu1036  2.705   .     S
Cu1035 O1102   1.981   .     S
Cu1035 O1099   1.971   .     S
Cu1035 O1488   1.973   1_545 S
Cu1035 O1536   1.975   1_545 S
Cu1036 N1096   2.033   .     S
Cu1036 O1098   1.975   .     S
Cu1036 O1103   1.973   .     S
Cu1036 O1484   1.971   1_545 S
Cu1036 O1485   1.981   1_545 S
H1039  C808    1.100   1_655 S
H1040  C808    1.104   1_655 S
H1052  C1774   1.106   .     S
H1059  C1765   1.106   .     S
H1072  O1115   1.014   .     S
H1073  O1117   1.013   .     S
H1074  O1120   1.014   .     S
H1075  O1122   1.013   .     S
H1076  O1124   1.013   .     S
H1077  O1126   1.013   .     S
H1078  O1128   1.014   .     S
H1079  O1131   1.013   .     S
H1080  O1133   1.014   .     S
H1082  O1135   1.013   .     S
H1083  O1137   1.014   .     S
H1084  O1523   1.013   1_545 S
H1085  O1142   1.013   .     S
H1086  O1144   1.013   .     S
H1087  O1146   1.014   .     S
H1088  O1532   1.013   1_545 S
N1095  C1352   1.372   1_545 S
N1096  C1349   1.367   1_545 S
O1100  Cu1420  1.971   .     S
O1101  Cu1420  1.981   .     S
O1104  Cu1419  1.973   .     S
O1108  Cu842   1.975   1_655 S
O1119  Cu841   1.971   1_655 S
O1139  H1468   1.013   .     S
O1141  Cu842   1.981   1_655 S
O1148  H1472   1.013   .     S
O1151  Cu841   1.973   1_655 S
O1152  Cu1419  1.975   .     S
C1153  O1289   1.295   .     A
C1153  O1322   1.306   .     A
C1153  C1182   1.464   .     S
C1154  N1477   1.381   .     A
C1154  O1298   1.387   .     S
C1154  C2115   1.438   .     S
C1155  O1299   1.388   .     S
C1155  C578    1.438   1_455 S
C1155  N1286   1.379   .     S
C1156  O1301   1.382   .     S
C1156  N1477   1.372   .     A
C1156  C2184   1.430   .     S
C1157  O1302   1.381   .     S
C1157  N904    1.367   1_565 S
C1158  N1287   1.381   .     A
C1158  O1303   1.387   .     S
C1158  C1927   1.438   .     S
C1159  N1288   1.379   .     A
C1159  O1304   1.388   .     S
C1160  O1305   1.382   .     S
C1160  C1925   1.430   .     S
C1160  N903    1.372   1_565 S
C1161  C1172   1.414   .     A
C1161  C1205   1.499   .     S
C1161  C1180   1.421   .     A
C1162  C1179   1.415   .     A
C1162  C1173   1.392   .     A
C1162  C1206   1.488   .     S
C1163  C1170   1.414   .     A
C1163  C1179   1.430   .     A
C1163  C1207   1.495   .     S
C1164  C1181   1.468   .     S
C1164  O1300   1.303   .     A
C1164  O1311   1.303   .     A
C1165  C1209   1.486   .     S
C1165  C1180   1.398   .     A
C1165  C1171   1.392   .     A
C1166  C1182   1.420   .     A
C1166  C1210   1.492   .     S
C1166  C1177   1.410   .     A
C1167  C1181   1.411   .     A
C1167  C1178   1.390   .     A
C1167  C1211   1.487   .     S
C1168  C1212   1.490   .     S
C1168  C1181   1.424   .     A
C1168  C1174   1.410   .     A
C1169  C1213   1.480   .     S
C1169  C1182   1.399   .     A
C1169  C1176   1.390   .     A
C1170  C1184   1.421   .     A
C1170  C1214   1.499   .     S
C1171  C1183   1.415   .     A
C1171  C1215   1.488   .     S
C1172  C1216   1.495   .     S
C1172  C1183   1.430   .     A
C1173  C1184   1.398   .     A
C1173  C1217   1.486   .     S
C1174  C1218   1.492   .     S
C1174  C1187   1.420   .     A
C1175  O1343   1.307   .     A
C1175  O1333   1.293   .     A
C1175  C1180   1.461   .     S
C1176  C1220   1.487   .     S
C1176  C1185   1.411   .     A
C1177  C1221   1.490   .     S
C1177  C1185   1.424   .     A
C1178  C1187   1.399   .     A
C1178  C1222   1.480   .     S
C1179  C1186   1.475   .     S
C1183  C1223   1.475   .     S
C1184  C1219   1.461   .     S
C1185  C1208   1.468   .     S
C1186  O1342   1.303   .     A
C1186  O1341   1.306   .     A
C1187  C1197   1.464   .     S
C1188  H1240   1.118   .     S
C1188  C1189   1.523   .     S
C1188  H1229   1.104   .     S
C1188  O1297   1.422   .     S
C1189  H1262   1.109   .     S
C1189  H1273   1.110   .     S
C1190  C1191   1.523   .     S
C1190  O1298   1.407   .     S
C1190  H1473   1.101   .     S
C1190  H1474   1.103   .     S
C1191  H1283   1.111   .     S
C1191  H1284   1.109   .     S
C1191  H1230   1.109   .     S
C1192  C1193   1.524   .     S
C1192  O1299   1.409   .     S
C1192  H1423   1.100   1_455 S
C1192  H1424   1.104   1_455 S
C1193  H1235   1.109   .     S
C1193  H1233   1.110   .     S
C1193  H1234   1.111   .     S
C1194  O1301   1.422   .     S
C1194  H1236   1.111   .     S
C1194  C1195   1.520   .     S
C1194  H2005   1.111   .     S
C1195  H1241   1.107   .     S
C1195  H1238   1.104   .     S
C1195  H1239   1.101   .     S
C1196  C1198   1.523   .     S
C1196  O1302   1.422   .     S
C1196  H1243   1.118   .     S
C1196  H1242   1.104   .     S
C1197  O1344   1.295   .     A
C1197  O1292   1.306   .     A
C1198  H1246   1.110   .     S
C1198  H1245   1.109   .     S
C1199  H1248   1.103   .     S
C1199  C1200   1.523   .     S
C1199  O1303   1.407   .     S
C1199  H1247   1.101   .     S
C1200  H1249   1.111   .     S
C1200  H1252   1.109   .     S
C1200  H1250   1.109   .     S
C1201  H1254   1.104   .     S
C1201  O1304   1.409   .     S
C1201  H1253   1.100   .     S
C1201  C1202   1.524   .     S
C1202  H1256   1.111   .     S
C1202  H1257   1.109   .     S
C1202  H1255   1.110   .     S
C1203  C1204   1.520   .     S
C1203  O1305   1.422   .     S
C1203  H1258   1.111   .     S
C1203  H2027   1.111   .     S
C1204  H1263   1.107   .     S
C1204  H1261   1.101   .     S
C1204  H1260   1.104   .     S
C1205  O1306   1.217   .     D
C1205  O1307   1.400   .     S
C1206  O1308   1.224   .     D
C1206  O1309   1.398   .     S
C1207  O1310   1.219   .     D
C1207  O1312   1.397   .     S
C1208  O1291   1.303   .     A
C1208  O1290   1.303   .     A
C1209  O1314   1.398   .     S
C1209  O1313   1.223   .     D
C1210  O1316   1.400   .     S
C1210  O1315   1.216   .     D
C1211  O1317   1.223   .     D
C1211  O1318   1.399   .     S
C1212  O1320   1.395   .     S
C1212  O1319   1.222   .     D
C1213  O1321   1.223   .     D
C1213  O1323   1.399   .     S
C1214  O1325   1.400   .     S
C1214  O1324   1.217   .     D
C1215  O1326   1.224   .     D
C1215  O1327   1.398   .     S
C1216  O1328   1.219   .     D
C1216  O1329   1.397   .     S
C1217  O1331   1.398   .     S
C1217  O1330   1.223   .     D
C1218  O1334   1.400   .     S
C1218  O1332   1.216   .     D
C1219  O1296   1.307   .     A
C1219  O1293   1.293   .     A
C1220  O1335   1.223   .     D
C1220  O1336   1.399   .     S
C1221  O1337   1.222   .     D
C1221  O1338   1.395   .     S
C1222  O1340   1.399   .     S
C1222  O1339   1.223   .     D
C1223  O1294   1.306   .     A
C1223  O1295   1.303   .     A
C1224  O1297   1.381   .     S
C1224  C580    1.430   1_455 S
C1224  N1286   1.367   .     S
Cu1225 Cu1226  2.705   .     S
Cu1225 O1289   1.975   .     S
Cu1225 O1341   1.981   .     S
Cu1225 N1285   2.033   .     S
Cu1225 O1503   1.971   1_455 S
Cu1225 O1535   1.973   1_455 S
Cu1226 O1342   1.973   .     S
Cu1226 O1322   1.971   .     S
Cu1226 N1286   2.033   .     S
Cu1226 O1492   1.975   1_455 S
Cu1226 O1525   1.981   1_455 S
Cu1227 N1287   2.033   .     S
Cu1227 Cu1228  2.705   .     S
Cu1227 O1294   1.981   .     S
Cu1227 O1291   1.971   .     S
Cu1228 N1288   2.033   .     S
Cu1228 O1290   1.975   .     S
Cu1228 O1295   1.973   .     S
H1231  C1384   1.100   .     S
H1232  C1384   1.104   .     S
H1244  C1966   1.106   .     S
H1251  C1957   1.106   .     S
H1264  O1307   1.014   .     S
H1265  O1309   1.013   .     S
H1266  O1312   1.014   .     S
H1267  O1314   1.013   .     S
H1268  O1316   1.013   .     S
H1269  O1318   1.013   .     S
H1270  O1320   1.014   .     S
H1271  O1323   1.013   .     S
H1272  O1325   1.014   .     S
H1274  O1327   1.013   .     S
H1275  O1329   1.014   .     S
H1277  O1334   1.013   .     S
H1278  O1336   1.013   .     S
H1279  O1338   1.014   .     S
H1281  C1382   1.101   1_455 S
H1282  C1382   1.103   1_455 S
N1285  C1346   1.381   1_455 A
N1285  C1348   1.372   1_455 A
O1292  Cu844   1.971   1_565 S
O1293  Cu844   1.981   1_565 S
O1296  Cu843   1.973   1_565 S
O1300  Cu1418  1.975   .     S
O1311  Cu1417  1.971   .     S
O1331  H892    1.013   1_565 S
O1333  Cu1418  1.981   .     S
O1340  H896    1.013   1_565 S
O1343  Cu1417  1.973   .     S
O1344  Cu843   1.975   1_565 S
C1345  O1481   1.295   .     A
C1345  O1514   1.306   .     A
C1345  C1374   1.464   .     S
C1346  N1285   1.381   1_655 A
C1346  O1490   1.387   .     S
C1346  C1923   1.438   1_655 S
C1347  O1491   1.388   .     S
C1347  N1478   1.379   .     S
C1348  O1493   1.382   .     S
C1348  N1285   1.372   1_655 A
C1348  C1992   1.430   1_655 S
C1349  O1494   1.381   .     S
C1349  N1096   1.367   1_565 S
C1350  N1479   1.381   .     A
C1350  O1495   1.387   .     S
C1350  C2119   1.438   .     S
C1351  N1480   1.379   .     A
C1351  O1496   1.388   .     S
C1352  O1497   1.382   .     S
C1352  C2117   1.430   .     S
C1352  N1095   1.372   1_565 S
C1353  C1364   1.414   .     A
C1353  C1397   1.499   .     S
C1353  C1372   1.421   .     A
C1354  C1371   1.415   .     A
C1354  C1365   1.392   .     A
C1354  C1398   1.488   .     S
C1355  C1362   1.414   .     A
C1355  C1371   1.430   .     A
C1355  C1399   1.495   .     S
C1356  C1373   1.468   .     S
C1356  O1492   1.303   .     A
C1356  O1503   1.303   .     A
C1357  C1401   1.486   .     S
C1357  C1372   1.398   .     A
C1357  C1363   1.392   .     A
C1358  C1374   1.420   .     A
C1358  C1402   1.492   .     S
C1358  C1369   1.410   .     A
C1359  C1373   1.411   .     A
C1359  C1370   1.390   .     A
C1359  C1403   1.487   .     S
C1360  C1404   1.490   .     S
C1360  C1373   1.424   .     A
C1360  C1366   1.410   .     A
C1361  C1405   1.480   .     S
C1361  C1374   1.399   .     A
C1361  C1368   1.390   .     A
C1362  C1376   1.421   .     A
C1362  C1406   1.499   .     S
C1363  C1375   1.415   .     A
C1363  C1407   1.488   .     S
C1364  C1408   1.495   .     S
C1364  C1375   1.430   .     A
C1365  C1376   1.398   .     A
C1365  C1409   1.486   .     S
C1366  C1410   1.492   .     S
C1366  C1379   1.420   .     A
C1367  O1535   1.307   .     A
C1367  O1525   1.293   .     A
C1367  C1372   1.461   .     S
C1368  C1412   1.487   .     S
C1368  C1377   1.411   .     A
C1369  C1413   1.490   .     S
C1369  C1377   1.424   .     A
C1370  C1379   1.399   .     A
C1370  C1414   1.480   .     S
C1371  C1378   1.475   .     S
C1375  C1415   1.475   .     S
C1376  C1411   1.461   .     S
C1377  C1400   1.468   .     S
C1378  O1534   1.303   .     A
C1378  O1533   1.306   .     A
C1379  C1389   1.464   .     S
C1380  H1432   1.118   .     S
C1380  C1381   1.523   .     S
C1380  H1421   1.104   .     S
C1380  O1489   1.422   .     S
C1381  H1454   1.109   .     S
C1381  H1465   1.110   .     S
C1382  C1383   1.523   .     S
C1382  O1490   1.407   .     S
C1382  H1281   1.101   1_655 S
C1382  H1282   1.103   1_655 S
C1383  H1475   1.111   .     S
C1383  H1476   1.109   .     S
C1383  H1422   1.109   .     S
C1384  C1385   1.524   .     S
C1384  O1491   1.409   .     S
C1385  H1427   1.109   .     S
C1385  H1425   1.110   .     S
C1385  H1426   1.111   .     S
C1386  O1493   1.422   .     S
C1386  H1428   1.111   .     S
C1386  C1387   1.520   .     S
C1386  H2197   1.111   .     S
C1387  H1433   1.107   .     S
C1387  H1430   1.104   .     S
C1387  H1431   1.101   .     S
C1388  C1390   1.523   .     S
C1388  O1494   1.422   .     S
C1388  H1435   1.118   .     S
C1388  H1434   1.104   .     S
C1389  O1536   1.295   .     A
C1389  O1484   1.306   .     A
C1390  H1438   1.110   .     S
C1390  H1437   1.109   .     S
C1391  H1440   1.103   .     S
C1391  C1392   1.523   .     S
C1391  O1495   1.407   .     S
C1391  H1439   1.101   .     S
C1392  H1441   1.111   .     S
C1392  H1444   1.109   .     S
C1392  H1442   1.109   .     S
C1393  H1446   1.104   .     S
C1393  O1496   1.409   .     S
C1393  H1445   1.100   .     S
C1393  C1394   1.524   .     S
C1394  H1448   1.111   .     S
C1394  H1449   1.109   .     S
C1394  H1447   1.110   .     S
C1395  C1396   1.520   .     S
C1395  O1497   1.422   .     S
C1395  H1450   1.111   .     S
C1395  H2219   1.111   .     S
C1396  H1455   1.107   .     S
C1396  H1453   1.101   .     S
C1396  H1452   1.104   .     S
C1397  O1498   1.217   .     D
C1397  O1499   1.400   .     S
C1398  O1500   1.224   .     D
C1398  O1501   1.398   .     S
C1399  O1502   1.219   .     D
C1399  O1504   1.397   .     S
C1400  O1483   1.303   .     A
C1400  O1482   1.303   .     A
C1401  O1506   1.398   .     S
C1401  O1505   1.223   .     D
C1402  O1508   1.400   .     S
C1402  O1507   1.216   .     D
C1403  O1509   1.223   .     D
C1403  O1510   1.399   .     S
C1404  O1512   1.395   .     S
C1404  O1511   1.222   .     D
C1405  O1513   1.223   .     D
C1405  O1515   1.399   .     S
C1406  O1517   1.400   .     S
C1406  O1516   1.217   .     D
C1407  O1518   1.224   .     D
C1407  O1519   1.398   .     S
C1408  O1520   1.219   .     D
C1408  O1521   1.397   .     S
C1409  O1523   1.398   .     S
C1409  O1522   1.223   .     D
C1410  O1526   1.400   .     S
C1410  O1524   1.216   .     D
C1411  O1488   1.307   .     A
C1411  O1485   1.293   .     A
C1412  O1527   1.223   .     D
C1412  O1528   1.399   .     S
C1413  O1529   1.222   .     D
C1413  O1530   1.395   .     S
C1414  O1532   1.399   .     S
C1414  O1531   1.223   .     D
C1415  O1486   1.306   .     A
C1415  O1487   1.303   .     A
C1416  O1489   1.381   .     S
C1416  N1478   1.367   .     S
Cu1417 Cu1418  2.705   .     S
Cu1417 O1481   1.975   .     S
Cu1417 O1533   1.981   .     S
Cu1417 N1477   2.033   .     S
Cu1418 O1534   1.973   .     S
Cu1418 O1514   1.971   .     S
Cu1418 N1478   2.033   .     S
Cu1419 N1479   2.033   .     S
Cu1419 Cu1420  2.705   .     S
Cu1419 O1486   1.981   .     S
Cu1419 O1483   1.971   .     S
Cu1420 N1480   2.033   .     S
Cu1420 O1482   1.975   .     S
Cu1420 O1487   1.973   .     S
H1423  C1192   1.100   1_655 S
H1424  C1192   1.104   1_655 S
H1436  C2158   1.106   .     S
H1443  C2149   1.106   .     S
H1456  O1499   1.014   .     S
H1457  O1501   1.013   .     S
H1458  O1504   1.014   .     S
H1459  O1506   1.013   .     S
H1460  O1508   1.013   .     S
H1461  O1510   1.013   .     S
H1462  O1512   1.014   .     S
H1463  O1515   1.013   .     S
H1464  O1517   1.014   .     S
H1466  O1519   1.013   .     S
H1467  O1521   1.014   .     S
H1469  O1526   1.013   .     S
H1470  O1528   1.013   .     S
H1471  O1530   1.014   .     S
O1484  Cu1036  1.971   1_565 S
O1485  Cu1036  1.981   1_565 S
O1488  Cu1035  1.973   1_565 S
O1492  Cu1226  1.975   1_655 S
O1503  Cu1225  1.971   1_655 S
O1523  H1084   1.013   1_565 S
O1525  Cu1226  1.981   1_655 S
O1532  H1088   1.013   1_565 S
O1535  Cu1225  1.973   1_655 S
O1536  Cu1035  1.975   1_565 S
C1537  O1673   1.295   .     A
C1537  O1706   1.306   .     A
C1537  C1566   1.464   .     S
C1538  N1861   1.381   .     A
C1538  O1682   1.387   .     S
C1538  C195    1.438   1_556 S
C1539  O1683   1.388   .     S
C1539  C962    1.438   1_455 S
C1539  N1670   1.379   .     S
C1540  O1685   1.382   .     S
C1540  N1861   1.372   .     A
C1540  C264    1.430   1_556 S
C1541  O1686   1.381   .     S
C1541  N2056   1.367   .     S
C1542  N1671   1.381   .     A
C1542  O1687   1.387   .     S
C1542  C7      1.438   1_556 S
C1543  N1672   1.379   .     A
C1543  O1688   1.388   .     S
C1544  O1689   1.382   .     S
C1544  C5      1.430   1_556 S
C1544  N2055   1.372   .     S
C1545  C1556   1.414   .     A
C1545  C1589   1.499   .     S
C1545  C1564   1.421   .     A
C1546  C1563   1.415   .     A
C1546  C1557   1.392   .     A
C1546  C1590   1.488   .     S
C1547  C1554   1.414   .     A
C1547  C1563   1.430   .     A
C1547  C1591   1.495   .     S
C1548  C1565   1.468   .     S
C1548  O1684   1.303   .     A
C1548  O1695   1.303   .     A
C1549  C1593   1.486   .     S
C1549  C1564   1.398   .     A
C1549  C1555   1.392   .     A
C1550  C1566   1.420   .     A
C1550  C1594   1.492   .     S
C1550  C1561   1.410   .     A
C1551  C1565   1.411   .     A
C1551  C1562   1.390   .     A
C1551  C1595   1.487   .     S
C1552  C1596   1.490   .     S
C1552  C1565   1.424   .     A
C1552  C1558   1.410   .     A
C1553  C1597   1.480   .     S
C1553  C1566   1.399   .     A
C1553  C1560   1.390   .     A
C1554  C1568   1.421   .     A
C1554  C1598   1.499   .     S
C1555  C1567   1.415   .     A
C1555  C1599   1.488   .     S
C1556  C1600   1.495   .     S
C1556  C1567   1.430   .     A
C1557  C1568   1.398   .     A
C1557  C1601   1.486   .     S
C1558  C1602   1.492   .     S
C1558  C1571   1.420   .     A
C1559  O1727   1.307   .     A
C1559  O1717   1.293   .     A
C1559  C1564   1.461   .     S
C1560  C1604   1.487   .     S
C1560  C1569   1.411   .     A
C1561  C1605   1.490   .     S
C1561  C1569   1.424   .     A
C1562  C1571   1.399   .     A
C1562  C1606   1.480   .     S
C1563  C1570   1.475   .     S
C1567  C1607   1.475   .     S
C1568  C1603   1.461   .     S
C1569  C1592   1.468   .     S
C1570  O1726   1.303   .     A
C1570  O1725   1.306   .     A
C1571  C1581   1.464   .     S
C1572  H1624   1.118   .     S
C1572  C1573   1.523   .     S
C1572  H1613   1.104   .     S
C1572  O1681   1.422   .     S
C1573  H1646   1.109   .     S
C1573  H1657   1.110   .     S
C1574  C1575   1.523   .     S
C1574  O1682   1.407   .     S
C1574  H1857   1.101   .     S
C1574  H1858   1.103   .     S
C1575  H1667   1.111   .     S
C1575  H1668   1.109   .     S
C1575  H1614   1.109   .     S
C1576  C1577   1.524   .     S
C1576  O1683   1.409   .     S
C1576  H1807   1.100   1_455 S
C1576  H1808   1.104   1_455 S
C1577  H1619   1.109   .     S
C1577  H1617   1.110   .     S
C1577  H1618   1.111   .     S
C1578  O1685   1.422   .     S
C1578  H1620   1.111   .     S
C1578  C1579   1.520   .     S
C1578  H85     1.111   1_556 S
C1579  H1625   1.107   .     S
C1579  H1622   1.104   .     S
C1579  H1623   1.101   .     S
C1580  C1582   1.523   .     S
C1580  O1686   1.422   .     S
C1580  H1627   1.118   .     S
C1580  H1626   1.104   .     S
C1581  O1728   1.295   .     A
C1581  O1676   1.306   .     A
C1582  H1630   1.110   .     S
C1582  H1629   1.109   .     S
C1583  H1632   1.103   .     S
C1583  C1584   1.523   .     S
C1583  O1687   1.407   .     S
C1583  H1631   1.101   .     S
C1584  H1633   1.111   .     S
C1584  H1636   1.109   .     S
C1584  H1634   1.109   .     S
C1585  H1638   1.104   .     S
C1585  O1688   1.409   .     S
C1585  H1637   1.100   .     S
C1585  C1586   1.524   .     S
C1586  H1640   1.111   .     S
C1586  H1641   1.109   .     S
C1586  H1639   1.110   .     S
C1587  C1588   1.520   .     S
C1587  O1689   1.422   .     S
C1587  H1642   1.111   .     S
C1587  H107    1.111   1_556 S
C1588  H1647   1.107   .     S
C1588  H1645   1.101   .     S
C1588  H1644   1.104   .     S
C1589  O1690   1.217   .     D
C1589  O1691   1.400   .     S
C1590  O1692   1.224   .     D
C1590  O1693   1.398   .     S
C1591  O1694   1.219   .     D
C1591  O1696   1.397   .     S
C1592  O1675   1.303   .     A
C1592  O1674   1.303   .     A
C1593  O1698   1.398   .     S
C1593  O1697   1.223   .     D
C1594  O1700   1.400   .     S
C1594  O1699   1.216   .     D
C1595  O1701   1.223   .     D
C1595  O1702   1.399   .     S
C1596  O1704   1.395   .     S
C1596  O1703   1.222   .     D
C1597  O1705   1.223   .     D
C1597  O1707   1.399   .     S
C1598  O1709   1.400   .     S
C1598  O1708   1.217   .     D
C1599  O1710   1.224   .     D
C1599  O1711   1.398   .     S
C1600  O1712   1.219   .     D
C1600  O1713   1.397   .     S
C1601  O1715   1.398   .     S
C1601  O1714   1.223   .     D
C1602  O1718   1.400   .     S
C1602  O1716   1.216   .     D
C1603  O1680   1.307   .     A
C1603  O1677   1.293   .     A
C1604  O1719   1.223   .     D
C1604  O1720   1.399   .     S
C1605  O1721   1.222   .     D
C1605  O1722   1.395   .     S
C1606  O1724   1.399   .     S
C1606  O1723   1.223   .     D
C1607  O1678   1.306   .     A
C1607  O1679   1.303   .     A
C1608  O1681   1.381   .     S
C1608  C964    1.430   1_455 S
C1608  N1670   1.367   .     S
Cu1609 Cu1610  2.705   .     S
Cu1609 O1673   1.975   .     S
Cu1609 O1725   1.981   .     S
Cu1609 N1669   2.033   .     S
Cu1609 O1887   1.971   1_455 S
Cu1609 O1919   1.973   1_455 S
Cu1610 O1726   1.973   .     S
Cu1610 O1706   1.971   .     S
Cu1610 N1670   2.033   .     S
Cu1610 O1876   1.975   1_455 S
Cu1610 O1909   1.981   1_455 S
Cu1611 N1671   2.033   .     S
Cu1611 Cu1612  2.705   .     S
Cu1611 O1678   1.981   .     S
Cu1611 O1675   1.971   .     S
Cu1611 O2064   1.973   1_545 S
Cu1611 O2112   1.975   1_545 S
Cu1612 N1672   2.033   .     S
Cu1612 O1674   1.975   .     S
Cu1612 O1679   1.973   .     S
Cu1612 O2060   1.971   1_545 S
Cu1612 O2061   1.981   1_545 S
H1615  C1768   1.100   .     S
H1616  C1768   1.104   .     S
H1628  C46     1.106   1_556 S
H1635  C37     1.106   1_556 S
H1648  O1691   1.014   .     S
H1649  O1693   1.013   .     S
H1650  O1696   1.014   .     S
H1651  O1698   1.013   .     S
H1652  O1700   1.013   .     S
H1653  O1702   1.013   .     S
H1654  O1704   1.014   .     S
H1655  O1707   1.013   .     S
H1656  O1709   1.014   .     S
H1658  O1711   1.013   .     S
H1659  O1713   1.014   .     S
H1660  O2099   1.013   1_545 S
H1661  O1718   1.013   .     S
H1662  O1720   1.013   .     S
H1663  O1722   1.014   .     S
H1664  O2108   1.013   1_545 S
H1665  C1766   1.101   1_455 S
H1666  C1766   1.103   1_455 S
N1669  C1730   1.381   1_455 A
N1669  C1732   1.372   1_455 A
N1671  C1928   1.372   1_545 S
N1672  C1925   1.367   1_545 S
O1676  Cu1996  1.971   .     S
O1677  Cu1996  1.981   .     S
O1680  Cu1995  1.973   .     S
O1684  Cu1802  1.975   .     S
O1695  Cu1801  1.971   .     S
O1715  H2044   1.013   .     S
O1717  Cu1802  1.981   .     S
O1724  H2048   1.013   .     S
O1727  Cu1801  1.973   .     S
O1728  Cu1995  1.975   .     S
C1729  O1865   1.295   .     A
C1729  O1898   1.306   .     A
C1729  C1758   1.464   .     S
C1730  N1669   1.381   1_655 A
C1730  O1874   1.387   .     S
C1730  C3      1.438   1_656 S
C1731  O1875   1.388   .     S
C1731  N1862   1.379   .     S
C1732  O1877   1.382   .     S
C1732  N1669   1.372   1_655 A
C1732  C72     1.430   1_656 S
C1733  O1878   1.381   .     S
C1733  N2248   1.367   .     S
C1734  N1863   1.381   .     A
C1734  O1879   1.387   .     S
C1734  C199    1.438   1_556 S
C1735  N1864   1.379   .     A
C1735  O1880   1.388   .     S
C1736  O1881   1.382   .     S
C1736  C197    1.430   1_556 S
C1736  N2247   1.372   .     S
C1737  C1748   1.414   .     A
C1737  C1781   1.499   .     S
C1737  C1756   1.421   .     A
C1738  C1755   1.415   .     A
C1738  C1749   1.392   .     A
C1738  C1782   1.488   .     S
C1739  C1746   1.414   .     A
C1739  C1755   1.430   .     A
C1739  C1783   1.495   .     S
C1740  C1757   1.468   .     S
C1740  O1876   1.303   .     A
C1740  O1887   1.303   .     A
C1741  C1785   1.486   .     S
C1741  C1756   1.398   .     A
C1741  C1747   1.392   .     A
C1742  C1758   1.420   .     A
C1742  C1786   1.492   .     S
C1742  C1753   1.410   .     A
C1743  C1757   1.411   .     A
C1743  C1754   1.390   .     A
C1743  C1787   1.487   .     S
C1744  C1788   1.490   .     S
C1744  C1757   1.424   .     A
C1744  C1750   1.410   .     A
C1745  C1789   1.480   .     S
C1745  C1758   1.399   .     A
C1745  C1752   1.390   .     A
C1746  C1760   1.421   .     A
C1746  C1790   1.499   .     S
C1747  C1759   1.415   .     A
C1747  C1791   1.488   .     S
C1748  C1792   1.495   .     S
C1748  C1759   1.430   .     A
C1749  C1760   1.398   .     A
C1749  C1793   1.486   .     S
C1750  C1794   1.492   .     S
C1750  C1763   1.420   .     A
C1751  O1919   1.307   .     A
C1751  O1909   1.293   .     A
C1751  C1756   1.461   .     S
C1752  C1796   1.487   .     S
C1752  C1761   1.411   .     A
C1753  C1797   1.490   .     S
C1753  C1761   1.424   .     A
C1754  C1763   1.399   .     A
C1754  C1798   1.480   .     S
C1755  C1762   1.475   .     S
C1759  C1799   1.475   .     S
C1760  C1795   1.461   .     S
C1761  C1784   1.468   .     S
C1762  O1918   1.303   .     A
C1762  O1917   1.306   .     A
C1763  C1773   1.464   .     S
C1764  H1816   1.118   .     S
C1764  C1765   1.523   .     S
C1764  H1805   1.104   .     S
C1764  O1873   1.422   .     S
C1765  H1838   1.109   .     S
C1765  H1849   1.110   .     S
C1766  C1767   1.523   .     S
C1766  O1874   1.407   .     S
C1766  H1665   1.101   1_655 S
C1766  H1666   1.103   1_655 S
C1767  H1859   1.111   .     S
C1767  H1860   1.109   .     S
C1767  H1806   1.109   .     S
C1768  C1769   1.524   .     S
C1768  O1875   1.409   .     S
C1769  H1811   1.109   .     S
C1769  H1809   1.110   .     S
C1769  H1810   1.111   .     S
C1770  O1877   1.422   .     S
C1770  H1812   1.111   .     S
C1770  C1771   1.520   .     S
C1770  H277    1.111   1_556 S
C1771  H1817   1.107   .     S
C1771  H1814   1.104   .     S
C1771  H1815   1.101   .     S
C1772  C1774   1.523   .     S
C1772  O1878   1.422   .     S
C1772  H1819   1.118   .     S
C1772  H1818   1.104   .     S
C1773  O1920   1.295   .     A
C1773  O1868   1.306   .     A
C1774  H1822   1.110   .     S
C1774  H1821   1.109   .     S
C1775  H1824   1.103   .     S
C1775  C1776   1.523   .     S
C1775  O1879   1.407   .     S
C1775  H1823   1.101   .     S
C1776  H1825   1.111   .     S
C1776  H1828   1.109   .     S
C1776  H1826   1.109   .     S
C1777  H1830   1.104   .     S
C1777  O1880   1.409   .     S
C1777  H1829   1.100   .     S
C1777  C1778   1.524   .     S
C1778  H1832   1.111   .     S
C1778  H1833   1.109   .     S
C1778  H1831   1.110   .     S
C1779  C1780   1.520   .     S
C1779  O1881   1.422   .     S
C1779  H1834   1.111   .     S
C1779  H299    1.111   1_556 S
C1780  H1839   1.107   .     S
C1780  H1837   1.101   .     S
C1780  H1836   1.104   .     S
C1781  O1882   1.217   .     D
C1781  O1883   1.400   .     S
C1782  O1884   1.224   .     D
C1782  O1885   1.398   .     S
C1783  O1886   1.219   .     D
C1783  O1888   1.397   .     S
C1784  O1867   1.303   .     A
C1784  O1866   1.303   .     A
C1785  O1890   1.398   .     S
C1785  O1889   1.223   .     D
C1786  O1892   1.400   .     S
C1786  O1891   1.216   .     D
C1787  O1893   1.223   .     D
C1787  O1894   1.399   .     S
C1788  O1896   1.395   .     S
C1788  O1895   1.222   .     D
C1789  O1897   1.223   .     D
C1789  O1899   1.399   .     S
C1790  O1901   1.400   .     S
C1790  O1900   1.217   .     D
C1791  O1902   1.224   .     D
C1791  O1903   1.398   .     S
C1792  O1904   1.219   .     D
C1792  O1905   1.397   .     S
C1793  O1907   1.398   .     S
C1793  O1906   1.223   .     D
C1794  O1910   1.400   .     S
C1794  O1908   1.216   .     D
C1795  O1872   1.307   .     A
C1795  O1869   1.293   .     A
C1796  O1911   1.223   .     D
C1796  O1912   1.399   .     S
C1797  O1913   1.222   .     D
C1797  O1914   1.395   .     S
C1798  O1916   1.399   .     S
C1798  O1915   1.223   .     D
C1799  O1870   1.306   .     A
C1799  O1871   1.303   .     A
C1800  O1873   1.381   .     S
C1800  N1862   1.367   .     S
Cu1801 Cu1802  2.705   .     S
Cu1801 O1865   1.975   .     S
Cu1801 O1917   1.981   .     S
Cu1801 N1861   2.033   .     S
Cu1802 O1918   1.973   .     S
Cu1802 O1898   1.971   .     S
Cu1802 N1862   2.033   .     S
Cu1803 N1863   2.033   .     S
Cu1803 Cu1804  2.705   .     S
Cu1803 O1870   1.981   .     S
Cu1803 O1867   1.971   .     S
Cu1803 O2256   1.973   1_545 S
Cu1803 O2304   1.975   1_545 S
Cu1804 N1864   2.033   .     S
Cu1804 O1866   1.975   .     S
Cu1804 O1871   1.973   .     S
Cu1804 O2252   1.971   1_545 S
Cu1804 O2253   1.981   1_545 S
H1807  C1576   1.100   1_655 S
H1808  C1576   1.104   1_655 S
H1820  C238    1.106   1_556 S
H1827  C229    1.106   1_556 S
H1840  O1883   1.014   .     S
H1841  O1885   1.013   .     S
H1842  O1888   1.014   .     S
H1843  O1890   1.013   .     S
H1844  O1892   1.013   .     S
H1845  O1894   1.013   .     S
H1846  O1896   1.014   .     S
H1847  O1899   1.013   .     S
H1848  O1901   1.014   .     S
H1850  O1903   1.013   .     S
H1851  O1905   1.014   .     S
H1852  O2291   1.013   1_545 S
H1853  O1910   1.013   .     S
H1854  O1912   1.013   .     S
H1855  O1914   1.014   .     S
H1856  O2300   1.013   1_545 S
N1863  C2120   1.372   1_545 S
N1864  C2117   1.367   1_545 S
O1868  Cu2188  1.971   .     S
O1869  Cu2188  1.981   .     S
O1872  Cu2187  1.973   .     S
O1876  Cu1610  1.975   1_655 S
O1887  Cu1609  1.971   1_655 S
O1907  H2236   1.013   .     S
O1909  Cu1610  1.981   1_655 S
O1916  H2240   1.013   .     S
O1919  Cu1609  1.973   1_655 S
O1920  Cu2187  1.975   .     S
C1921  O2057   1.295   .     A
C1921  O2090   1.306   .     A
C1921  C1950   1.464   .     S
C1922  N2245   1.381   .     A
C1922  O2066   1.387   .     S
C1922  C579    1.438   1_556 S
C1923  O2067   1.388   .     S
C1923  C1346   1.438   1_455 S
C1923  N2054   1.379   .     S
C1924  O2069   1.382   .     S
C1924  N2245   1.372   .     A
C1924  C648    1.430   1_556 S
C1925  O2070   1.381   .     S
C1925  N1672   1.367   1_565 S
C1926  N2055   1.381   .     A
C1926  O2071   1.387   .     S
C1926  C391    1.438   1_556 S
C1927  N2056   1.379   .     A
C1927  O2072   1.388   .     S
C1928  O2073   1.382   .     S
C1928  C389    1.430   1_556 S
C1928  N1671   1.372   1_565 S
C1929  C1940   1.414   .     A
C1929  C1973   1.499   .     S
C1929  C1948   1.421   .     A
C1930  C1947   1.415   .     A
C1930  C1941   1.392   .     A
C1930  C1974   1.488   .     S
C1931  C1938   1.414   .     A
C1931  C1947   1.430   .     A
C1931  C1975   1.495   .     S
C1932  C1949   1.468   .     S
C1932  O2068   1.303   .     A
C1932  O2079   1.303   .     A
C1933  C1977   1.486   .     S
C1933  C1948   1.398   .     A
C1933  C1939   1.392   .     A
C1934  C1950   1.420   .     A
C1934  C1978   1.492   .     S
C1934  C1945   1.410   .     A
C1935  C1949   1.411   .     A
C1935  C1946   1.390   .     A
C1935  C1979   1.487   .     S
C1936  C1980   1.490   .     S
C1936  C1949   1.424   .     A
C1936  C1942   1.410   .     A
C1937  C1981   1.480   .     S
C1937  C1950   1.399   .     A
C1937  C1944   1.390   .     A
C1938  C1952   1.421   .     A
C1938  C1982   1.499   .     S
C1939  C1951   1.415   .     A
C1939  C1983   1.488   .     S
C1940  C1984   1.495   .     S
C1940  C1951   1.430   .     A
C1941  C1952   1.398   .     A
C1941  C1985   1.486   .     S
C1942  C1986   1.492   .     S
C1942  C1955   1.420   .     A
C1943  O2111   1.307   .     A
C1943  O2101   1.293   .     A
C1943  C1948   1.461   .     S
C1944  C1988   1.487   .     S
C1944  C1953   1.411   .     A
C1945  C1989   1.490   .     S
C1945  C1953   1.424   .     A
C1946  C1955   1.399   .     A
C1946  C1990   1.480   .     S
C1947  C1954   1.475   .     S
C1951  C1991   1.475   .     S
C1952  C1987   1.461   .     S
C1953  C1976   1.468   .     S
C1954  O2110   1.303   .     A
C1954  O2109   1.306   .     A
C1955  C1965   1.464   .     S
C1956  H2008   1.118   .     S
C1956  C1957   1.523   .     S
C1956  H1997   1.104   .     S
C1956  O2065   1.422   .     S
C1957  H2030   1.109   .     S
C1957  H2041   1.110   .     S
C1958  C1959   1.523   .     S
C1958  O2066   1.407   .     S
C1958  H2241   1.101   .     S
C1958  H2242   1.103   .     S
C1959  H2051   1.111   .     S
C1959  H2052   1.109   .     S
C1959  H1998   1.109   .     S
C1960  C1961   1.524   .     S
C1960  O2067   1.409   .     S
C1960  H2191   1.100   1_455 S
C1960  H2192   1.104   1_455 S
C1961  H2003   1.109   .     S
C1961  H2001   1.110   .     S
C1961  H2002   1.111   .     S
C1962  O2069   1.422   .     S
C1962  H2004   1.111   .     S
C1962  C1963   1.520   .     S
C1962  H469    1.111   1_556 S
C1963  H2009   1.107   .     S
C1963  H2006   1.104   .     S
C1963  H2007   1.101   .     S
C1964  C1966   1.523   .     S
C1964  O2070   1.422   .     S
C1964  H2011   1.118   .     S
C1964  H2010   1.104   .     S
C1965  O2112   1.295   .     A
C1965  O2060   1.306   .     A
C1966  H2014   1.110   .     S
C1966  H2013   1.109   .     S
C1967  H2016   1.103   .     S
C1967  C1968   1.523   .     S
C1967  O2071   1.407   .     S
C1967  H2015   1.101   .     S
C1968  H2017   1.111   .     S
C1968  H2020   1.109   .     S
C1968  H2018   1.109   .     S
C1969  H2022   1.104   .     S
C1969  O2072   1.409   .     S
C1969  H2021   1.100   .     S
C1969  C1970   1.524   .     S
C1970  H2024   1.111   .     S
C1970  H2025   1.109   .     S
C1970  H2023   1.110   .     S
C1971  C1972   1.520   .     S
C1971  O2073   1.422   .     S
C1971  H2026   1.111   .     S
C1971  H491    1.111   1_556 S
C1972  H2031   1.107   .     S
C1972  H2029   1.101   .     S
C1972  H2028   1.104   .     S
C1973  O2074   1.217   .     D
C1973  O2075   1.400   .     S
C1974  O2076   1.224   .     D
C1974  O2077   1.398   .     S
C1975  O2078   1.219   .     D
C1975  O2080   1.397   .     S
C1976  O2059   1.303   .     A
C1976  O2058   1.303   .     A
C1977  O2082   1.398   .     S
C1977  O2081   1.223   .     D
C1978  O2084   1.400   .     S
C1978  O2083   1.216   .     D
C1979  O2085   1.223   .     D
C1979  O2086   1.399   .     S
C1980  O2088   1.395   .     S
C1980  O2087   1.222   .     D
C1981  O2089   1.223   .     D
C1981  O2091   1.399   .     S
C1982  O2093   1.400   .     S
C1982  O2092   1.217   .     D
C1983  O2094   1.224   .     D
C1983  O2095   1.398   .     S
C1984  O2096   1.219   .     D
C1984  O2097   1.397   .     S
C1985  O2099   1.398   .     S
C1985  O2098   1.223   .     D
C1986  O2102   1.400   .     S
C1986  O2100   1.216   .     D
C1987  O2064   1.307   .     A
C1987  O2061   1.293   .     A
C1988  O2103   1.223   .     D
C1988  O2104   1.399   .     S
C1989  O2105   1.222   .     D
C1989  O2106   1.395   .     S
C1990  O2108   1.399   .     S
C1990  O2107   1.223   .     D
C1991  O2062   1.306   .     A
C1991  O2063   1.303   .     A
C1992  O2065   1.381   .     S
C1992  C1348   1.430   1_455 S
C1992  N2054   1.367   .     S
Cu1993 Cu1994  2.705   .     S
Cu1993 O2057   1.975   .     S
Cu1993 O2109   1.981   .     S
Cu1993 N2053   2.033   .     S
Cu1993 O2271   1.971   1_455 S
Cu1993 O2303   1.973   1_455 S
Cu1994 O2110   1.973   .     S
Cu1994 O2090   1.971   .     S
Cu1994 N2054   2.033   .     S
Cu1994 O2260   1.975   1_455 S
Cu1994 O2293   1.981   1_455 S
Cu1995 N2055   2.033   .     S
Cu1995 Cu1996  2.705   .     S
Cu1995 O2062   1.981   .     S
Cu1995 O2059   1.971   .     S
Cu1996 N2056   2.033   .     S
Cu1996 O2058   1.975   .     S
Cu1996 O2063   1.973   .     S
H1999  C2152   1.100   .     S
H2000  C2152   1.104   .     S
H2012  C430    1.106   1_556 S
H2019  C421    1.106   1_556 S
H2032  O2075   1.014   .     S
H2033  O2077   1.013   .     S
H2034  O2080   1.014   .     S
H2035  O2082   1.013   .     S
H2036  O2084   1.013   .     S
H2037  O2086   1.013   .     S
H2038  O2088   1.014   .     S
H2039  O2091   1.013   .     S
H2040  O2093   1.014   .     S
H2042  O2095   1.013   .     S
H2043  O2097   1.014   .     S
H2045  O2102   1.013   .     S
H2046  O2104   1.013   .     S
H2047  O2106   1.014   .     S
H2049  C2150   1.101   1_455 S
H2050  C2150   1.103   1_455 S
N2053  C2114   1.381   1_455 A
N2053  C2116   1.372   1_455 A
O2060  Cu1612  1.971   1_565 S
O2061  Cu1612  1.981   1_565 S
O2064  Cu1611  1.973   1_565 S
O2068  Cu2186  1.975   .     S
O2079  Cu2185  1.971   .     S
O2099  H1660   1.013   1_565 S
O2101  Cu2186  1.981   .     S
O2108  H1664   1.013   1_565 S
O2111  Cu2185  1.973   .     S
O2112  Cu1611  1.975   1_565 S
C2113  O2249   1.295   .     A
C2113  O2282   1.306   .     A
C2113  C2142   1.464   .     S
C2114  N2053   1.381   1_655 A
C2114  O2258   1.387   .     S
C2114  C387    1.438   1_656 S
C2115  O2259   1.388   .     S
C2115  N2246   1.379   .     S
C2116  O2261   1.382   .     S
C2116  N2053   1.372   1_655 A
C2116  C456    1.430   1_656 S
C2117  O2262   1.381   .     S
C2117  N1864   1.367   1_565 S
C2118  N2247   1.381   .     A
C2118  O2263   1.387   .     S
C2118  C583    1.438   1_556 S
C2119  N2248   1.379   .     A
C2119  O2264   1.388   .     S
C2120  O2265   1.382   .     S
C2120  C581    1.430   1_556 S
C2120  N1863   1.372   1_565 S
C2121  C2132   1.414   .     A
C2121  C2165   1.499   .     S
C2121  C2140   1.421   .     A
C2122  C2139   1.415   .     A
C2122  C2133   1.392   .     A
C2122  C2166   1.488   .     S
C2123  C2130   1.414   .     A
C2123  C2139   1.430   .     A
C2123  C2167   1.495   .     S
C2124  C2141   1.468   .     S
C2124  O2260   1.303   .     A
C2124  O2271   1.303   .     A
C2125  C2169   1.486   .     S
C2125  C2140   1.398   .     A
C2125  C2131   1.392   .     A
C2126  C2142   1.420   .     A
C2126  C2170   1.492   .     S
C2126  C2137   1.410   .     A
C2127  C2141   1.411   .     A
C2127  C2138   1.390   .     A
C2127  C2171   1.487   .     S
C2128  C2172   1.490   .     S
C2128  C2141   1.424   .     A
C2128  C2134   1.410   .     A
C2129  C2173   1.480   .     S
C2129  C2142   1.399   .     A
C2129  C2136   1.390   .     A
C2130  C2144   1.421   .     A
C2130  C2174   1.499   .     S
C2131  C2143   1.415   .     A
C2131  C2175   1.488   .     S
C2132  C2176   1.495   .     S
C2132  C2143   1.430   .     A
C2133  C2144   1.398   .     A
C2133  C2177   1.486   .     S
C2134  C2178   1.492   .     S
C2134  C2147   1.420   .     A
C2135  O2303   1.307   .     A
C2135  O2293   1.293   .     A
C2135  C2140   1.461   .     S
C2136  C2180   1.487   .     S
C2136  C2145   1.411   .     A
C2137  C2181   1.490   .     S
C2137  C2145   1.424   .     A
C2138  C2147   1.399   .     A
C2138  C2182   1.480   .     S
C2139  C2146   1.475   .     S
C2143  C2183   1.475   .     S
C2144  C2179   1.461   .     S
C2145  C2168   1.468   .     S
C2146  O2302   1.303   .     A
C2146  O2301   1.306   .     A
C2147  C2157   1.464   .     S
C2148  H2200   1.118   .     S
C2148  C2149   1.523   .     S
C2148  H2189   1.104   .     S
C2148  O2257   1.422   .     S
C2149  H2222   1.109   .     S
C2149  H2233   1.110   .     S
C2150  C2151   1.523   .     S
C2150  O2258   1.407   .     S
C2150  H2049   1.101   1_655 S
C2150  H2050   1.103   1_655 S
C2151  H2243   1.111   .     S
C2151  H2244   1.109   .     S
C2151  H2190   1.109   .     S
C2152  C2153   1.524   .     S
C2152  O2259   1.409   .     S
C2153  H2195   1.109   .     S
C2153  H2193   1.110   .     S
C2153  H2194   1.111   .     S
C2154  O2261   1.422   .     S
C2154  H2196   1.111   .     S
C2154  C2155   1.520   .     S
C2154  H661    1.111   1_556 S
C2155  H2201   1.107   .     S
C2155  H2198   1.104   .     S
C2155  H2199   1.101   .     S
C2156  C2158   1.523   .     S
C2156  O2262   1.422   .     S
C2156  H2203   1.118   .     S
C2156  H2202   1.104   .     S
C2157  O2304   1.295   .     A
C2157  O2252   1.306   .     A
C2158  H2206   1.110   .     S
C2158  H2205   1.109   .     S
C2159  H2208   1.103   .     S
C2159  C2160   1.523   .     S
C2159  O2263   1.407   .     S
C2159  H2207   1.101   .     S
C2160  H2209   1.111   .     S
C2160  H2212   1.109   .     S
C2160  H2210   1.109   .     S
C2161  H2214   1.104   .     S
C2161  O2264   1.409   .     S
C2161  H2213   1.100   .     S
C2161  C2162   1.524   .     S
C2162  H2216   1.111   .     S
C2162  H2217   1.109   .     S
C2162  H2215   1.110   .     S
C2163  C2164   1.520   .     S
C2163  O2265   1.422   .     S
C2163  H2218   1.111   .     S
C2163  H683    1.111   1_556 S
C2164  H2223   1.107   .     S
C2164  H2221   1.101   .     S
C2164  H2220   1.104   .     S
C2165  O2266   1.217   .     D
C2165  O2267   1.400   .     S
C2166  O2268   1.224   .     D
C2166  O2269   1.398   .     S
C2167  O2270   1.219   .     D
C2167  O2272   1.397   .     S
C2168  O2251   1.303   .     A
C2168  O2250   1.303   .     A
C2169  O2274   1.398   .     S
C2169  O2273   1.223   .     D
C2170  O2276   1.400   .     S
C2170  O2275   1.216   .     D
C2171  O2277   1.223   .     D
C2171  O2278   1.399   .     S
C2172  O2280   1.395   .     S
C2172  O2279   1.222   .     D
C2173  O2281   1.223   .     D
C2173  O2283   1.399   .     S
C2174  O2285   1.400   .     S
C2174  O2284   1.217   .     D
C2175  O2286   1.224   .     D
C2175  O2287   1.398   .     S
C2176  O2288   1.219   .     D
C2176  O2289   1.397   .     S
C2177  O2291   1.398   .     S
C2177  O2290   1.223   .     D
C2178  O2294   1.400   .     S
C2178  O2292   1.216   .     D
C2179  O2256   1.307   .     A
C2179  O2253   1.293   .     A
C2180  O2295   1.223   .     D
C2180  O2296   1.399   .     S
C2181  O2297   1.222   .     D
C2181  O2298   1.395   .     S
C2182  O2300   1.399   .     S
C2182  O2299   1.223   .     D
C2183  O2254   1.306   .     A
C2183  O2255   1.303   .     A
C2184  O2257   1.381   .     S
C2184  N2246   1.367   .     S
Cu2185 Cu2186  2.705   .     S
Cu2185 O2249   1.975   .     S
Cu2185 O2301   1.981   .     S
Cu2185 N2245   2.033   .     S
Cu2186 O2302   1.973   .     S
Cu2186 O2282   1.971   .     S
Cu2186 N2246   2.033   .     S
Cu2187 N2247   2.033   .     S
Cu2187 Cu2188  2.705   .     S
Cu2187 O2254   1.981   .     S
Cu2187 O2251   1.971   .     S
Cu2188 N2248   2.033   .     S
Cu2188 O2250   1.975   .     S
Cu2188 O2255   1.973   .     S
H2191  C1960   1.100   1_655 S
H2192  C1960   1.104   1_655 S
H2204  C622    1.106   1_556 S
H2211  C613    1.106   1_556 S
H2224  O2267   1.014   .     S
H2225  O2269   1.013   .     S
H2226  O2272   1.014   .     S
H2227  O2274   1.013   .     S
H2228  O2276   1.013   .     S
H2229  O2278   1.013   .     S
H2230  O2280   1.014   .     S
H2231  O2283   1.013   .     S
H2232  O2285   1.014   .     S
H2234  O2287   1.013   .     S
H2235  O2289   1.014   .     S
H2237  O2294   1.013   .     S
H2238  O2296   1.013   .     S
H2239  O2298   1.014   .     S
O2252  Cu1804  1.971   1_565 S
O2253  Cu1804  1.981   1_565 S
O2256  Cu1803  1.973   1_565 S
O2260  Cu1994  1.975   1_655 S
O2271  Cu1993  1.971   1_655 S
O2291  H1852   1.013   1_565 S
O2293  Cu1994  1.981   1_655 S
O2300  H1856   1.013   1_565 S
O2303  Cu1993  1.973   1_655 S
O2304  Cu1803  1.975   1_565 S
