data_str_m2_o1_o10_pcu_sym.17
_audit_creation_date              2020-01-03
_audit_creation_method            'Materials Studio'
_symmetry_space_group_name_H-M    'P1'
_symmetry_Int_Tables_number       1
_symmetry_cell_setting            triclinic
loop_
_symmetry_equiv_pos_as_xyz
  x,y,z
_cell_length_a                    26.3953
_cell_length_b                    32.2904
_cell_length_c                    28.7034
_cell_angle_alpha                 89.6242
_cell_angle_beta                  97.4228
_cell_angle_gamma                 90.7369
loop_
_atom_site_label
_atom_site_type_symbol
_atom_site_fract_x
_atom_site_fract_y
_atom_site_fract_z
_atom_site_U_iso_or_equiv
_atom_site_adp_type
_atom_site_occupancy
C1     C     0.16697   0.08751   0.16680   0.00000  Uiso   1.00
C2     C     0.12453   0.02134   0.17906   0.00000  Uiso   1.00
C3     C     0.16604   0.29043   0.16635   0.00000  Uiso   1.00
C4     C     0.16730   0.04291   0.16698   0.00000  Uiso   1.00
C5     C     0.13458   0.14104   0.02147   0.00000  Uiso   1.00
C6     C     0.19875   0.19229   0.31186   0.00000  Uiso   1.00
C7     C     0.13448   0.14092   0.30542   0.00000  Uiso   1.00
C8     C     0.19885   0.19241   0.02792   0.00000  Uiso   1.00
C9     C     0.16636   0.24582   0.16654   0.00000  Uiso   1.00
C10    C     0.06820   0.16641   0.15493   0.00000  Uiso   1.00
C11    C     0.26514   0.16692   0.17840   0.00000  Uiso   1.00
C12    C     0.01366   0.16159   0.14911   0.00000  Uiso   1.00
C13    C     0.31967   0.17175   0.18422   0.00000  Uiso   1.00
C14    C     0.20960   0.02169   0.15450   0.00000  Uiso   1.00
C15    C     0.12374   0.31164   0.17883   0.00000  Uiso   1.00
C16    C     0.20881   0.31199   0.15427   0.00000  Uiso   1.00
Cl17   Cl    0.32107   0.13690   0.09595   0.00000  Uiso   1.00
Cl18   Cl    0.01226   0.19643   0.23739   0.00000  Uiso   1.00
Cl19   Cl    0.26461   0.04819   0.14081   0.00000  Uiso   1.00
Cl20   Cl    0.06872   0.28514   0.19253   0.00000  Uiso   1.00
Cl21   Cl    0.09198   0.10648   0.27280   0.00000  Uiso   1.00
Cl22   Cl    0.24136   0.22685   0.06053   0.00000  Uiso   1.00
Cu23   Cu    0.16667   0.16667   0.21355   0.00000  Uiso   1.00
Cu24   Cu    0.16667   0.16666   0.11978   0.00000  Uiso   1.00
F25    F     0.25018   0.29115   0.14365   0.00000  Uiso   1.00
F26    F     0.08315   0.04219   0.18968   0.00000  Uiso   1.00
F27    F     0.10246   0.11527   0.04140   0.00000  Uiso   1.00
F28    F     0.23087   0.21806   0.29194   0.00000  Uiso   1.00
N29    N     0.16668   0.16668   0.28403   0.00000  Uiso   1.00
N30    N     0.16665   0.16666   0.04931   0.00000  Uiso   1.00
O31    O     0.16666   0.10655   0.20625   0.00000  Uiso   1.00
O32    O     0.16667   0.22678   0.12709   0.00000  Uiso   1.00
O33    O     0.16666   0.10654   0.12706   0.00000  Uiso   1.00
O34    O     0.16667   0.22679   0.20628   0.00000  Uiso   1.00
O35    O     0.09161   0.16667   0.19712   0.00000  Uiso   1.00
O36    O     0.24172   0.16666   0.13621   0.00000  Uiso   1.00
O37    O     0.09161   0.16666   0.11793   0.00000  Uiso   1.00
O38    O     0.24172   0.16667   0.21540   0.00000  Uiso   1.00
C39    C     0.50030   0.08751   0.16680   0.00000  Uiso   1.00
C40    C     0.45786   0.02134   0.17906   0.00000  Uiso   1.00
C41    C     0.49937   0.29043   0.16635   0.00000  Uiso   1.00
C42    C     0.50063   0.04291   0.16698   0.00000  Uiso   1.00
C43    C     0.46791   0.14104   0.02147   0.00000  Uiso   1.00
C44    C     0.53209   0.19229   0.31186   0.00000  Uiso   1.00
C45    C     0.46781   0.14092   0.30542   0.00000  Uiso   1.00
C46    C     0.53219   0.19241   0.02792   0.00000  Uiso   1.00
C47    C     0.49970   0.24582   0.16654   0.00000  Uiso   1.00
C48    C     0.40153   0.16641   0.15493   0.00000  Uiso   1.00
C49    C     0.59847   0.16692   0.17840   0.00000  Uiso   1.00
C50    C     0.34699   0.16159   0.14911   0.00000  Uiso   1.00
C51    C     0.65301   0.17175   0.18422   0.00000  Uiso   1.00
C52    C     0.54293   0.02169   0.15450   0.00000  Uiso   1.00
C53    C     0.45707   0.31164   0.17883   0.00000  Uiso   1.00
C54    C     0.54214   0.31199   0.15427   0.00000  Uiso   1.00
Cl55   Cl    0.65440   0.13690   0.09595   0.00000  Uiso   1.00
Cl56   Cl    0.34560   0.19643   0.23739   0.00000  Uiso   1.00
Cl57   Cl    0.59794   0.04819   0.14081   0.00000  Uiso   1.00
Cl58   Cl    0.40206   0.28514   0.19253   0.00000  Uiso   1.00
Cl59   Cl    0.42531   0.10648   0.27280   0.00000  Uiso   1.00
Cl60   Cl    0.57469   0.22685   0.06053   0.00000  Uiso   1.00
Cu61   Cu    0.50000   0.16667   0.21355   0.00000  Uiso   1.00
Cu62   Cu    0.50000   0.16666   0.11978   0.00000  Uiso   1.00
F63    F     0.58351   0.29115   0.14365   0.00000  Uiso   1.00
F64    F     0.41649   0.04219   0.18968   0.00000  Uiso   1.00
F65    F     0.43579   0.11527   0.04140   0.00000  Uiso   1.00
F66    F     0.56421   0.21806   0.29194   0.00000  Uiso   1.00
N67    N     0.50001   0.16668   0.28403   0.00000  Uiso   1.00
N68    N     0.49999   0.16666   0.04931   0.00000  Uiso   1.00
O69    O     0.50000   0.10655   0.20625   0.00000  Uiso   1.00
O70    O     0.50000   0.22678   0.12709   0.00000  Uiso   1.00
O71    O     0.50000   0.10654   0.12706   0.00000  Uiso   1.00
O72    O     0.50000   0.22679   0.20628   0.00000  Uiso   1.00
O73    O     0.42495   0.16667   0.19712   0.00000  Uiso   1.00
O74    O     0.57505   0.16666   0.13621   0.00000  Uiso   1.00
O75    O     0.42494   0.16666   0.11793   0.00000  Uiso   1.00
O76    O     0.57506   0.16667   0.21540   0.00000  Uiso   1.00
C77    C     0.83364   0.08751   0.16680   0.00000  Uiso   1.00
C78    C     0.79119   0.02134   0.17906   0.00000  Uiso   1.00
C79    C     0.83270   0.29043   0.16635   0.00000  Uiso   1.00
C80    C     0.83396   0.04291   0.16698   0.00000  Uiso   1.00
C81    C     0.80125   0.14104   0.02147   0.00000  Uiso   1.00
C82    C     0.86542   0.19229   0.31186   0.00000  Uiso   1.00
C83    C     0.80115   0.14092   0.30542   0.00000  Uiso   1.00
C84    C     0.86552   0.19241   0.02792   0.00000  Uiso   1.00
C85    C     0.83303   0.24582   0.16654   0.00000  Uiso   1.00
C86    C     0.73486   0.16641   0.15493   0.00000  Uiso   1.00
C87    C     0.93180   0.16692   0.17840   0.00000  Uiso   1.00
C88    C     0.68032   0.16159   0.14911   0.00000  Uiso   1.00
C89    C     0.98634   0.17175   0.18422   0.00000  Uiso   1.00
C90    C     0.87626   0.02169   0.15450   0.00000  Uiso   1.00
C91    C     0.79040   0.31164   0.17883   0.00000  Uiso   1.00
C92    C     0.87547   0.31199   0.15427   0.00000  Uiso   1.00
Cl93   Cl    0.98774   0.13690   0.09595   0.00000  Uiso   1.00
Cl94   Cl    0.67893   0.19643   0.23739   0.00000  Uiso   1.00
Cl95   Cl    0.93128   0.04819   0.14081   0.00000  Uiso   1.00
Cl96   Cl    0.73539   0.28514   0.19253   0.00000  Uiso   1.00
Cl97   Cl    0.75864   0.10648   0.27280   0.00000  Uiso   1.00
Cl98   Cl    0.90802   0.22685   0.06053   0.00000  Uiso   1.00
Cu99   Cu    0.83333   0.16667   0.21355   0.00000  Uiso   1.00
Cu100  Cu    0.83333   0.16666   0.11978   0.00000  Uiso   1.00
F101   F     0.91685   0.29115   0.14365   0.00000  Uiso   1.00
F102   F     0.74982   0.04219   0.18968   0.00000  Uiso   1.00
F103   F     0.76913   0.11527   0.04140   0.00000  Uiso   1.00
F104   F     0.89754   0.21806   0.29194   0.00000  Uiso   1.00
N105   N     0.83335   0.16668   0.28403   0.00000  Uiso   1.00
N106   N     0.83332   0.16666   0.04931   0.00000  Uiso   1.00
O107   O     0.83333   0.10655   0.20625   0.00000  Uiso   1.00
O108   O     0.83334   0.22678   0.12709   0.00000  Uiso   1.00
O109   O     0.83333   0.10654   0.12706   0.00000  Uiso   1.00
O110   O     0.83334   0.22679   0.20628   0.00000  Uiso   1.00
O111   O     0.75828   0.16667   0.19712   0.00000  Uiso   1.00
O112   O     0.90839   0.16666   0.13621   0.00000  Uiso   1.00
O113   O     0.75828   0.16666   0.11793   0.00000  Uiso   1.00
O114   O     0.90839   0.16667   0.21540   0.00000  Uiso   1.00
C115   C     0.16697   0.42085   0.16680   0.00000  Uiso   1.00
C116   C     0.12453   0.35467   0.17906   0.00000  Uiso   1.00
C117   C     0.16604   0.62376   0.16635   0.00000  Uiso   1.00
C118   C     0.16730   0.37624   0.16698   0.00000  Uiso   1.00
C119   C     0.13458   0.47437   0.02147   0.00000  Uiso   1.00
C120   C     0.19875   0.52563   0.31186   0.00000  Uiso   1.00
C121   C     0.13448   0.47425   0.30542   0.00000  Uiso   1.00
C122   C     0.19885   0.52575   0.02792   0.00000  Uiso   1.00
C123   C     0.16636   0.57915   0.16654   0.00000  Uiso   1.00
C124   C     0.06820   0.49975   0.15493   0.00000  Uiso   1.00
C125   C     0.26514   0.50025   0.17840   0.00000  Uiso   1.00
C126   C     0.01366   0.49492   0.14911   0.00000  Uiso   1.00
C127   C     0.31967   0.50508   0.18422   0.00000  Uiso   1.00
C128   C     0.20960   0.35503   0.15450   0.00000  Uiso   1.00
C129   C     0.12374   0.64497   0.17883   0.00000  Uiso   1.00
C130   C     0.20881   0.64533   0.15427   0.00000  Uiso   1.00
Cl131  Cl    0.32107   0.47023   0.09595   0.00000  Uiso   1.00
Cl132  Cl    0.01226   0.52977   0.23739   0.00000  Uiso   1.00
Cl133  Cl    0.26461   0.38153   0.14081   0.00000  Uiso   1.00
Cl134  Cl    0.06872   0.61847   0.19253   0.00000  Uiso   1.00
Cl135  Cl    0.09198   0.43982   0.27280   0.00000  Uiso   1.00
Cl136  Cl    0.24136   0.56018   0.06053   0.00000  Uiso   1.00
Cu137  Cu    0.16667   0.50001   0.21355   0.00000  Uiso   1.00
Cu138  Cu    0.16667   0.49999   0.11978   0.00000  Uiso   1.00
F139   F     0.25018   0.62448   0.14365   0.00000  Uiso   1.00
F140   F     0.08315   0.37552   0.18968   0.00000  Uiso   1.00
F141   F     0.10246   0.44861   0.04140   0.00000  Uiso   1.00
F142   F     0.23087   0.55139   0.29194   0.00000  Uiso   1.00
N143   N     0.16668   0.50001   0.28403   0.00000  Uiso   1.00
N144   N     0.16665   0.49999   0.04931   0.00000  Uiso   1.00
O145   O     0.16666   0.43989   0.20625   0.00000  Uiso   1.00
O146   O     0.16667   0.56011   0.12709   0.00000  Uiso   1.00
O147   O     0.16666   0.43988   0.12706   0.00000  Uiso   1.00
O148   O     0.16667   0.56012   0.20628   0.00000  Uiso   1.00
O149   O     0.09161   0.50000   0.19712   0.00000  Uiso   1.00
O150   O     0.24172   0.50000   0.13621   0.00000  Uiso   1.00
O151   O     0.09161   0.49999   0.11793   0.00000  Uiso   1.00
O152   O     0.24172   0.50001   0.21540   0.00000  Uiso   1.00
C153   C     0.50030   0.42085   0.16680   0.00000  Uiso   1.00
C154   C     0.45786   0.35467   0.17906   0.00000  Uiso   1.00
C155   C     0.49937   0.62376   0.16635   0.00000  Uiso   1.00
C156   C     0.50063   0.37624   0.16698   0.00000  Uiso   1.00
C157   C     0.46791   0.47437   0.02147   0.00000  Uiso   1.00
C158   C     0.53209   0.52563   0.31186   0.00000  Uiso   1.00
C159   C     0.46781   0.47425   0.30542   0.00000  Uiso   1.00
C160   C     0.53219   0.52575   0.02792   0.00000  Uiso   1.00
C161   C     0.49970   0.57915   0.16654   0.00000  Uiso   1.00
C162   C     0.40153   0.49975   0.15493   0.00000  Uiso   1.00
C163   C     0.59847   0.50025   0.17840   0.00000  Uiso   1.00
C164   C     0.34699   0.49492   0.14911   0.00000  Uiso   1.00
C165   C     0.65301   0.50508   0.18422   0.00000  Uiso   1.00
C166   C     0.54293   0.35503   0.15450   0.00000  Uiso   1.00
C167   C     0.45707   0.64497   0.17883   0.00000  Uiso   1.00
C168   C     0.54214   0.64533   0.15427   0.00000  Uiso   1.00
Cl169  Cl    0.65440   0.47023   0.09595   0.00000  Uiso   1.00
Cl170  Cl    0.34560   0.52977   0.23739   0.00000  Uiso   1.00
Cl171  Cl    0.59794   0.38153   0.14081   0.00000  Uiso   1.00
Cl172  Cl    0.40206   0.61847   0.19253   0.00000  Uiso   1.00
Cl173  Cl    0.42531   0.43982   0.27280   0.00000  Uiso   1.00
Cl174  Cl    0.57469   0.56018   0.06053   0.00000  Uiso   1.00
Cu175  Cu    0.50000   0.50001   0.21355   0.00000  Uiso   1.00
Cu176  Cu    0.50000   0.49999   0.11978   0.00000  Uiso   1.00
F177   F     0.58351   0.62448   0.14365   0.00000  Uiso   1.00
F178   F     0.41649   0.37552   0.18968   0.00000  Uiso   1.00
F179   F     0.43579   0.44861   0.04140   0.00000  Uiso   1.00
F180   F     0.56421   0.55139   0.29194   0.00000  Uiso   1.00
N181   N     0.50001   0.50001   0.28403   0.00000  Uiso   1.00
N182   N     0.49999   0.49999   0.04931   0.00000  Uiso   1.00
O183   O     0.50000   0.43989   0.20625   0.00000  Uiso   1.00
O184   O     0.50000   0.56011   0.12709   0.00000  Uiso   1.00
O185   O     0.50000   0.43988   0.12706   0.00000  Uiso   1.00
O186   O     0.50000   0.56012   0.20628   0.00000  Uiso   1.00
O187   O     0.42495   0.50000   0.19712   0.00000  Uiso   1.00
O188   O     0.57505   0.50000   0.13621   0.00000  Uiso   1.00
O189   O     0.42494   0.49999   0.11793   0.00000  Uiso   1.00
O190   O     0.57506   0.50001   0.21540   0.00000  Uiso   1.00
C191   C     0.83364   0.42085   0.16680   0.00000  Uiso   1.00
C192   C     0.79119   0.35467   0.17906   0.00000  Uiso   1.00
C193   C     0.83270   0.62376   0.16635   0.00000  Uiso   1.00
C194   C     0.83396   0.37624   0.16698   0.00000  Uiso   1.00
C195   C     0.80125   0.47437   0.02147   0.00000  Uiso   1.00
C196   C     0.86542   0.52563   0.31186   0.00000  Uiso   1.00
C197   C     0.80115   0.47425   0.30542   0.00000  Uiso   1.00
C198   C     0.86552   0.52575   0.02792   0.00000  Uiso   1.00
C199   C     0.83303   0.57915   0.16654   0.00000  Uiso   1.00
C200   C     0.73486   0.49975   0.15493   0.00000  Uiso   1.00
C201   C     0.93180   0.50025   0.17840   0.00000  Uiso   1.00
C202   C     0.68032   0.49492   0.14911   0.00000  Uiso   1.00
C203   C     0.98634   0.50508   0.18422   0.00000  Uiso   1.00
C204   C     0.87626   0.35503   0.15450   0.00000  Uiso   1.00
C205   C     0.79040   0.64497   0.17883   0.00000  Uiso   1.00
C206   C     0.87547   0.64533   0.15427   0.00000  Uiso   1.00
Cl207  Cl    0.98774   0.47023   0.09595   0.00000  Uiso   1.00
Cl208  Cl    0.67893   0.52977   0.23739   0.00000  Uiso   1.00
Cl209  Cl    0.93128   0.38153   0.14081   0.00000  Uiso   1.00
Cl210  Cl    0.73539   0.61847   0.19253   0.00000  Uiso   1.00
Cl211  Cl    0.75864   0.43982   0.27280   0.00000  Uiso   1.00
Cl212  Cl    0.90802   0.56018   0.06053   0.00000  Uiso   1.00
Cu213  Cu    0.83333   0.50001   0.21355   0.00000  Uiso   1.00
Cu214  Cu    0.83333   0.49999   0.11978   0.00000  Uiso   1.00
F215   F     0.91685   0.62448   0.14365   0.00000  Uiso   1.00
F216   F     0.74982   0.37552   0.18968   0.00000  Uiso   1.00
F217   F     0.76913   0.44861   0.04140   0.00000  Uiso   1.00
F218   F     0.89754   0.55139   0.29194   0.00000  Uiso   1.00
N219   N     0.83335   0.50001   0.28403   0.00000  Uiso   1.00
N220   N     0.83332   0.49999   0.04931   0.00000  Uiso   1.00
O221   O     0.83333   0.43989   0.20625   0.00000  Uiso   1.00
O222   O     0.83334   0.56011   0.12709   0.00000  Uiso   1.00
O223   O     0.83333   0.43988   0.12706   0.00000  Uiso   1.00
O224   O     0.83334   0.56012   0.20628   0.00000  Uiso   1.00
O225   O     0.75828   0.50000   0.19712   0.00000  Uiso   1.00
O226   O     0.90839   0.50000   0.13621   0.00000  Uiso   1.00
O227   O     0.75828   0.49999   0.11793   0.00000  Uiso   1.00
O228   O     0.90839   0.50001   0.21540   0.00000  Uiso   1.00
C229   C     0.16697   0.75418   0.16680   0.00000  Uiso   1.00
C230   C     0.12453   0.68801   0.17906   0.00000  Uiso   1.00
C231   C     0.16604   0.95709   0.16635   0.00000  Uiso   1.00
C232   C     0.16730   0.70957   0.16698   0.00000  Uiso   1.00
C233   C     0.13458   0.80771   0.02147   0.00000  Uiso   1.00
C234   C     0.19875   0.85896   0.31186   0.00000  Uiso   1.00
C235   C     0.13448   0.80759   0.30542   0.00000  Uiso   1.00
C236   C     0.19885   0.85908   0.02792   0.00000  Uiso   1.00
C237   C     0.16636   0.91249   0.16654   0.00000  Uiso   1.00
C238   C     0.06820   0.83308   0.15493   0.00000  Uiso   1.00
C239   C     0.26514   0.83359   0.17840   0.00000  Uiso   1.00
C240   C     0.01366   0.82825   0.14911   0.00000  Uiso   1.00
C241   C     0.31967   0.83841   0.18422   0.00000  Uiso   1.00
C242   C     0.20960   0.68836   0.15450   0.00000  Uiso   1.00
C243   C     0.12374   0.97831   0.17883   0.00000  Uiso   1.00
C244   C     0.20881   0.97866   0.15427   0.00000  Uiso   1.00
Cl245  Cl    0.32107   0.80357   0.09595   0.00000  Uiso   1.00
Cl246  Cl    0.01226   0.86310   0.23739   0.00000  Uiso   1.00
Cl247  Cl    0.26461   0.71486   0.14081   0.00000  Uiso   1.00
Cl248  Cl    0.06872   0.95181   0.19253   0.00000  Uiso   1.00
Cl249  Cl    0.09198   0.77315   0.27280   0.00000  Uiso   1.00
Cl250  Cl    0.24136   0.89352   0.06053   0.00000  Uiso   1.00
Cu251  Cu    0.16667   0.83334   0.21355   0.00000  Uiso   1.00
Cu252  Cu    0.16667   0.83333   0.11978   0.00000  Uiso   1.00
F253   F     0.25018   0.95781   0.14365   0.00000  Uiso   1.00
F254   F     0.08315   0.70885   0.18968   0.00000  Uiso   1.00
F255   F     0.10246   0.78194   0.04140   0.00000  Uiso   1.00
F256   F     0.23087   0.88473   0.29194   0.00000  Uiso   1.00
N257   N     0.16668   0.83334   0.28403   0.00000  Uiso   1.00
N258   N     0.16665   0.83332   0.04931   0.00000  Uiso   1.00
O259   O     0.16666   0.77322   0.20625   0.00000  Uiso   1.00
O260   O     0.16667   0.89345   0.12709   0.00000  Uiso   1.00
O261   O     0.16666   0.77321   0.12706   0.00000  Uiso   1.00
O262   O     0.16667   0.89346   0.20628   0.00000  Uiso   1.00
O263   O     0.09161   0.83334   0.19712   0.00000  Uiso   1.00
O264   O     0.24172   0.83333   0.13621   0.00000  Uiso   1.00
O265   O     0.09161   0.83333   0.11793   0.00000  Uiso   1.00
O266   O     0.24172   0.83334   0.21540   0.00000  Uiso   1.00
C267   C     0.50030   0.75418   0.16680   0.00000  Uiso   1.00
C268   C     0.45786   0.68801   0.17906   0.00000  Uiso   1.00
C269   C     0.49937   0.95709   0.16635   0.00000  Uiso   1.00
C270   C     0.50063   0.70957   0.16698   0.00000  Uiso   1.00
C271   C     0.46791   0.80771   0.02147   0.00000  Uiso   1.00
C272   C     0.53209   0.85896   0.31186   0.00000  Uiso   1.00
C273   C     0.46781   0.80759   0.30542   0.00000  Uiso   1.00
C274   C     0.53219   0.85908   0.02792   0.00000  Uiso   1.00
C275   C     0.49970   0.91249   0.16654   0.00000  Uiso   1.00
C276   C     0.40153   0.83308   0.15493   0.00000  Uiso   1.00
C277   C     0.59847   0.83359   0.17840   0.00000  Uiso   1.00
C278   C     0.34699   0.82825   0.14911   0.00000  Uiso   1.00
C279   C     0.65301   0.83841   0.18422   0.00000  Uiso   1.00
C280   C     0.54293   0.68836   0.15450   0.00000  Uiso   1.00
C281   C     0.45707   0.97831   0.17883   0.00000  Uiso   1.00
C282   C     0.54214   0.97866   0.15427   0.00000  Uiso   1.00
Cl283  Cl    0.65440   0.80357   0.09595   0.00000  Uiso   1.00
Cl284  Cl    0.34560   0.86310   0.23739   0.00000  Uiso   1.00
Cl285  Cl    0.59794   0.71486   0.14081   0.00000  Uiso   1.00
Cl286  Cl    0.40206   0.95181   0.19253   0.00000  Uiso   1.00
Cl287  Cl    0.42531   0.77315   0.27280   0.00000  Uiso   1.00
Cl288  Cl    0.57469   0.89352   0.06053   0.00000  Uiso   1.00
Cu289  Cu    0.50000   0.83334   0.21355   0.00000  Uiso   1.00
Cu290  Cu    0.50000   0.83333   0.11978   0.00000  Uiso   1.00
F291   F     0.58351   0.95781   0.14365   0.00000  Uiso   1.00
F292   F     0.41649   0.70885   0.18968   0.00000  Uiso   1.00
F293   F     0.43579   0.78194   0.04140   0.00000  Uiso   1.00
F294   F     0.56421   0.88473   0.29194   0.00000  Uiso   1.00
N295   N     0.50001   0.83334   0.28403   0.00000  Uiso   1.00
N296   N     0.49999   0.83332   0.04931   0.00000  Uiso   1.00
O297   O     0.50000   0.77322   0.20625   0.00000  Uiso   1.00
O298   O     0.50000   0.89345   0.12709   0.00000  Uiso   1.00
O299   O     0.50000   0.77321   0.12706   0.00000  Uiso   1.00
O300   O     0.50000   0.89346   0.20628   0.00000  Uiso   1.00
O301   O     0.42495   0.83334   0.19712   0.00000  Uiso   1.00
O302   O     0.57505   0.83333   0.13621   0.00000  Uiso   1.00
O303   O     0.42494   0.83333   0.11793   0.00000  Uiso   1.00
O304   O     0.57506   0.83334   0.21540   0.00000  Uiso   1.00
C305   C     0.83364   0.75418   0.16680   0.00000  Uiso   1.00
C306   C     0.79119   0.68801   0.17906   0.00000  Uiso   1.00
C307   C     0.83270   0.95709   0.16635   0.00000  Uiso   1.00
C308   C     0.83396   0.70957   0.16698   0.00000  Uiso   1.00
C309   C     0.80125   0.80771   0.02147   0.00000  Uiso   1.00
C310   C     0.86542   0.85896   0.31186   0.00000  Uiso   1.00
C311   C     0.80115   0.80759   0.30542   0.00000  Uiso   1.00
C312   C     0.86552   0.85908   0.02792   0.00000  Uiso   1.00
C313   C     0.83303   0.91249   0.16654   0.00000  Uiso   1.00
C314   C     0.73486   0.83308   0.15493   0.00000  Uiso   1.00
C315   C     0.93180   0.83359   0.17840   0.00000  Uiso   1.00
C316   C     0.68032   0.82825   0.14911   0.00000  Uiso   1.00
C317   C     0.98634   0.83841   0.18422   0.00000  Uiso   1.00
C318   C     0.87626   0.68836   0.15450   0.00000  Uiso   1.00
C319   C     0.79040   0.97831   0.17883   0.00000  Uiso   1.00
C320   C     0.87547   0.97866   0.15427   0.00000  Uiso   1.00
Cl321  Cl    0.98774   0.80357   0.09595   0.00000  Uiso   1.00
Cl322  Cl    0.67893   0.86310   0.23739   0.00000  Uiso   1.00
Cl323  Cl    0.93128   0.71486   0.14081   0.00000  Uiso   1.00
Cl324  Cl    0.73539   0.95181   0.19253   0.00000  Uiso   1.00
Cl325  Cl    0.75864   0.77315   0.27280   0.00000  Uiso   1.00
Cl326  Cl    0.90802   0.89352   0.06053   0.00000  Uiso   1.00
Cu327  Cu    0.83333   0.83334   0.21355   0.00000  Uiso   1.00
Cu328  Cu    0.83333   0.83333   0.11978   0.00000  Uiso   1.00
F329   F     0.91685   0.95781   0.14365   0.00000  Uiso   1.00
F330   F     0.74982   0.70885   0.18968   0.00000  Uiso   1.00
F331   F     0.76913   0.78194   0.04140   0.00000  Uiso   1.00
F332   F     0.89754   0.88473   0.29194   0.00000  Uiso   1.00
N333   N     0.83335   0.83334   0.28403   0.00000  Uiso   1.00
N334   N     0.83332   0.83332   0.04931   0.00000  Uiso   1.00
O335   O     0.83333   0.77322   0.20625   0.00000  Uiso   1.00
O336   O     0.83334   0.89345   0.12709   0.00000  Uiso   1.00
O337   O     0.83333   0.77321   0.12706   0.00000  Uiso   1.00
O338   O     0.83334   0.89346   0.20628   0.00000  Uiso   1.00
O339   O     0.75828   0.83334   0.19712   0.00000  Uiso   1.00
O340   O     0.90839   0.83333   0.13621   0.00000  Uiso   1.00
O341   O     0.75828   0.83333   0.11793   0.00000  Uiso   1.00
O342   O     0.90839   0.83334   0.21540   0.00000  Uiso   1.00
C343   C     0.16697   0.08751   0.50013   0.00000  Uiso   1.00
C344   C     0.12453   0.02134   0.51240   0.00000  Uiso   1.00
C345   C     0.16604   0.29043   0.49968   0.00000  Uiso   1.00
C346   C     0.16730   0.04291   0.50032   0.00000  Uiso   1.00
C347   C     0.13458   0.14104   0.35480   0.00000  Uiso   1.00
C348   C     0.19875   0.19229   0.64519   0.00000  Uiso   1.00
C349   C     0.13448   0.14092   0.63875   0.00000  Uiso   1.00
C350   C     0.19885   0.19241   0.36125   0.00000  Uiso   1.00
C351   C     0.16636   0.24582   0.49987   0.00000  Uiso   1.00
C352   C     0.06820   0.16641   0.48827   0.00000  Uiso   1.00
C353   C     0.26514   0.16692   0.51173   0.00000  Uiso   1.00
C354   C     0.01366   0.16159   0.48245   0.00000  Uiso   1.00
C355   C     0.31967   0.17175   0.51755   0.00000  Uiso   1.00
C356   C     0.20960   0.02169   0.48784   0.00000  Uiso   1.00
C357   C     0.12374   0.31164   0.51216   0.00000  Uiso   1.00
C358   C     0.20881   0.31199   0.48760   0.00000  Uiso   1.00
Cl359  Cl    0.32107   0.13690   0.42928   0.00000  Uiso   1.00
Cl360  Cl    0.01226   0.19643   0.57072   0.00000  Uiso   1.00
Cl361  Cl    0.26461   0.04819   0.47414   0.00000  Uiso   1.00
Cl362  Cl    0.06872   0.28514   0.52586   0.00000  Uiso   1.00
Cl363  Cl    0.09198   0.10648   0.60613   0.00000  Uiso   1.00
Cl364  Cl    0.24136   0.22685   0.39387   0.00000  Uiso   1.00
Cu365  Cu    0.16667   0.16667   0.54689   0.00000  Uiso   1.00
Cu366  Cu    0.16667   0.16666   0.45311   0.00000  Uiso   1.00
F367   F     0.25018   0.29115   0.47699   0.00000  Uiso   1.00
F368   F     0.08315   0.04219   0.52301   0.00000  Uiso   1.00
F369   F     0.10246   0.11527   0.37473   0.00000  Uiso   1.00
F370   F     0.23087   0.21806   0.62527   0.00000  Uiso   1.00
N371   N     0.16668   0.16668   0.61736   0.00000  Uiso   1.00
N372   N     0.16665   0.16666   0.38264   0.00000  Uiso   1.00
O373   O     0.16666   0.10655   0.53958   0.00000  Uiso   1.00
O374   O     0.16667   0.22678   0.46042   0.00000  Uiso   1.00
O375   O     0.16666   0.10654   0.46039   0.00000  Uiso   1.00
O376   O     0.16667   0.22679   0.53961   0.00000  Uiso   1.00
O377   O     0.09161   0.16667   0.53046   0.00000  Uiso   1.00
O378   O     0.24172   0.16666   0.46954   0.00000  Uiso   1.00
O379   O     0.09161   0.16666   0.45127   0.00000  Uiso   1.00
O380   O     0.24172   0.16667   0.54873   0.00000  Uiso   1.00
C381   C     0.50030   0.08751   0.50013   0.00000  Uiso   1.00
C382   C     0.45786   0.02134   0.51240   0.00000  Uiso   1.00
C383   C     0.49937   0.29043   0.49968   0.00000  Uiso   1.00
C384   C     0.50063   0.04291   0.50032   0.00000  Uiso   1.00
C385   C     0.46791   0.14104   0.35480   0.00000  Uiso   1.00
C386   C     0.53209   0.19229   0.64519   0.00000  Uiso   1.00
C387   C     0.46781   0.14092   0.63875   0.00000  Uiso   1.00
C388   C     0.53219   0.19241   0.36125   0.00000  Uiso   1.00
C389   C     0.49970   0.24582   0.49987   0.00000  Uiso   1.00
C390   C     0.40153   0.16641   0.48827   0.00000  Uiso   1.00
C391   C     0.59847   0.16692   0.51173   0.00000  Uiso   1.00
C392   C     0.34699   0.16159   0.48245   0.00000  Uiso   1.00
C393   C     0.65301   0.17175   0.51755   0.00000  Uiso   1.00
C394   C     0.54293   0.02169   0.48784   0.00000  Uiso   1.00
C395   C     0.45707   0.31164   0.51216   0.00000  Uiso   1.00
C396   C     0.54214   0.31199   0.48760   0.00000  Uiso   1.00
Cl397  Cl    0.65440   0.13690   0.42928   0.00000  Uiso   1.00
Cl398  Cl    0.34560   0.19643   0.57072   0.00000  Uiso   1.00
Cl399  Cl    0.59794   0.04819   0.47414   0.00000  Uiso   1.00
Cl400  Cl    0.40206   0.28514   0.52586   0.00000  Uiso   1.00
Cl401  Cl    0.42531   0.10648   0.60613   0.00000  Uiso   1.00
Cl402  Cl    0.57469   0.22685   0.39387   0.00000  Uiso   1.00
Cu403  Cu    0.50000   0.16667   0.54689   0.00000  Uiso   1.00
Cu404  Cu    0.50000   0.16666   0.45311   0.00000  Uiso   1.00
F405   F     0.58351   0.29115   0.47699   0.00000  Uiso   1.00
F406   F     0.41649   0.04219   0.52301   0.00000  Uiso   1.00
F407   F     0.43579   0.11527   0.37473   0.00000  Uiso   1.00
F408   F     0.56421   0.21806   0.62527   0.00000  Uiso   1.00
N409   N     0.50001   0.16668   0.61736   0.00000  Uiso   1.00
N410   N     0.49999   0.16666   0.38264   0.00000  Uiso   1.00
O411   O     0.50000   0.10655   0.53958   0.00000  Uiso   1.00
O412   O     0.50000   0.22678   0.46042   0.00000  Uiso   1.00
O413   O     0.50000   0.10654   0.46039   0.00000  Uiso   1.00
O414   O     0.50000   0.22679   0.53961   0.00000  Uiso   1.00
O415   O     0.42495   0.16667   0.53046   0.00000  Uiso   1.00
O416   O     0.57505   0.16666   0.46954   0.00000  Uiso   1.00
O417   O     0.42494   0.16666   0.45127   0.00000  Uiso   1.00
O418   O     0.57506   0.16667   0.54873   0.00000  Uiso   1.00
C419   C     0.83364   0.08751   0.50013   0.00000  Uiso   1.00
C420   C     0.79119   0.02134   0.51240   0.00000  Uiso   1.00
C421   C     0.83270   0.29043   0.49968   0.00000  Uiso   1.00
C422   C     0.83396   0.04291   0.50032   0.00000  Uiso   1.00
C423   C     0.80125   0.14104   0.35480   0.00000  Uiso   1.00
C424   C     0.86542   0.19229   0.64519   0.00000  Uiso   1.00
C425   C     0.80115   0.14092   0.63875   0.00000  Uiso   1.00
C426   C     0.86552   0.19241   0.36125   0.00000  Uiso   1.00
C427   C     0.83303   0.24582   0.49987   0.00000  Uiso   1.00
C428   C     0.73486   0.16641   0.48827   0.00000  Uiso   1.00
C429   C     0.93180   0.16692   0.51173   0.00000  Uiso   1.00
C430   C     0.68032   0.16159   0.48245   0.00000  Uiso   1.00
C431   C     0.98634   0.17175   0.51755   0.00000  Uiso   1.00
C432   C     0.87626   0.02169   0.48784   0.00000  Uiso   1.00
C433   C     0.79040   0.31164   0.51216   0.00000  Uiso   1.00
C434   C     0.87547   0.31199   0.48760   0.00000  Uiso   1.00
Cl435  Cl    0.98774   0.13690   0.42928   0.00000  Uiso   1.00
Cl436  Cl    0.67893   0.19643   0.57072   0.00000  Uiso   1.00
Cl437  Cl    0.93128   0.04819   0.47414   0.00000  Uiso   1.00
Cl438  Cl    0.73539   0.28514   0.52586   0.00000  Uiso   1.00
Cl439  Cl    0.75864   0.10648   0.60613   0.00000  Uiso   1.00
Cl440  Cl    0.90802   0.22685   0.39387   0.00000  Uiso   1.00
Cu441  Cu    0.83333   0.16667   0.54689   0.00000  Uiso   1.00
Cu442  Cu    0.83333   0.16666   0.45311   0.00000  Uiso   1.00
F443   F     0.91685   0.29115   0.47699   0.00000  Uiso   1.00
F444   F     0.74982   0.04219   0.52301   0.00000  Uiso   1.00
F445   F     0.76913   0.11527   0.37473   0.00000  Uiso   1.00
F446   F     0.89754   0.21806   0.62527   0.00000  Uiso   1.00
N447   N     0.83335   0.16668   0.61736   0.00000  Uiso   1.00
N448   N     0.83332   0.16666   0.38264   0.00000  Uiso   1.00
O449   O     0.83333   0.10655   0.53958   0.00000  Uiso   1.00
O450   O     0.83334   0.22678   0.46042   0.00000  Uiso   1.00
O451   O     0.83333   0.10654   0.46039   0.00000  Uiso   1.00
O452   O     0.83334   0.22679   0.53961   0.00000  Uiso   1.00
O453   O     0.75828   0.16667   0.53046   0.00000  Uiso   1.00
O454   O     0.90839   0.16666   0.46954   0.00000  Uiso   1.00
O455   O     0.75828   0.16666   0.45127   0.00000  Uiso   1.00
O456   O     0.90839   0.16667   0.54873   0.00000  Uiso   1.00
C457   C     0.16697   0.42085   0.50013   0.00000  Uiso   1.00
C458   C     0.12453   0.35467   0.51240   0.00000  Uiso   1.00
C459   C     0.16604   0.62376   0.49968   0.00000  Uiso   1.00
C460   C     0.16730   0.37624   0.50032   0.00000  Uiso   1.00
C461   C     0.13458   0.47437   0.35480   0.00000  Uiso   1.00
C462   C     0.19875   0.52563   0.64519   0.00000  Uiso   1.00
C463   C     0.13448   0.47425   0.63875   0.00000  Uiso   1.00
C464   C     0.19885   0.52575   0.36125   0.00000  Uiso   1.00
C465   C     0.16636   0.57915   0.49987   0.00000  Uiso   1.00
C466   C     0.06820   0.49975   0.48827   0.00000  Uiso   1.00
C467   C     0.26514   0.50025   0.51173   0.00000  Uiso   1.00
C468   C     0.01366   0.49492   0.48245   0.00000  Uiso   1.00
C469   C     0.31967   0.50508   0.51755   0.00000  Uiso   1.00
C470   C     0.20960   0.35503   0.48784   0.00000  Uiso   1.00
C471   C     0.12374   0.64497   0.51216   0.00000  Uiso   1.00
C472   C     0.20881   0.64533   0.48760   0.00000  Uiso   1.00
Cl473  Cl    0.32107   0.47023   0.42928   0.00000  Uiso   1.00
Cl474  Cl    0.01226   0.52977   0.57072   0.00000  Uiso   1.00
Cl475  Cl    0.26461   0.38153   0.47414   0.00000  Uiso   1.00
Cl476  Cl    0.06872   0.61847   0.52586   0.00000  Uiso   1.00
Cl477  Cl    0.09198   0.43982   0.60613   0.00000  Uiso   1.00
Cl478  Cl    0.24136   0.56018   0.39387   0.00000  Uiso   1.00
Cu479  Cu    0.16667   0.50001   0.54689   0.00000  Uiso   1.00
Cu480  Cu    0.16667   0.49999   0.45311   0.00000  Uiso   1.00
F481   F     0.25018   0.62448   0.47699   0.00000  Uiso   1.00
F482   F     0.08315   0.37552   0.52301   0.00000  Uiso   1.00
F483   F     0.10246   0.44861   0.37473   0.00000  Uiso   1.00
F484   F     0.23087   0.55139   0.62527   0.00000  Uiso   1.00
N485   N     0.16668   0.50001   0.61736   0.00000  Uiso   1.00
N486   N     0.16665   0.49999   0.38264   0.00000  Uiso   1.00
O487   O     0.16666   0.43989   0.53958   0.00000  Uiso   1.00
O488   O     0.16667   0.56011   0.46042   0.00000  Uiso   1.00
O489   O     0.16666   0.43988   0.46039   0.00000  Uiso   1.00
O490   O     0.16667   0.56012   0.53961   0.00000  Uiso   1.00
O491   O     0.09161   0.50000   0.53046   0.00000  Uiso   1.00
O492   O     0.24172   0.50000   0.46954   0.00000  Uiso   1.00
O493   O     0.09161   0.49999   0.45127   0.00000  Uiso   1.00
O494   O     0.24172   0.50001   0.54873   0.00000  Uiso   1.00
C495   C     0.50030   0.42085   0.50013   0.00000  Uiso   1.00
C496   C     0.45786   0.35467   0.51240   0.00000  Uiso   1.00
C497   C     0.49937   0.62376   0.49968   0.00000  Uiso   1.00
C498   C     0.50063   0.37624   0.50032   0.00000  Uiso   1.00
C499   C     0.46791   0.47437   0.35480   0.00000  Uiso   1.00
C500   C     0.53209   0.52563   0.64519   0.00000  Uiso   1.00
C501   C     0.46781   0.47425   0.63875   0.00000  Uiso   1.00
C502   C     0.53219   0.52575   0.36125   0.00000  Uiso   1.00
C503   C     0.49970   0.57915   0.49987   0.00000  Uiso   1.00
C504   C     0.40153   0.49975   0.48827   0.00000  Uiso   1.00
C505   C     0.59847   0.50025   0.51173   0.00000  Uiso   1.00
C506   C     0.34699   0.49492   0.48245   0.00000  Uiso   1.00
C507   C     0.65301   0.50508   0.51755   0.00000  Uiso   1.00
C508   C     0.54293   0.35503   0.48784   0.00000  Uiso   1.00
C509   C     0.45707   0.64497   0.51216   0.00000  Uiso   1.00
C510   C     0.54214   0.64533   0.48760   0.00000  Uiso   1.00
Cl511  Cl    0.65440   0.47023   0.42928   0.00000  Uiso   1.00
Cl512  Cl    0.34560   0.52977   0.57072   0.00000  Uiso   1.00
Cl513  Cl    0.59794   0.38153   0.47414   0.00000  Uiso   1.00
Cl514  Cl    0.40206   0.61847   0.52586   0.00000  Uiso   1.00
Cl515  Cl    0.42531   0.43982   0.60613   0.00000  Uiso   1.00
Cl516  Cl    0.57469   0.56018   0.39387   0.00000  Uiso   1.00
Cu517  Cu    0.50000   0.50001   0.54689   0.00000  Uiso   1.00
Cu518  Cu    0.50000   0.49999   0.45311   0.00000  Uiso   1.00
F519   F     0.58351   0.62448   0.47699   0.00000  Uiso   1.00
F520   F     0.41649   0.37552   0.52301   0.00000  Uiso   1.00
F521   F     0.43579   0.44861   0.37473   0.00000  Uiso   1.00
F522   F     0.56421   0.55139   0.62527   0.00000  Uiso   1.00
N523   N     0.50001   0.50001   0.61736   0.00000  Uiso   1.00
N524   N     0.49999   0.49999   0.38264   0.00000  Uiso   1.00
O525   O     0.50000   0.43989   0.53958   0.00000  Uiso   1.00
O526   O     0.50000   0.56011   0.46042   0.00000  Uiso   1.00
O527   O     0.50000   0.43988   0.46039   0.00000  Uiso   1.00
O528   O     0.50000   0.56012   0.53961   0.00000  Uiso   1.00
O529   O     0.42495   0.50000   0.53046   0.00000  Uiso   1.00
O530   O     0.57505   0.50000   0.46954   0.00000  Uiso   1.00
O531   O     0.42494   0.49999   0.45127   0.00000  Uiso   1.00
O532   O     0.57506   0.50001   0.54873   0.00000  Uiso   1.00
C533   C     0.83364   0.42085   0.50013   0.00000  Uiso   1.00
C534   C     0.79119   0.35467   0.51240   0.00000  Uiso   1.00
C535   C     0.83270   0.62376   0.49968   0.00000  Uiso   1.00
C536   C     0.83396   0.37624   0.50032   0.00000  Uiso   1.00
C537   C     0.80125   0.47437   0.35480   0.00000  Uiso   1.00
C538   C     0.86542   0.52563   0.64519   0.00000  Uiso   1.00
C539   C     0.80115   0.47425   0.63875   0.00000  Uiso   1.00
C540   C     0.86552   0.52575   0.36125   0.00000  Uiso   1.00
C541   C     0.83303   0.57915   0.49987   0.00000  Uiso   1.00
C542   C     0.73486   0.49975   0.48827   0.00000  Uiso   1.00
C543   C     0.93180   0.50025   0.51173   0.00000  Uiso   1.00
C544   C     0.68032   0.49492   0.48245   0.00000  Uiso   1.00
C545   C     0.98634   0.50508   0.51755   0.00000  Uiso   1.00
C546   C     0.87626   0.35503   0.48784   0.00000  Uiso   1.00
C547   C     0.79040   0.64497   0.51216   0.00000  Uiso   1.00
C548   C     0.87547   0.64533   0.48760   0.00000  Uiso   1.00
Cl549  Cl    0.98774   0.47023   0.42928   0.00000  Uiso   1.00
Cl550  Cl    0.67893   0.52977   0.57072   0.00000  Uiso   1.00
Cl551  Cl    0.93128   0.38153   0.47414   0.00000  Uiso   1.00
Cl552  Cl    0.73539   0.61847   0.52586   0.00000  Uiso   1.00
Cl553  Cl    0.75864   0.43982   0.60613   0.00000  Uiso   1.00
Cl554  Cl    0.90802   0.56018   0.39387   0.00000  Uiso   1.00
Cu555  Cu    0.83333   0.50001   0.54689   0.00000  Uiso   1.00
Cu556  Cu    0.83333   0.49999   0.45311   0.00000  Uiso   1.00
F557   F     0.91685   0.62448   0.47699   0.00000  Uiso   1.00
F558   F     0.74982   0.37552   0.52301   0.00000  Uiso   1.00
F559   F     0.76913   0.44861   0.37473   0.00000  Uiso   1.00
F560   F     0.89754   0.55139   0.62527   0.00000  Uiso   1.00
N561   N     0.83335   0.50001   0.61736   0.00000  Uiso   1.00
N562   N     0.83332   0.49999   0.38264   0.00000  Uiso   1.00
O563   O     0.83333   0.43989   0.53958   0.00000  Uiso   1.00
O564   O     0.83334   0.56011   0.46042   0.00000  Uiso   1.00
O565   O     0.83333   0.43988   0.46039   0.00000  Uiso   1.00
O566   O     0.83334   0.56012   0.53961   0.00000  Uiso   1.00
O567   O     0.75828   0.50000   0.53046   0.00000  Uiso   1.00
O568   O     0.90839   0.50000   0.46954   0.00000  Uiso   1.00
O569   O     0.75828   0.49999   0.45127   0.00000  Uiso   1.00
O570   O     0.90839   0.50001   0.54873   0.00000  Uiso   1.00
C571   C     0.16697   0.75418   0.50013   0.00000  Uiso   1.00
C572   C     0.12453   0.68801   0.51240   0.00000  Uiso   1.00
C573   C     0.16604   0.95709   0.49968   0.00000  Uiso   1.00
C574   C     0.16730   0.70957   0.50032   0.00000  Uiso   1.00
C575   C     0.13458   0.80771   0.35480   0.00000  Uiso   1.00
C576   C     0.19875   0.85896   0.64519   0.00000  Uiso   1.00
C577   C     0.13448   0.80759   0.63875   0.00000  Uiso   1.00
C578   C     0.19885   0.85908   0.36125   0.00000  Uiso   1.00
C579   C     0.16636   0.91249   0.49987   0.00000  Uiso   1.00
C580   C     0.06820   0.83308   0.48827   0.00000  Uiso   1.00
C581   C     0.26514   0.83359   0.51173   0.00000  Uiso   1.00
C582   C     0.01366   0.82825   0.48245   0.00000  Uiso   1.00
C583   C     0.31967   0.83841   0.51755   0.00000  Uiso   1.00
C584   C     0.20960   0.68836   0.48784   0.00000  Uiso   1.00
C585   C     0.12374   0.97831   0.51216   0.00000  Uiso   1.00
C586   C     0.20881   0.97866   0.48760   0.00000  Uiso   1.00
Cl587  Cl    0.32107   0.80357   0.42928   0.00000  Uiso   1.00
Cl588  Cl    0.01226   0.86310   0.57072   0.00000  Uiso   1.00
Cl589  Cl    0.26461   0.71486   0.47414   0.00000  Uiso   1.00
Cl590  Cl    0.06872   0.95181   0.52586   0.00000  Uiso   1.00
Cl591  Cl    0.09198   0.77315   0.60613   0.00000  Uiso   1.00
Cl592  Cl    0.24136   0.89352   0.39387   0.00000  Uiso   1.00
Cu593  Cu    0.16667   0.83334   0.54689   0.00000  Uiso   1.00
Cu594  Cu    0.16667   0.83333   0.45311   0.00000  Uiso   1.00
F595   F     0.25018   0.95781   0.47699   0.00000  Uiso   1.00
F596   F     0.08315   0.70885   0.52301   0.00000  Uiso   1.00
F597   F     0.10246   0.78194   0.37473   0.00000  Uiso   1.00
F598   F     0.23087   0.88473   0.62527   0.00000  Uiso   1.00
N599   N     0.16668   0.83334   0.61736   0.00000  Uiso   1.00
N600   N     0.16665   0.83332   0.38264   0.00000  Uiso   1.00
O601   O     0.16666   0.77322   0.53958   0.00000  Uiso   1.00
O602   O     0.16667   0.89345   0.46042   0.00000  Uiso   1.00
O603   O     0.16666   0.77321   0.46039   0.00000  Uiso   1.00
O604   O     0.16667   0.89346   0.53961   0.00000  Uiso   1.00
O605   O     0.09161   0.83334   0.53046   0.00000  Uiso   1.00
O606   O     0.24172   0.83333   0.46954   0.00000  Uiso   1.00
O607   O     0.09161   0.83333   0.45127   0.00000  Uiso   1.00
O608   O     0.24172   0.83334   0.54873   0.00000  Uiso   1.00
C609   C     0.50030   0.75418   0.50013   0.00000  Uiso   1.00
C610   C     0.45786   0.68801   0.51240   0.00000  Uiso   1.00
C611   C     0.49937   0.95709   0.49968   0.00000  Uiso   1.00
C612   C     0.50063   0.70957   0.50032   0.00000  Uiso   1.00
C613   C     0.46791   0.80771   0.35480   0.00000  Uiso   1.00
C614   C     0.53209   0.85896   0.64519   0.00000  Uiso   1.00
C615   C     0.46781   0.80759   0.63875   0.00000  Uiso   1.00
C616   C     0.53219   0.85908   0.36125   0.00000  Uiso   1.00
C617   C     0.49970   0.91249   0.49987   0.00000  Uiso   1.00
C618   C     0.40153   0.83308   0.48827   0.00000  Uiso   1.00
C619   C     0.59847   0.83359   0.51173   0.00000  Uiso   1.00
C620   C     0.34699   0.82825   0.48245   0.00000  Uiso   1.00
C621   C     0.65301   0.83841   0.51755   0.00000  Uiso   1.00
C622   C     0.54293   0.68836   0.48784   0.00000  Uiso   1.00
C623   C     0.45707   0.97831   0.51216   0.00000  Uiso   1.00
C624   C     0.54214   0.97866   0.48760   0.00000  Uiso   1.00
Cl625  Cl    0.65440   0.80357   0.42928   0.00000  Uiso   1.00
Cl626  Cl    0.34560   0.86310   0.57072   0.00000  Uiso   1.00
Cl627  Cl    0.59794   0.71486   0.47414   0.00000  Uiso   1.00
Cl628  Cl    0.40206   0.95181   0.52586   0.00000  Uiso   1.00
Cl629  Cl    0.42531   0.77315   0.60613   0.00000  Uiso   1.00
Cl630  Cl    0.57469   0.89352   0.39387   0.00000  Uiso   1.00
Cu631  Cu    0.50000   0.83334   0.54689   0.00000  Uiso   1.00
Cu632  Cu    0.50000   0.83333   0.45311   0.00000  Uiso   1.00
F633   F     0.58351   0.95781   0.47699   0.00000  Uiso   1.00
F634   F     0.41649   0.70885   0.52301   0.00000  Uiso   1.00
F635   F     0.43579   0.78194   0.37473   0.00000  Uiso   1.00
F636   F     0.56421   0.88473   0.62527   0.00000  Uiso   1.00
N637   N     0.50001   0.83334   0.61736   0.00000  Uiso   1.00
N638   N     0.49999   0.83332   0.38264   0.00000  Uiso   1.00
O639   O     0.50000   0.77322   0.53958   0.00000  Uiso   1.00
O640   O     0.50000   0.89345   0.46042   0.00000  Uiso   1.00
O641   O     0.50000   0.77321   0.46039   0.00000  Uiso   1.00
O642   O     0.50000   0.89346   0.53961   0.00000  Uiso   1.00
O643   O     0.42495   0.83334   0.53046   0.00000  Uiso   1.00
O644   O     0.57505   0.83333   0.46954   0.00000  Uiso   1.00
O645   O     0.42494   0.83333   0.45127   0.00000  Uiso   1.00
O646   O     0.57506   0.83334   0.54873   0.00000  Uiso   1.00
C647   C     0.83364   0.75418   0.50013   0.00000  Uiso   1.00
C648   C     0.79119   0.68801   0.51240   0.00000  Uiso   1.00
C649   C     0.83270   0.95709   0.49968   0.00000  Uiso   1.00
C650   C     0.83396   0.70957   0.50032   0.00000  Uiso   1.00
C651   C     0.80125   0.80771   0.35480   0.00000  Uiso   1.00
C652   C     0.86542   0.85896   0.64519   0.00000  Uiso   1.00
C653   C     0.80115   0.80759   0.63875   0.00000  Uiso   1.00
C654   C     0.86552   0.85908   0.36125   0.00000  Uiso   1.00
C655   C     0.83303   0.91249   0.49987   0.00000  Uiso   1.00
C656   C     0.73486   0.83308   0.48827   0.00000  Uiso   1.00
C657   C     0.93180   0.83359   0.51173   0.00000  Uiso   1.00
C658   C     0.68032   0.82825   0.48245   0.00000  Uiso   1.00
C659   C     0.98634   0.83841   0.51755   0.00000  Uiso   1.00
C660   C     0.87626   0.68836   0.48784   0.00000  Uiso   1.00
C661   C     0.79040   0.97831   0.51216   0.00000  Uiso   1.00
C662   C     0.87547   0.97866   0.48760   0.00000  Uiso   1.00
Cl663  Cl    0.98774   0.80357   0.42928   0.00000  Uiso   1.00
Cl664  Cl    0.67893   0.86310   0.57072   0.00000  Uiso   1.00
Cl665  Cl    0.93128   0.71486   0.47414   0.00000  Uiso   1.00
Cl666  Cl    0.73539   0.95181   0.52586   0.00000  Uiso   1.00
Cl667  Cl    0.75864   0.77315   0.60613   0.00000  Uiso   1.00
Cl668  Cl    0.90802   0.89352   0.39387   0.00000  Uiso   1.00
Cu669  Cu    0.83333   0.83334   0.54689   0.00000  Uiso   1.00
Cu670  Cu    0.83333   0.83333   0.45311   0.00000  Uiso   1.00
F671   F     0.91685   0.95781   0.47699   0.00000  Uiso   1.00
F672   F     0.74982   0.70885   0.52301   0.00000  Uiso   1.00
F673   F     0.76913   0.78194   0.37473   0.00000  Uiso   1.00
F674   F     0.89754   0.88473   0.62527   0.00000  Uiso   1.00
N675   N     0.83335   0.83334   0.61736   0.00000  Uiso   1.00
N676   N     0.83332   0.83332   0.38264   0.00000  Uiso   1.00
O677   O     0.83333   0.77322   0.53958   0.00000  Uiso   1.00
O678   O     0.83334   0.89345   0.46042   0.00000  Uiso   1.00
O679   O     0.83333   0.77321   0.46039   0.00000  Uiso   1.00
O680   O     0.83334   0.89346   0.53961   0.00000  Uiso   1.00
O681   O     0.75828   0.83334   0.53046   0.00000  Uiso   1.00
O682   O     0.90839   0.83333   0.46954   0.00000  Uiso   1.00
O683   O     0.75828   0.83333   0.45127   0.00000  Uiso   1.00
O684   O     0.90839   0.83334   0.54873   0.00000  Uiso   1.00
C685   C     0.16697   0.08751   0.83346   0.00000  Uiso   1.00
C686   C     0.12453   0.02134   0.84573   0.00000  Uiso   1.00
C687   C     0.16604   0.29043   0.83302   0.00000  Uiso   1.00
C688   C     0.16730   0.04291   0.83365   0.00000  Uiso   1.00
C689   C     0.13458   0.14104   0.68814   0.00000  Uiso   1.00
C690   C     0.19875   0.19229   0.97853   0.00000  Uiso   1.00
C691   C     0.13448   0.14092   0.97208   0.00000  Uiso   1.00
C692   C     0.19885   0.19241   0.69458   0.00000  Uiso   1.00
C693   C     0.16636   0.24582   0.83320   0.00000  Uiso   1.00
C694   C     0.06820   0.16641   0.82160   0.00000  Uiso   1.00
C695   C     0.26514   0.16692   0.84507   0.00000  Uiso   1.00
C696   C     0.01366   0.16159   0.81578   0.00000  Uiso   1.00
C697   C     0.31967   0.17175   0.85089   0.00000  Uiso   1.00
C698   C     0.20960   0.02169   0.82117   0.00000  Uiso   1.00
C699   C     0.12374   0.31164   0.84550   0.00000  Uiso   1.00
C700   C     0.20881   0.31199   0.82094   0.00000  Uiso   1.00
Cl701  Cl    0.32107   0.13690   0.76261   0.00000  Uiso   1.00
Cl702  Cl    0.01226   0.19643   0.90405   0.00000  Uiso   1.00
Cl703  Cl    0.26461   0.04819   0.80747   0.00000  Uiso   1.00
Cl704  Cl    0.06872   0.28514   0.85919   0.00000  Uiso   1.00
Cl705  Cl    0.09198   0.10648   0.93947   0.00000  Uiso   1.00
Cl706  Cl    0.24136   0.22685   0.72720   0.00000  Uiso   1.00
Cu707  Cu    0.16667   0.16667   0.88022   0.00000  Uiso   1.00
Cu708  Cu    0.16667   0.16666   0.78645   0.00000  Uiso   1.00
F709   F     0.25018   0.29115   0.81032   0.00000  Uiso   1.00
F710   F     0.08315   0.04219   0.85635   0.00000  Uiso   1.00
F711   F     0.10246   0.11527   0.70806   0.00000  Uiso   1.00
F712   F     0.23087   0.21806   0.95860   0.00000  Uiso   1.00
N713   N     0.16668   0.16668   0.95069   0.00000  Uiso   1.00
N714   N     0.16665   0.16666   0.71597   0.00000  Uiso   1.00
O715   O     0.16666   0.10655   0.87291   0.00000  Uiso   1.00
O716   O     0.16667   0.22678   0.79375   0.00000  Uiso   1.00
O717   O     0.16666   0.10654   0.79372   0.00000  Uiso   1.00
O718   O     0.16667   0.22679   0.87294   0.00000  Uiso   1.00
O719   O     0.09161   0.16667   0.86379   0.00000  Uiso   1.00
O720   O     0.24172   0.16666   0.80288   0.00000  Uiso   1.00
O721   O     0.09161   0.16666   0.78460   0.00000  Uiso   1.00
O722   O     0.24172   0.16667   0.88207   0.00000  Uiso   1.00
C723   C     0.50030   0.08751   0.83346   0.00000  Uiso   1.00
C724   C     0.45786   0.02134   0.84573   0.00000  Uiso   1.00
C725   C     0.49937   0.29043   0.83302   0.00000  Uiso   1.00
C726   C     0.50063   0.04291   0.83365   0.00000  Uiso   1.00
C727   C     0.46791   0.14104   0.68814   0.00000  Uiso   1.00
C728   C     0.53209   0.19229   0.97853   0.00000  Uiso   1.00
C729   C     0.46781   0.14092   0.97208   0.00000  Uiso   1.00
C730   C     0.53219   0.19241   0.69458   0.00000  Uiso   1.00
C731   C     0.49970   0.24582   0.83320   0.00000  Uiso   1.00
C732   C     0.40153   0.16641   0.82160   0.00000  Uiso   1.00
C733   C     0.59847   0.16692   0.84507   0.00000  Uiso   1.00
C734   C     0.34699   0.16159   0.81578   0.00000  Uiso   1.00
C735   C     0.65301   0.17175   0.85089   0.00000  Uiso   1.00
C736   C     0.54293   0.02169   0.82117   0.00000  Uiso   1.00
C737   C     0.45707   0.31164   0.84550   0.00000  Uiso   1.00
C738   C     0.54214   0.31199   0.82094   0.00000  Uiso   1.00
Cl739  Cl    0.65440   0.13690   0.76261   0.00000  Uiso   1.00
Cl740  Cl    0.34560   0.19643   0.90405   0.00000  Uiso   1.00
Cl741  Cl    0.59794   0.04819   0.80747   0.00000  Uiso   1.00
Cl742  Cl    0.40206   0.28514   0.85919   0.00000  Uiso   1.00
Cl743  Cl    0.42531   0.10648   0.93947   0.00000  Uiso   1.00
Cl744  Cl    0.57469   0.22685   0.72720   0.00000  Uiso   1.00
Cu745  Cu    0.50000   0.16667   0.88022   0.00000  Uiso   1.00
Cu746  Cu    0.50000   0.16666   0.78645   0.00000  Uiso   1.00
F747   F     0.58351   0.29115   0.81032   0.00000  Uiso   1.00
F748   F     0.41649   0.04219   0.85635   0.00000  Uiso   1.00
F749   F     0.43579   0.11527   0.70806   0.00000  Uiso   1.00
F750   F     0.56421   0.21806   0.95860   0.00000  Uiso   1.00
N751   N     0.50001   0.16668   0.95069   0.00000  Uiso   1.00
N752   N     0.49999   0.16666   0.71597   0.00000  Uiso   1.00
O753   O     0.50000   0.10655   0.87291   0.00000  Uiso   1.00
O754   O     0.50000   0.22678   0.79375   0.00000  Uiso   1.00
O755   O     0.50000   0.10654   0.79372   0.00000  Uiso   1.00
O756   O     0.50000   0.22679   0.87294   0.00000  Uiso   1.00
O757   O     0.42495   0.16667   0.86379   0.00000  Uiso   1.00
O758   O     0.57505   0.16666   0.80288   0.00000  Uiso   1.00
O759   O     0.42494   0.16666   0.78460   0.00000  Uiso   1.00
O760   O     0.57506   0.16667   0.88207   0.00000  Uiso   1.00
C761   C     0.83364   0.08751   0.83346   0.00000  Uiso   1.00
C762   C     0.79119   0.02134   0.84573   0.00000  Uiso   1.00
C763   C     0.83270   0.29043   0.83302   0.00000  Uiso   1.00
C764   C     0.83396   0.04291   0.83365   0.00000  Uiso   1.00
C765   C     0.80125   0.14104   0.68814   0.00000  Uiso   1.00
C766   C     0.86542   0.19229   0.97853   0.00000  Uiso   1.00
C767   C     0.80115   0.14092   0.97208   0.00000  Uiso   1.00
C768   C     0.86552   0.19241   0.69458   0.00000  Uiso   1.00
C769   C     0.83303   0.24582   0.83320   0.00000  Uiso   1.00
C770   C     0.73486   0.16641   0.82160   0.00000  Uiso   1.00
C771   C     0.93180   0.16692   0.84507   0.00000  Uiso   1.00
C772   C     0.68032   0.16159   0.81578   0.00000  Uiso   1.00
C773   C     0.98634   0.17175   0.85089   0.00000  Uiso   1.00
C774   C     0.87626   0.02169   0.82117   0.00000  Uiso   1.00
C775   C     0.79040   0.31164   0.84550   0.00000  Uiso   1.00
C776   C     0.87547   0.31199   0.82094   0.00000  Uiso   1.00
Cl777  Cl    0.98774   0.13690   0.76261   0.00000  Uiso   1.00
Cl778  Cl    0.67893   0.19643   0.90405   0.00000  Uiso   1.00
Cl779  Cl    0.93128   0.04819   0.80747   0.00000  Uiso   1.00
Cl780  Cl    0.73539   0.28514   0.85919   0.00000  Uiso   1.00
Cl781  Cl    0.75864   0.10648   0.93947   0.00000  Uiso   1.00
Cl782  Cl    0.90802   0.22685   0.72720   0.00000  Uiso   1.00
Cu783  Cu    0.83333   0.16667   0.88022   0.00000  Uiso   1.00
Cu784  Cu    0.83333   0.16666   0.78645   0.00000  Uiso   1.00
F785   F     0.91685   0.29115   0.81032   0.00000  Uiso   1.00
F786   F     0.74982   0.04219   0.85635   0.00000  Uiso   1.00
F787   F     0.76913   0.11527   0.70806   0.00000  Uiso   1.00
F788   F     0.89754   0.21806   0.95860   0.00000  Uiso   1.00
N789   N     0.83335   0.16668   0.95069   0.00000  Uiso   1.00
N790   N     0.83332   0.16666   0.71597   0.00000  Uiso   1.00
O791   O     0.83333   0.10655   0.87291   0.00000  Uiso   1.00
O792   O     0.83334   0.22678   0.79375   0.00000  Uiso   1.00
O793   O     0.83333   0.10654   0.79372   0.00000  Uiso   1.00
O794   O     0.83334   0.22679   0.87294   0.00000  Uiso   1.00
O795   O     0.75828   0.16667   0.86379   0.00000  Uiso   1.00
O796   O     0.90839   0.16666   0.80288   0.00000  Uiso   1.00
O797   O     0.75828   0.16666   0.78460   0.00000  Uiso   1.00
O798   O     0.90839   0.16667   0.88207   0.00000  Uiso   1.00
C799   C     0.16697   0.42085   0.83346   0.00000  Uiso   1.00
C800   C     0.12453   0.35467   0.84573   0.00000  Uiso   1.00
C801   C     0.16604   0.62376   0.83302   0.00000  Uiso   1.00
C802   C     0.16730   0.37624   0.83365   0.00000  Uiso   1.00
C803   C     0.13458   0.47437   0.68814   0.00000  Uiso   1.00
C804   C     0.19875   0.52563   0.97853   0.00000  Uiso   1.00
C805   C     0.13448   0.47425   0.97208   0.00000  Uiso   1.00
C806   C     0.19885   0.52575   0.69458   0.00000  Uiso   1.00
C807   C     0.16636   0.57915   0.83320   0.00000  Uiso   1.00
C808   C     0.06820   0.49975   0.82160   0.00000  Uiso   1.00
C809   C     0.26514   0.50025   0.84507   0.00000  Uiso   1.00
C810   C     0.01366   0.49492   0.81578   0.00000  Uiso   1.00
C811   C     0.31967   0.50508   0.85089   0.00000  Uiso   1.00
C812   C     0.20960   0.35503   0.82117   0.00000  Uiso   1.00
C813   C     0.12374   0.64497   0.84550   0.00000  Uiso   1.00
C814   C     0.20881   0.64533   0.82094   0.00000  Uiso   1.00
Cl815  Cl    0.32107   0.47023   0.76261   0.00000  Uiso   1.00
Cl816  Cl    0.01226   0.52977   0.90405   0.00000  Uiso   1.00
Cl817  Cl    0.26461   0.38153   0.80747   0.00000  Uiso   1.00
Cl818  Cl    0.06872   0.61847   0.85919   0.00000  Uiso   1.00
Cl819  Cl    0.09198   0.43982   0.93947   0.00000  Uiso   1.00
Cl820  Cl    0.24136   0.56018   0.72720   0.00000  Uiso   1.00
Cu821  Cu    0.16667   0.50001   0.88022   0.00000  Uiso   1.00
Cu822  Cu    0.16667   0.49999   0.78645   0.00000  Uiso   1.00
F823   F     0.25018   0.62448   0.81032   0.00000  Uiso   1.00
F824   F     0.08315   0.37552   0.85635   0.00000  Uiso   1.00
F825   F     0.10246   0.44861   0.70806   0.00000  Uiso   1.00
F826   F     0.23087   0.55139   0.95860   0.00000  Uiso   1.00
N827   N     0.16668   0.50001   0.95069   0.00000  Uiso   1.00
N828   N     0.16665   0.49999   0.71597   0.00000  Uiso   1.00
O829   O     0.16666   0.43989   0.87291   0.00000  Uiso   1.00
O830   O     0.16667   0.56011   0.79375   0.00000  Uiso   1.00
O831   O     0.16666   0.43988   0.79372   0.00000  Uiso   1.00
O832   O     0.16667   0.56012   0.87294   0.00000  Uiso   1.00
O833   O     0.09161   0.50000   0.86379   0.00000  Uiso   1.00
O834   O     0.24172   0.50000   0.80288   0.00000  Uiso   1.00
O835   O     0.09161   0.49999   0.78460   0.00000  Uiso   1.00
O836   O     0.24172   0.50001   0.88207   0.00000  Uiso   1.00
C837   C     0.50030   0.42085   0.83346   0.00000  Uiso   1.00
C838   C     0.45786   0.35467   0.84573   0.00000  Uiso   1.00
C839   C     0.49937   0.62376   0.83302   0.00000  Uiso   1.00
C840   C     0.50063   0.37624   0.83365   0.00000  Uiso   1.00
C841   C     0.46791   0.47437   0.68814   0.00000  Uiso   1.00
C842   C     0.53209   0.52563   0.97853   0.00000  Uiso   1.00
C843   C     0.46781   0.47425   0.97208   0.00000  Uiso   1.00
C844   C     0.53219   0.52575   0.69458   0.00000  Uiso   1.00
C845   C     0.49970   0.57915   0.83320   0.00000  Uiso   1.00
C846   C     0.40153   0.49975   0.82160   0.00000  Uiso   1.00
C847   C     0.59847   0.50025   0.84507   0.00000  Uiso   1.00
C848   C     0.34699   0.49492   0.81578   0.00000  Uiso   1.00
C849   C     0.65301   0.50508   0.85089   0.00000  Uiso   1.00
C850   C     0.54293   0.35503   0.82117   0.00000  Uiso   1.00
C851   C     0.45707   0.64497   0.84550   0.00000  Uiso   1.00
C852   C     0.54214   0.64533   0.82094   0.00000  Uiso   1.00
Cl853  Cl    0.65440   0.47023   0.76261   0.00000  Uiso   1.00
Cl854  Cl    0.34560   0.52977   0.90405   0.00000  Uiso   1.00
Cl855  Cl    0.59794   0.38153   0.80747   0.00000  Uiso   1.00
Cl856  Cl    0.40206   0.61847   0.85919   0.00000  Uiso   1.00
Cl857  Cl    0.42531   0.43982   0.93947   0.00000  Uiso   1.00
Cl858  Cl    0.57469   0.56018   0.72720   0.00000  Uiso   1.00
Cu859  Cu    0.50000   0.50001   0.88022   0.00000  Uiso   1.00
Cu860  Cu    0.50000   0.49999   0.78645   0.00000  Uiso   1.00
F861   F     0.58351   0.62448   0.81032   0.00000  Uiso   1.00
F862   F     0.41649   0.37552   0.85635   0.00000  Uiso   1.00
F863   F     0.43579   0.44861   0.70806   0.00000  Uiso   1.00
F864   F     0.56421   0.55139   0.95860   0.00000  Uiso   1.00
N865   N     0.50001   0.50001   0.95069   0.00000  Uiso   1.00
N866   N     0.49999   0.49999   0.71597   0.00000  Uiso   1.00
O867   O     0.50000   0.43989   0.87291   0.00000  Uiso   1.00
O868   O     0.50000   0.56011   0.79375   0.00000  Uiso   1.00
O869   O     0.50000   0.43988   0.79372   0.00000  Uiso   1.00
O870   O     0.50000   0.56012   0.87294   0.00000  Uiso   1.00
O871   O     0.42495   0.50000   0.86379   0.00000  Uiso   1.00
O872   O     0.57505   0.50000   0.80288   0.00000  Uiso   1.00
O873   O     0.42494   0.49999   0.78460   0.00000  Uiso   1.00
O874   O     0.57506   0.50001   0.88207   0.00000  Uiso   1.00
C875   C     0.83364   0.42085   0.83346   0.00000  Uiso   1.00
C876   C     0.79119   0.35467   0.84573   0.00000  Uiso   1.00
C877   C     0.83270   0.62376   0.83302   0.00000  Uiso   1.00
C878   C     0.83396   0.37624   0.83365   0.00000  Uiso   1.00
C879   C     0.80125   0.47437   0.68814   0.00000  Uiso   1.00
C880   C     0.86542   0.52563   0.97853   0.00000  Uiso   1.00
C881   C     0.80115   0.47425   0.97208   0.00000  Uiso   1.00
C882   C     0.86552   0.52575   0.69458   0.00000  Uiso   1.00
C883   C     0.83303   0.57915   0.83320   0.00000  Uiso   1.00
C884   C     0.73486   0.49975   0.82160   0.00000  Uiso   1.00
C885   C     0.93180   0.50025   0.84507   0.00000  Uiso   1.00
C886   C     0.68032   0.49492   0.81578   0.00000  Uiso   1.00
C887   C     0.98634   0.50508   0.85089   0.00000  Uiso   1.00
C888   C     0.87626   0.35503   0.82117   0.00000  Uiso   1.00
C889   C     0.79040   0.64497   0.84550   0.00000  Uiso   1.00
C890   C     0.87547   0.64533   0.82094   0.00000  Uiso   1.00
Cl891  Cl    0.98774   0.47023   0.76261   0.00000  Uiso   1.00
Cl892  Cl    0.67893   0.52977   0.90405   0.00000  Uiso   1.00
Cl893  Cl    0.93128   0.38153   0.80747   0.00000  Uiso   1.00
Cl894  Cl    0.73539   0.61847   0.85919   0.00000  Uiso   1.00
Cl895  Cl    0.75864   0.43982   0.93947   0.00000  Uiso   1.00
Cl896  Cl    0.90802   0.56018   0.72720   0.00000  Uiso   1.00
Cu897  Cu    0.83333   0.50001   0.88022   0.00000  Uiso   1.00
Cu898  Cu    0.83333   0.49999   0.78645   0.00000  Uiso   1.00
F899   F     0.91685   0.62448   0.81032   0.00000  Uiso   1.00
F900   F     0.74982   0.37552   0.85635   0.00000  Uiso   1.00
F901   F     0.76913   0.44861   0.70806   0.00000  Uiso   1.00
F902   F     0.89754   0.55139   0.95860   0.00000  Uiso   1.00
N903   N     0.83335   0.50001   0.95069   0.00000  Uiso   1.00
N904   N     0.83332   0.49999   0.71597   0.00000  Uiso   1.00
O905   O     0.83333   0.43989   0.87291   0.00000  Uiso   1.00
O906   O     0.83334   0.56011   0.79375   0.00000  Uiso   1.00
O907   O     0.83333   0.43988   0.79372   0.00000  Uiso   1.00
O908   O     0.83334   0.56012   0.87294   0.00000  Uiso   1.00
O909   O     0.75828   0.50000   0.86379   0.00000  Uiso   1.00
O910   O     0.90839   0.50000   0.80288   0.00000  Uiso   1.00
O911   O     0.75828   0.49999   0.78460   0.00000  Uiso   1.00
O912   O     0.90839   0.50001   0.88207   0.00000  Uiso   1.00
C913   C     0.16697   0.75418   0.83346   0.00000  Uiso   1.00
C914   C     0.12453   0.68801   0.84573   0.00000  Uiso   1.00
C915   C     0.16604   0.95709   0.83302   0.00000  Uiso   1.00
C916   C     0.16730   0.70957   0.83365   0.00000  Uiso   1.00
C917   C     0.13458   0.80771   0.68814   0.00000  Uiso   1.00
C918   C     0.19875   0.85896   0.97853   0.00000  Uiso   1.00
C919   C     0.13448   0.80759   0.97208   0.00000  Uiso   1.00
C920   C     0.19885   0.85908   0.69458   0.00000  Uiso   1.00
C921   C     0.16636   0.91249   0.83320   0.00000  Uiso   1.00
C922   C     0.06820   0.83308   0.82160   0.00000  Uiso   1.00
C923   C     0.26514   0.83359   0.84507   0.00000  Uiso   1.00
C924   C     0.01366   0.82825   0.81578   0.00000  Uiso   1.00
C925   C     0.31967   0.83841   0.85089   0.00000  Uiso   1.00
C926   C     0.20960   0.68836   0.82117   0.00000  Uiso   1.00
C927   C     0.12374   0.97831   0.84550   0.00000  Uiso   1.00
C928   C     0.20881   0.97866   0.82094   0.00000  Uiso   1.00
Cl929  Cl    0.32107   0.80357   0.76261   0.00000  Uiso   1.00
Cl930  Cl    0.01226   0.86310   0.90405   0.00000  Uiso   1.00
Cl931  Cl    0.26461   0.71486   0.80747   0.00000  Uiso   1.00
Cl932  Cl    0.06872   0.95181   0.85919   0.00000  Uiso   1.00
Cl933  Cl    0.09198   0.77315   0.93947   0.00000  Uiso   1.00
Cl934  Cl    0.24136   0.89352   0.72720   0.00000  Uiso   1.00
Cu935  Cu    0.16667   0.83334   0.88022   0.00000  Uiso   1.00
Cu936  Cu    0.16667   0.83333   0.78645   0.00000  Uiso   1.00
F937   F     0.25018   0.95781   0.81032   0.00000  Uiso   1.00
F938   F     0.08315   0.70885   0.85635   0.00000  Uiso   1.00
F939   F     0.10246   0.78194   0.70806   0.00000  Uiso   1.00
F940   F     0.23087   0.88473   0.95860   0.00000  Uiso   1.00
N941   N     0.16668   0.83334   0.95069   0.00000  Uiso   1.00
N942   N     0.16665   0.83332   0.71597   0.00000  Uiso   1.00
O943   O     0.16666   0.77322   0.87291   0.00000  Uiso   1.00
O944   O     0.16667   0.89345   0.79375   0.00000  Uiso   1.00
O945   O     0.16666   0.77321   0.79372   0.00000  Uiso   1.00
O946   O     0.16667   0.89346   0.87294   0.00000  Uiso   1.00
O947   O     0.09161   0.83334   0.86379   0.00000  Uiso   1.00
O948   O     0.24172   0.83333   0.80288   0.00000  Uiso   1.00
O949   O     0.09161   0.83333   0.78460   0.00000  Uiso   1.00
O950   O     0.24172   0.83334   0.88207   0.00000  Uiso   1.00
C951   C     0.50030   0.75418   0.83346   0.00000  Uiso   1.00
C952   C     0.45786   0.68801   0.84573   0.00000  Uiso   1.00
C953   C     0.49937   0.95709   0.83302   0.00000  Uiso   1.00
C954   C     0.50063   0.70957   0.83365   0.00000  Uiso   1.00
C955   C     0.46791   0.80771   0.68814   0.00000  Uiso   1.00
C956   C     0.53209   0.85896   0.97853   0.00000  Uiso   1.00
C957   C     0.46781   0.80759   0.97208   0.00000  Uiso   1.00
C958   C     0.53219   0.85908   0.69458   0.00000  Uiso   1.00
C959   C     0.49970   0.91249   0.83320   0.00000  Uiso   1.00
C960   C     0.40153   0.83308   0.82160   0.00000  Uiso   1.00
C961   C     0.59847   0.83359   0.84507   0.00000  Uiso   1.00
C962   C     0.34699   0.82825   0.81578   0.00000  Uiso   1.00
C963   C     0.65301   0.83841   0.85089   0.00000  Uiso   1.00
C964   C     0.54293   0.68836   0.82117   0.00000  Uiso   1.00
C965   C     0.45707   0.97831   0.84550   0.00000  Uiso   1.00
C966   C     0.54214   0.97866   0.82094   0.00000  Uiso   1.00
Cl967  Cl    0.65440   0.80357   0.76261   0.00000  Uiso   1.00
Cl968  Cl    0.34560   0.86310   0.90405   0.00000  Uiso   1.00
Cl969  Cl    0.59794   0.71486   0.80747   0.00000  Uiso   1.00
Cl970  Cl    0.40206   0.95181   0.85919   0.00000  Uiso   1.00
Cl971  Cl    0.42531   0.77315   0.93947   0.00000  Uiso   1.00
Cl972  Cl    0.57469   0.89352   0.72720   0.00000  Uiso   1.00
Cu973  Cu    0.50000   0.83334   0.88022   0.00000  Uiso   1.00
Cu974  Cu    0.50000   0.83333   0.78645   0.00000  Uiso   1.00
F975   F     0.58351   0.95781   0.81032   0.00000  Uiso   1.00
F976   F     0.41649   0.70885   0.85635   0.00000  Uiso   1.00
F977   F     0.43579   0.78194   0.70806   0.00000  Uiso   1.00
F978   F     0.56421   0.88473   0.95860   0.00000  Uiso   1.00
N979   N     0.50001   0.83334   0.95069   0.00000  Uiso   1.00
N980   N     0.49999   0.83332   0.71597   0.00000  Uiso   1.00
O981   O     0.50000   0.77322   0.87291   0.00000  Uiso   1.00
O982   O     0.50000   0.89345   0.79375   0.00000  Uiso   1.00
O983   O     0.50000   0.77321   0.79372   0.00000  Uiso   1.00
O984   O     0.50000   0.89346   0.87294   0.00000  Uiso   1.00
O985   O     0.42495   0.83334   0.86379   0.00000  Uiso   1.00
O986   O     0.57505   0.83333   0.80288   0.00000  Uiso   1.00
O987   O     0.42494   0.83333   0.78460   0.00000  Uiso   1.00
O988   O     0.57506   0.83334   0.88207   0.00000  Uiso   1.00
C989   C     0.83364   0.75418   0.83346   0.00000  Uiso   1.00
C990   C     0.79119   0.68801   0.84573   0.00000  Uiso   1.00
C991   C     0.83270   0.95709   0.83302   0.00000  Uiso   1.00
C992   C     0.83396   0.70957   0.83365   0.00000  Uiso   1.00
C993   C     0.80125   0.80771   0.68814   0.00000  Uiso   1.00
C994   C     0.86542   0.85896   0.97853   0.00000  Uiso   1.00
C995   C     0.80115   0.80759   0.97208   0.00000  Uiso   1.00
C996   C     0.86552   0.85908   0.69458   0.00000  Uiso   1.00
C997   C     0.83303   0.91249   0.83320   0.00000  Uiso   1.00
C998   C     0.73486   0.83308   0.82160   0.00000  Uiso   1.00
C999   C     0.93180   0.83359   0.84507   0.00000  Uiso   1.00
C1000  C     0.68032   0.82825   0.81578   0.00000  Uiso   1.00
C1001  C     0.98634   0.83841   0.85089   0.00000  Uiso   1.00
C1002  C     0.87626   0.68836   0.82117   0.00000  Uiso   1.00
C1003  C     0.79040   0.97831   0.84550   0.00000  Uiso   1.00
C1004  C     0.87547   0.97866   0.82094   0.00000  Uiso   1.00
Cl1005 Cl    0.98774   0.80357   0.76261   0.00000  Uiso   1.00
Cl1006 Cl    0.67893   0.86310   0.90405   0.00000  Uiso   1.00
Cl1007 Cl    0.93128   0.71486   0.80747   0.00000  Uiso   1.00
Cl1008 Cl    0.73539   0.95181   0.85919   0.00000  Uiso   1.00
Cl1009 Cl    0.75864   0.77315   0.93947   0.00000  Uiso   1.00
Cl1010 Cl    0.90802   0.89352   0.72720   0.00000  Uiso   1.00
Cu1011 Cu    0.83333   0.83334   0.88022   0.00000  Uiso   1.00
Cu1012 Cu    0.83333   0.83333   0.78645   0.00000  Uiso   1.00
F1013  F     0.91685   0.95781   0.81032   0.00000  Uiso   1.00
F1014  F     0.74982   0.70885   0.85635   0.00000  Uiso   1.00
F1015  F     0.76913   0.78194   0.70806   0.00000  Uiso   1.00
F1016  F     0.89754   0.88473   0.95860   0.00000  Uiso   1.00
N1017  N     0.83335   0.83334   0.95069   0.00000  Uiso   1.00
N1018  N     0.83332   0.83332   0.71597   0.00000  Uiso   1.00
O1019  O     0.83333   0.77322   0.87291   0.00000  Uiso   1.00
O1020  O     0.83334   0.89345   0.79375   0.00000  Uiso   1.00
O1021  O     0.83333   0.77321   0.79372   0.00000  Uiso   1.00
O1022  O     0.83334   0.89346   0.87294   0.00000  Uiso   1.00
O1023  O     0.75828   0.83334   0.86379   0.00000  Uiso   1.00
O1024  O     0.90839   0.83333   0.80288   0.00000  Uiso   1.00
O1025  O     0.75828   0.83333   0.78460   0.00000  Uiso   1.00
O1026  O     0.90839   0.83334   0.88207   0.00000  Uiso   1.00
loop_
_geom_bond_atom_site_label_1
_geom_bond_atom_site_label_2
_geom_bond_distance
_geom_bond_site_symmetry_2
_ccdc_geom_bond_type
C1     C4      1.440   .     S
C1     O33     1.291   .     A
C1     O31     1.293   .     A
C2     C4      1.399   .     A
C2     F26     1.359   .     S
C2     C243    1.389   1_545 S
C3     C9      1.440   .     S
C3     C15     1.404   .     A
C3     C16     1.399   .     A
C4     C14     1.404   .     A
C5     N30     1.362   .     A
C5     F27     1.356   .     S
C5     C691    1.417   1_554 S
C6     N29     1.362   .     A
C6     F28     1.356   .     S
C6     C350    1.417   .     S
C7     N29     1.379   .     A
C7     Cl21    1.756   .     S
C7     C347    1.417   .     S
C8     Cl22    1.756   .     S
C8     N30     1.379   .     A
C8     C690    1.417   1_554 S
C9     O34     1.291   .     A
C9     O32     1.293   .     A
C10    O35     1.287   .     A
C10    C12     1.434   .     S
C10    O37     1.296   .     A
C11    O38     1.296   .     A
C11    C13     1.434   .     S
C11    O36     1.287   .     A
C12    C89     1.357   1_455 S
C12    Cl93    1.779   1_455 S
C13    C50     1.357   .     S
C13    Cl56    1.779   .     S
C14    Cl19    1.763   .     S
C14    C244    1.389   1_545 S
C15    Cl20    1.763   .     S
C15    C116    1.389   .     S
C16    F25     1.359   .     S
C16    C128    1.389   .     S
Cl17   C50     1.779   .     S
Cl18   C89     1.779   1_455 S
Cu23   Cu24    2.692   .     S
Cu23   O38     1.975   .     S
Cu23   O34     1.951   .     S
Cu23   N29     2.023   .     S
Cu23   O35     1.976   .     S
Cu23   O31     1.954   .     S
Cu24   O32     1.954   .     S
Cu24   O33     1.951   .     S
Cu24   O37     1.975   .     S
Cu24   O36     1.976   .     S
Cu24   N30     2.023   .     S
C39    C42     1.440   .     S
C39    O71     1.291   .     A
C39    O69     1.293   .     A
C40    C42     1.399   .     A
C40    F64     1.359   .     S
C40    C281    1.389   1_545 S
C41    C47     1.440   .     S
C41    C53     1.404   .     A
C41    C54     1.399   .     A
C42    C52     1.404   .     A
C43    N68     1.362   .     A
C43    F65     1.356   .     S
C43    C729    1.417   1_554 S
C44    N67     1.362   .     A
C44    F66     1.356   .     S
C44    C388    1.417   .     S
C45    N67     1.379   .     A
C45    Cl59    1.756   .     S
C45    C385    1.417   .     S
C46    Cl60    1.756   .     S
C46    N68     1.379   .     A
C46    C728    1.417   1_554 S
C47    O72     1.291   .     A
C47    O70     1.293   .     A
C48    O73     1.287   .     A
C48    C50     1.434   .     S
C48    O75     1.296   .     A
C49    O76     1.296   .     A
C49    C51     1.434   .     S
C49    O74     1.287   .     A
C51    C88     1.357   .     S
C51    Cl94    1.779   .     S
C52    Cl57    1.763   .     S
C52    C282    1.389   1_545 S
C53    Cl58    1.763   .     S
C53    C154    1.389   .     S
C54    F63     1.359   .     S
C54    C166    1.389   .     S
Cl55   C88     1.779   .     S
Cu61   Cu62    2.692   .     S
Cu61   O76     1.975   .     S
Cu61   O72     1.951   .     S
Cu61   N67     2.023   .     S
Cu61   O73     1.976   .     S
Cu61   O69     1.954   .     S
Cu62   O70     1.954   .     S
Cu62   O71     1.951   .     S
Cu62   O75     1.975   .     S
Cu62   O74     1.976   .     S
Cu62   N68     2.023   .     S
C77    C80     1.440   .     S
C77    O109    1.291   .     A
C77    O107    1.293   .     A
C78    C80     1.399   .     A
C78    F102    1.359   .     S
C78    C319    1.389   1_545 S
C79    C85     1.440   .     S
C79    C91     1.404   .     A
C79    C92     1.399   .     A
C80    C90     1.404   .     A
C81    N106    1.362   .     A
C81    F103    1.356   .     S
C81    C767    1.417   1_554 S
C82    N105    1.362   .     A
C82    F104    1.356   .     S
C82    C426    1.417   .     S
C83    N105    1.379   .     A
C83    Cl97    1.756   .     S
C83    C423    1.417   .     S
C84    Cl98    1.756   .     S
C84    N106    1.379   .     A
C84    C766    1.417   1_554 S
C85    O110    1.291   .     A
C85    O108    1.293   .     A
C86    O111    1.287   .     A
C86    C88     1.434   .     S
C86    O113    1.296   .     A
C87    O114    1.296   .     A
C87    C89     1.434   .     S
C87    O112    1.287   .     A
C89    C12     1.357   1_655 S
C89    Cl18    1.779   1_655 S
C90    Cl95    1.763   .     S
C90    C320    1.389   1_545 S
C91    Cl96    1.763   .     S
C91    C192    1.389   .     S
C92    F101    1.359   .     S
C92    C204    1.389   .     S
Cl93   C12     1.779   1_655 S
Cu99   Cu100   2.692   .     S
Cu99   O114    1.975   .     S
Cu99   O110    1.951   .     S
Cu99   N105    2.023   .     S
Cu99   O111    1.976   .     S
Cu99   O107    1.954   .     S
Cu100  O108    1.954   .     S
Cu100  O109    1.951   .     S
Cu100  O113    1.975   .     S
Cu100  O112    1.976   .     S
Cu100  N106    2.023   .     S
C115   C118    1.440   .     S
C115   O147    1.291   .     A
C115   O145    1.293   .     A
C116   C118    1.399   .     A
C116   F140    1.359   .     S
C117   C123    1.440   .     S
C117   C129    1.404   .     A
C117   C130    1.399   .     A
C118   C128    1.404   .     A
C119   N144    1.362   .     A
C119   F141    1.356   .     S
C119   C805    1.417   1_554 S
C120   N143    1.362   .     A
C120   F142    1.356   .     S
C120   C464    1.417   .     S
C121   N143    1.379   .     A
C121   Cl135   1.756   .     S
C121   C461    1.417   .     S
C122   Cl136   1.756   .     S
C122   N144    1.379   .     A
C122   C804    1.417   1_554 S
C123   O148    1.291   .     A
C123   O146    1.293   .     A
C124   O149    1.287   .     A
C124   C126    1.434   .     S
C124   O151    1.296   .     A
C125   O152    1.296   .     A
C125   C127    1.434   .     S
C125   O150    1.287   .     A
C126   C203    1.357   1_455 S
C126   Cl207   1.779   1_455 S
C127   C164    1.357   .     S
C127   Cl170   1.779   .     S
C128   Cl133   1.763   .     S
C129   Cl134   1.763   .     S
C129   C230    1.389   .     S
C130   F139    1.359   .     S
C130   C242    1.389   .     S
Cl131  C164    1.779   .     S
Cl132  C203    1.779   1_455 S
Cu137  Cu138   2.692   .     S
Cu137  O152    1.975   .     S
Cu137  O148    1.951   .     S
Cu137  N143    2.023   .     S
Cu137  O149    1.976   .     S
Cu137  O145    1.954   .     S
Cu138  O146    1.954   .     S
Cu138  O147    1.951   .     S
Cu138  O151    1.975   .     S
Cu138  O150    1.976   .     S
Cu138  N144    2.023   .     S
C153   C156    1.440   .     S
C153   O185    1.291   .     A
C153   O183    1.293   .     A
C154   C156    1.399   .     A
C154   F178    1.359   .     S
C155   C161    1.440   .     S
C155   C167    1.404   .     A
C155   C168    1.399   .     A
C156   C166    1.404   .     A
C157   N182    1.362   .     A
C157   F179    1.356   .     S
C157   C843    1.417   1_554 S
C158   N181    1.362   .     A
C158   F180    1.356   .     S
C158   C502    1.417   .     S
C159   N181    1.379   .     A
C159   Cl173   1.756   .     S
C159   C499    1.417   .     S
C160   Cl174   1.756   .     S
C160   N182    1.379   .     A
C160   C842    1.417   1_554 S
C161   O186    1.291   .     A
C161   O184    1.293   .     A
C162   O187    1.287   .     A
C162   C164    1.434   .     S
C162   O189    1.296   .     A
C163   O190    1.296   .     A
C163   C165    1.434   .     S
C163   O188    1.287   .     A
C165   C202    1.357   .     S
C165   Cl208   1.779   .     S
C166   Cl171   1.763   .     S
C167   Cl172   1.763   .     S
C167   C268    1.389   .     S
C168   F177    1.359   .     S
C168   C280    1.389   .     S
Cl169  C202    1.779   .     S
Cu175  Cu176   2.692   .     S
Cu175  O190    1.975   .     S
Cu175  O186    1.951   .     S
Cu175  N181    2.023   .     S
Cu175  O187    1.976   .     S
Cu175  O183    1.954   .     S
Cu176  O184    1.954   .     S
Cu176  O185    1.951   .     S
Cu176  O189    1.975   .     S
Cu176  O188    1.976   .     S
Cu176  N182    2.023   .     S
C191   C194    1.440   .     S
C191   O223    1.291   .     A
C191   O221    1.293   .     A
C192   C194    1.399   .     A
C192   F216    1.359   .     S
C193   C199    1.440   .     S
C193   C205    1.404   .     A
C193   C206    1.399   .     A
C194   C204    1.404   .     A
C195   N220    1.362   .     A
C195   F217    1.356   .     S
C195   C881    1.417   1_554 S
C196   N219    1.362   .     A
C196   F218    1.356   .     S
C196   C540    1.417   .     S
C197   N219    1.379   .     A
C197   Cl211   1.756   .     S
C197   C537    1.417   .     S
C198   Cl212   1.756   .     S
C198   N220    1.379   .     A
C198   C880    1.417   1_554 S
C199   O224    1.291   .     A
C199   O222    1.293   .     A
C200   O225    1.287   .     A
C200   C202    1.434   .     S
C200   O227    1.296   .     A
C201   O228    1.296   .     A
C201   C203    1.434   .     S
C201   O226    1.287   .     A
C203   C126    1.357   1_655 S
C203   Cl132   1.779   1_655 S
C204   Cl209   1.763   .     S
C205   Cl210   1.763   .     S
C205   C306    1.389   .     S
C206   F215    1.359   .     S
C206   C318    1.389   .     S
Cl207  C126    1.779   1_655 S
Cu213  Cu214   2.692   .     S
Cu213  O228    1.975   .     S
Cu213  O224    1.951   .     S
Cu213  N219    2.023   .     S
Cu213  O225    1.976   .     S
Cu213  O221    1.954   .     S
Cu214  O222    1.954   .     S
Cu214  O223    1.951   .     S
Cu214  O227    1.975   .     S
Cu214  O226    1.976   .     S
Cu214  N220    2.023   .     S
C229   C232    1.440   .     S
C229   O261    1.291   .     A
C229   O259    1.293   .     A
C230   C232    1.399   .     A
C230   F254    1.359   .     S
C231   C237    1.440   .     S
C231   C243    1.404   .     A
C231   C244    1.399   .     A
C232   C242    1.404   .     A
C233   N258    1.362   .     A
C233   F255    1.356   .     S
C233   C919    1.417   1_554 S
C234   N257    1.362   .     A
C234   F256    1.356   .     S
C234   C578    1.417   .     S
C235   N257    1.379   .     A
C235   Cl249   1.756   .     S
C235   C575    1.417   .     S
C236   Cl250   1.756   .     S
C236   N258    1.379   .     A
C236   C918    1.417   1_554 S
C237   O262    1.291   .     A
C237   O260    1.293   .     A
C238   O263    1.287   .     A
C238   C240    1.434   .     S
C238   O265    1.296   .     A
C239   O266    1.296   .     A
C239   C241    1.434   .     S
C239   O264    1.287   .     A
C240   C317    1.357   1_455 S
C240   Cl321   1.779   1_455 S
C241   C278    1.357   .     S
C241   Cl284   1.779   .     S
C242   Cl247   1.763   .     S
C243   Cl248   1.763   .     S
C243   C2      1.389   1_565 S
C244   F253    1.359   .     S
C244   C14     1.389   1_565 S
Cl245  C278    1.779   .     S
Cl246  C317    1.779   1_455 S
Cu251  Cu252   2.692   .     S
Cu251  O266    1.975   .     S
Cu251  O262    1.951   .     S
Cu251  N257    2.023   .     S
Cu251  O263    1.976   .     S
Cu251  O259    1.954   .     S
Cu252  O260    1.954   .     S
Cu252  O261    1.951   .     S
Cu252  O265    1.975   .     S
Cu252  O264    1.976   .     S
Cu252  N258    2.023   .     S
C267   C270    1.440   .     S
C267   O299    1.291   .     A
C267   O297    1.293   .     A
C268   C270    1.399   .     A
C268   F292    1.359   .     S
C269   C275    1.440   .     S
C269   C281    1.404   .     A
C269   C282    1.399   .     A
C270   C280    1.404   .     A
C271   N296    1.362   .     A
C271   F293    1.356   .     S
C271   C957    1.417   1_554 S
C272   N295    1.362   .     A
C272   F294    1.356   .     S
C272   C616    1.417   .     S
C273   N295    1.379   .     A
C273   Cl287   1.756   .     S
C273   C613    1.417   .     S
C274   Cl288   1.756   .     S
C274   N296    1.379   .     A
C274   C956    1.417   1_554 S
C275   O300    1.291   .     A
C275   O298    1.293   .     A
C276   O301    1.287   .     A
C276   C278    1.434   .     S
C276   O303    1.296   .     A
C277   O304    1.296   .     A
C277   C279    1.434   .     S
C277   O302    1.287   .     A
C279   C316    1.357   .     S
C279   Cl322   1.779   .     S
C280   Cl285   1.763   .     S
C281   Cl286   1.763   .     S
C281   C40     1.389   1_565 S
C282   F291    1.359   .     S
C282   C52     1.389   1_565 S
Cl283  C316    1.779   .     S
Cu289  Cu290   2.692   .     S
Cu289  O304    1.975   .     S
Cu289  O300    1.951   .     S
Cu289  N295    2.023   .     S
Cu289  O301    1.976   .     S
Cu289  O297    1.954   .     S
Cu290  O298    1.954   .     S
Cu290  O299    1.951   .     S
Cu290  O303    1.975   .     S
Cu290  O302    1.976   .     S
Cu290  N296    2.023   .     S
C305   C308    1.440   .     S
C305   O337    1.291   .     A
C305   O335    1.293   .     A
C306   C308    1.399   .     A
C306   F330    1.359   .     S
C307   C313    1.440   .     S
C307   C319    1.404   .     A
C307   C320    1.399   .     A
C308   C318    1.404   .     A
C309   N334    1.362   .     A
C309   F331    1.356   .     S
C309   C995    1.417   1_554 S
C310   N333    1.362   .     A
C310   F332    1.356   .     S
C310   C654    1.417   .     S
C311   N333    1.379   .     A
C311   Cl325   1.756   .     S
C311   C651    1.417   .     S
C312   Cl326   1.756   .     S
C312   N334    1.379   .     A
C312   C994    1.417   1_554 S
C313   O338    1.291   .     A
C313   O336    1.293   .     A
C314   O339    1.287   .     A
C314   C316    1.434   .     S
C314   O341    1.296   .     A
C315   O342    1.296   .     A
C315   C317    1.434   .     S
C315   O340    1.287   .     A
C317   C240    1.357   1_655 S
C317   Cl246   1.779   1_655 S
C318   Cl323   1.763   .     S
C319   Cl324   1.763   .     S
C319   C78     1.389   1_565 S
C320   F329    1.359   .     S
C320   C90     1.389   1_565 S
Cl321  C240    1.779   1_655 S
Cu327  Cu328   2.692   .     S
Cu327  O342    1.975   .     S
Cu327  O338    1.951   .     S
Cu327  N333    2.023   .     S
Cu327  O339    1.976   .     S
Cu327  O335    1.954   .     S
Cu328  O336    1.954   .     S
Cu328  O337    1.951   .     S
Cu328  O341    1.975   .     S
Cu328  O340    1.976   .     S
Cu328  N334    2.023   .     S
C343   C346    1.440   .     S
C343   O375    1.291   .     A
C343   O373    1.293   .     A
C344   C346    1.399   .     A
C344   F368    1.359   .     S
C344   C585    1.389   1_545 S
C345   C351    1.440   .     S
C345   C357    1.404   .     A
C345   C358    1.399   .     A
C346   C356    1.404   .     A
C347   N372    1.362   .     A
C347   F369    1.356   .     S
C348   N371    1.362   .     A
C348   F370    1.356   .     S
C348   C692    1.417   .     S
C349   N371    1.379   .     A
C349   Cl363   1.756   .     S
C349   C689    1.417   .     S
C350   Cl364   1.756   .     S
C350   N372    1.379   .     A
C351   O376    1.291   .     A
C351   O374    1.293   .     A
C352   O377    1.287   .     A
C352   C354    1.434   .     S
C352   O379    1.296   .     A
C353   O380    1.296   .     A
C353   C355    1.434   .     S
C353   O378    1.287   .     A
C354   C431    1.357   1_455 S
C354   Cl435   1.779   1_455 S
C355   C392    1.357   .     S
C355   Cl398   1.779   .     S
C356   Cl361   1.763   .     S
C356   C586    1.389   1_545 S
C357   Cl362   1.763   .     S
C357   C458    1.389   .     S
C358   F367    1.359   .     S
C358   C470    1.389   .     S
Cl359  C392    1.779   .     S
Cl360  C431    1.779   1_455 S
Cu365  Cu366   2.692   .     S
Cu365  O380    1.975   .     S
Cu365  O376    1.951   .     S
Cu365  N371    2.023   .     S
Cu365  O377    1.976   .     S
Cu365  O373    1.954   .     S
Cu366  O374    1.954   .     S
Cu366  O375    1.951   .     S
Cu366  O379    1.975   .     S
Cu366  O378    1.976   .     S
Cu366  N372    2.023   .     S
C381   C384    1.440   .     S
C381   O413    1.291   .     A
C381   O411    1.293   .     A
C382   C384    1.399   .     A
C382   F406    1.359   .     S
C382   C623    1.389   1_545 S
C383   C389    1.440   .     S
C383   C395    1.404   .     A
C383   C396    1.399   .     A
C384   C394    1.404   .     A
C385   N410    1.362   .     A
C385   F407    1.356   .     S
C386   N409    1.362   .     A
C386   F408    1.356   .     S
C386   C730    1.417   .     S
C387   N409    1.379   .     A
C387   Cl401   1.756   .     S
C387   C727    1.417   .     S
C388   Cl402   1.756   .     S
C388   N410    1.379   .     A
C389   O414    1.291   .     A
C389   O412    1.293   .     A
C390   O415    1.287   .     A
C390   C392    1.434   .     S
C390   O417    1.296   .     A
C391   O418    1.296   .     A
C391   C393    1.434   .     S
C391   O416    1.287   .     A
C393   C430    1.357   .     S
C393   Cl436   1.779   .     S
C394   Cl399   1.763   .     S
C394   C624    1.389   1_545 S
C395   Cl400   1.763   .     S
C395   C496    1.389   .     S
C396   F405    1.359   .     S
C396   C508    1.389   .     S
Cl397  C430    1.779   .     S
Cu403  Cu404   2.692   .     S
Cu403  O418    1.975   .     S
Cu403  O414    1.951   .     S
Cu403  N409    2.023   .     S
Cu403  O415    1.976   .     S
Cu403  O411    1.954   .     S
Cu404  O412    1.954   .     S
Cu404  O413    1.951   .     S
Cu404  O417    1.975   .     S
Cu404  O416    1.976   .     S
Cu404  N410    2.023   .     S
C419   C422    1.440   .     S
C419   O451    1.291   .     A
C419   O449    1.293   .     A
C420   C422    1.399   .     A
C420   F444    1.359   .     S
C420   C661    1.389   1_545 S
C421   C427    1.440   .     S
C421   C433    1.404   .     A
C421   C434    1.399   .     A
C422   C432    1.404   .     A
C423   N448    1.362   .     A
C423   F445    1.356   .     S
C424   N447    1.362   .     A
C424   F446    1.356   .     S
C424   C768    1.417   .     S
C425   N447    1.379   .     A
C425   Cl439   1.756   .     S
C425   C765    1.417   .     S
C426   Cl440   1.756   .     S
C426   N448    1.379   .     A
C427   O452    1.291   .     A
C427   O450    1.293   .     A
C428   O453    1.287   .     A
C428   C430    1.434   .     S
C428   O455    1.296   .     A
C429   O456    1.296   .     A
C429   C431    1.434   .     S
C429   O454    1.287   .     A
C431   C354    1.357   1_655 S
C431   Cl360   1.779   1_655 S
C432   Cl437   1.763   .     S
C432   C662    1.389   1_545 S
C433   Cl438   1.763   .     S
C433   C534    1.389   .     S
C434   F443    1.359   .     S
C434   C546    1.389   .     S
Cl435  C354    1.779   1_655 S
Cu441  Cu442   2.692   .     S
Cu441  O456    1.975   .     S
Cu441  O452    1.951   .     S
Cu441  N447    2.023   .     S
Cu441  O453    1.976   .     S
Cu441  O449    1.954   .     S
Cu442  O450    1.954   .     S
Cu442  O451    1.951   .     S
Cu442  O455    1.975   .     S
Cu442  O454    1.976   .     S
Cu442  N448    2.023   .     S
C457   C460    1.440   .     S
C457   O489    1.291   .     A
C457   O487    1.293   .     A
C458   C460    1.399   .     A
C458   F482    1.359   .     S
C459   C465    1.440   .     S
C459   C471    1.404   .     A
C459   C472    1.399   .     A
C460   C470    1.404   .     A
C461   N486    1.362   .     A
C461   F483    1.356   .     S
C462   N485    1.362   .     A
C462   F484    1.356   .     S
C462   C806    1.417   .     S
C463   N485    1.379   .     A
C463   Cl477   1.756   .     S
C463   C803    1.417   .     S
C464   Cl478   1.756   .     S
C464   N486    1.379   .     A
C465   O490    1.291   .     A
C465   O488    1.293   .     A
C466   O491    1.287   .     A
C466   C468    1.434   .     S
C466   O493    1.296   .     A
C467   O494    1.296   .     A
C467   C469    1.434   .     S
C467   O492    1.287   .     A
C468   C545    1.357   1_455 S
C468   Cl549   1.779   1_455 S
C469   C506    1.357   .     S
C469   Cl512   1.779   .     S
C470   Cl475   1.763   .     S
C471   Cl476   1.763   .     S
C471   C572    1.389   .     S
C472   F481    1.359   .     S
C472   C584    1.389   .     S
Cl473  C506    1.779   .     S
Cl474  C545    1.779   1_455 S
Cu479  Cu480   2.692   .     S
Cu479  O494    1.975   .     S
Cu479  O490    1.951   .     S
Cu479  N485    2.023   .     S
Cu479  O491    1.976   .     S
Cu479  O487    1.954   .     S
Cu480  O488    1.954   .     S
Cu480  O489    1.951   .     S
Cu480  O493    1.975   .     S
Cu480  O492    1.976   .     S
Cu480  N486    2.023   .     S
C495   C498    1.440   .     S
C495   O527    1.291   .     A
C495   O525    1.293   .     A
C496   C498    1.399   .     A
C496   F520    1.359   .     S
C497   C503    1.440   .     S
C497   C509    1.404   .     A
C497   C510    1.399   .     A
C498   C508    1.404   .     A
C499   N524    1.362   .     A
C499   F521    1.356   .     S
C500   N523    1.362   .     A
C500   F522    1.356   .     S
C500   C844    1.417   .     S
C501   N523    1.379   .     A
C501   Cl515   1.756   .     S
C501   C841    1.417   .     S
C502   Cl516   1.756   .     S
C502   N524    1.379   .     A
C503   O528    1.291   .     A
C503   O526    1.293   .     A
C504   O529    1.287   .     A
C504   C506    1.434   .     S
C504   O531    1.296   .     A
C505   O532    1.296   .     A
C505   C507    1.434   .     S
C505   O530    1.287   .     A
C507   C544    1.357   .     S
C507   Cl550   1.779   .     S
C508   Cl513   1.763   .     S
C509   Cl514   1.763   .     S
C509   C610    1.389   .     S
C510   F519    1.359   .     S
C510   C622    1.389   .     S
Cl511  C544    1.779   .     S
Cu517  Cu518   2.692   .     S
Cu517  O532    1.975   .     S
Cu517  O528    1.951   .     S
Cu517  N523    2.023   .     S
Cu517  O529    1.976   .     S
Cu517  O525    1.954   .     S
Cu518  O526    1.954   .     S
Cu518  O527    1.951   .     S
Cu518  O531    1.975   .     S
Cu518  O530    1.976   .     S
Cu518  N524    2.023   .     S
C533   C536    1.440   .     S
C533   O565    1.291   .     A
C533   O563    1.293   .     A
C534   C536    1.399   .     A
C534   F558    1.359   .     S
C535   C541    1.440   .     S
C535   C547    1.404   .     A
C535   C548    1.399   .     A
C536   C546    1.404   .     A
C537   N562    1.362   .     A
C537   F559    1.356   .     S
C538   N561    1.362   .     A
C538   F560    1.356   .     S
C538   C882    1.417   .     S
C539   N561    1.379   .     A
C539   Cl553   1.756   .     S
C539   C879    1.417   .     S
C540   Cl554   1.756   .     S
C540   N562    1.379   .     A
C541   O566    1.291   .     A
C541   O564    1.293   .     A
C542   O567    1.287   .     A
C542   C544    1.434   .     S
C542   O569    1.296   .     A
C543   O570    1.296   .     A
C543   C545    1.434   .     S
C543   O568    1.287   .     A
C545   C468    1.357   1_655 S
C545   Cl474   1.779   1_655 S
C546   Cl551   1.763   .     S
C547   Cl552   1.763   .     S
C547   C648    1.389   .     S
C548   F557    1.359   .     S
C548   C660    1.389   .     S
Cl549  C468    1.779   1_655 S
Cu555  Cu556   2.692   .     S
Cu555  O570    1.975   .     S
Cu555  O566    1.951   .     S
Cu555  N561    2.023   .     S
Cu555  O567    1.976   .     S
Cu555  O563    1.954   .     S
Cu556  O564    1.954   .     S
Cu556  O565    1.951   .     S
Cu556  O569    1.975   .     S
Cu556  O568    1.976   .     S
Cu556  N562    2.023   .     S
C571   C574    1.440   .     S
C571   O603    1.291   .     A
C571   O601    1.293   .     A
C572   C574    1.399   .     A
C572   F596    1.359   .     S
C573   C579    1.440   .     S
C573   C585    1.404   .     A
C573   C586    1.399   .     A
C574   C584    1.404   .     A
C575   N600    1.362   .     A
C575   F597    1.356   .     S
C576   N599    1.362   .     A
C576   F598    1.356   .     S
C576   C920    1.417   .     S
C577   N599    1.379   .     A
C577   Cl591   1.756   .     S
C577   C917    1.417   .     S
C578   Cl592   1.756   .     S
C578   N600    1.379   .     A
C579   O604    1.291   .     A
C579   O602    1.293   .     A
C580   O605    1.287   .     A
C580   C582    1.434   .     S
C580   O607    1.296   .     A
C581   O608    1.296   .     A
C581   C583    1.434   .     S
C581   O606    1.287   .     A
C582   C659    1.357   1_455 S
C582   Cl663   1.779   1_455 S
C583   C620    1.357   .     S
C583   Cl626   1.779   .     S
C584   Cl589   1.763   .     S
C585   Cl590   1.763   .     S
C585   C344    1.389   1_565 S
C586   F595    1.359   .     S
C586   C356    1.389   1_565 S
Cl587  C620    1.779   .     S
Cl588  C659    1.779   1_455 S
Cu593  Cu594   2.692   .     S
Cu593  O608    1.975   .     S
Cu593  O604    1.951   .     S
Cu593  N599    2.023   .     S
Cu593  O605    1.976   .     S
Cu593  O601    1.954   .     S
Cu594  O602    1.954   .     S
Cu594  O603    1.951   .     S
Cu594  O607    1.975   .     S
Cu594  O606    1.976   .     S
Cu594  N600    2.023   .     S
C609   C612    1.440   .     S
C609   O641    1.291   .     A
C609   O639    1.293   .     A
C610   C612    1.399   .     A
C610   F634    1.359   .     S
C611   C617    1.440   .     S
C611   C623    1.404   .     A
C611   C624    1.399   .     A
C612   C622    1.404   .     A
C613   N638    1.362   .     A
C613   F635    1.356   .     S
C614   N637    1.362   .     A
C614   F636    1.356   .     S
C614   C958    1.417   .     S
C615   N637    1.379   .     A
C615   Cl629   1.756   .     S
C615   C955    1.417   .     S
C616   Cl630   1.756   .     S
C616   N638    1.379   .     A
C617   O642    1.291   .     A
C617   O640    1.293   .     A
C618   O643    1.287   .     A
C618   C620    1.434   .     S
C618   O645    1.296   .     A
C619   O646    1.296   .     A
C619   C621    1.434   .     S
C619   O644    1.287   .     A
C621   C658    1.357   .     S
C621   Cl664   1.779   .     S
C622   Cl627   1.763   .     S
C623   Cl628   1.763   .     S
C623   C382    1.389   1_565 S
C624   F633    1.359   .     S
C624   C394    1.389   1_565 S
Cl625  C658    1.779   .     S
Cu631  Cu632   2.692   .     S
Cu631  O646    1.975   .     S
Cu631  O642    1.951   .     S
Cu631  N637    2.023   .     S
Cu631  O643    1.976   .     S
Cu631  O639    1.954   .     S
Cu632  O640    1.954   .     S
Cu632  O641    1.951   .     S
Cu632  O645    1.975   .     S
Cu632  O644    1.976   .     S
Cu632  N638    2.023   .     S
C647   C650    1.440   .     S
C647   O679    1.291   .     A
C647   O677    1.293   .     A
C648   C650    1.399   .     A
C648   F672    1.359   .     S
C649   C655    1.440   .     S
C649   C661    1.404   .     A
C649   C662    1.399   .     A
C650   C660    1.404   .     A
C651   N676    1.362   .     A
C651   F673    1.356   .     S
C652   N675    1.362   .     A
C652   F674    1.356   .     S
C652   C996    1.417   .     S
C653   N675    1.379   .     A
C653   Cl667   1.756   .     S
C653   C993    1.417   .     S
C654   Cl668   1.756   .     S
C654   N676    1.379   .     A
C655   O680    1.291   .     A
C655   O678    1.293   .     A
C656   O681    1.287   .     A
C656   C658    1.434   .     S
C656   O683    1.296   .     A
C657   O684    1.296   .     A
C657   C659    1.434   .     S
C657   O682    1.287   .     A
C659   C582    1.357   1_655 S
C659   Cl588   1.779   1_655 S
C660   Cl665   1.763   .     S
C661   Cl666   1.763   .     S
C661   C420    1.389   1_565 S
C662   F671    1.359   .     S
C662   C432    1.389   1_565 S
Cl663  C582    1.779   1_655 S
Cu669  Cu670   2.692   .     S
Cu669  O684    1.975   .     S
Cu669  O680    1.951   .     S
Cu669  N675    2.023   .     S
Cu669  O681    1.976   .     S
Cu669  O677    1.954   .     S
Cu670  O678    1.954   .     S
Cu670  O679    1.951   .     S
Cu670  O683    1.975   .     S
Cu670  O682    1.976   .     S
Cu670  N676    2.023   .     S
C685   C688    1.440   .     S
C685   O717    1.291   .     A
C685   O715    1.293   .     A
C686   C688    1.399   .     A
C686   F710    1.359   .     S
C686   C927    1.389   1_545 S
C687   C693    1.440   .     S
C687   C699    1.404   .     A
C687   C700    1.399   .     A
C688   C698    1.404   .     A
C689   N714    1.362   .     A
C689   F711    1.356   .     S
C690   N713    1.362   .     A
C690   F712    1.356   .     S
C690   C8      1.417   1_556 S
C691   N713    1.379   .     A
C691   Cl705   1.756   .     S
C691   C5      1.417   1_556 S
C692   Cl706   1.756   .     S
C692   N714    1.379   .     A
C693   O718    1.291   .     A
C693   O716    1.293   .     A
C694   O719    1.287   .     A
C694   C696    1.434   .     S
C694   O721    1.296   .     A
C695   O722    1.296   .     A
C695   C697    1.434   .     S
C695   O720    1.287   .     A
C696   C773    1.357   1_455 S
C696   Cl777   1.779   1_455 S
C697   C734    1.357   .     S
C697   Cl740   1.779   .     S
C698   Cl703   1.763   .     S
C698   C928    1.389   1_545 S
C699   Cl704   1.763   .     S
C699   C800    1.389   .     S
C700   F709    1.359   .     S
C700   C812    1.389   .     S
Cl701  C734    1.779   .     S
Cl702  C773    1.779   1_455 S
Cu707  Cu708   2.692   .     S
Cu707  O722    1.975   .     S
Cu707  O718    1.951   .     S
Cu707  N713    2.023   .     S
Cu707  O719    1.976   .     S
Cu707  O715    1.954   .     S
Cu708  O716    1.954   .     S
Cu708  O717    1.951   .     S
Cu708  O721    1.975   .     S
Cu708  O720    1.976   .     S
Cu708  N714    2.023   .     S
C723   C726    1.440   .     S
C723   O755    1.291   .     A
C723   O753    1.293   .     A
C724   C726    1.399   .     A
C724   F748    1.359   .     S
C724   C965    1.389   1_545 S
C725   C731    1.440   .     S
C725   C737    1.404   .     A
C725   C738    1.399   .     A
C726   C736    1.404   .     A
C727   N752    1.362   .     A
C727   F749    1.356   .     S
C728   N751    1.362   .     A
C728   F750    1.356   .     S
C728   C46     1.417   1_556 S
C729   N751    1.379   .     A
C729   Cl743   1.756   .     S
C729   C43     1.417   1_556 S
C730   Cl744   1.756   .     S
C730   N752    1.379   .     A
C731   O756    1.291   .     A
C731   O754    1.293   .     A
C732   O757    1.287   .     A
C732   C734    1.434   .     S
C732   O759    1.296   .     A
C733   O760    1.296   .     A
C733   C735    1.434   .     S
C733   O758    1.287   .     A
C735   C772    1.357   .     S
C735   Cl778   1.779   .     S
C736   Cl741   1.763   .     S
C736   C966    1.389   1_545 S
C737   Cl742   1.763   .     S
C737   C838    1.389   .     S
C738   F747    1.359   .     S
C738   C850    1.389   .     S
Cl739  C772    1.779   .     S
Cu745  Cu746   2.692   .     S
Cu745  O760    1.975   .     S
Cu745  O756    1.951   .     S
Cu745  N751    2.023   .     S
Cu745  O757    1.976   .     S
Cu745  O753    1.954   .     S
Cu746  O754    1.954   .     S
Cu746  O755    1.951   .     S
Cu746  O759    1.975   .     S
Cu746  O758    1.976   .     S
Cu746  N752    2.023   .     S
C761   C764    1.440   .     S
C761   O793    1.291   .     A
C761   O791    1.293   .     A
C762   C764    1.399   .     A
C762   F786    1.359   .     S
C762   C1003   1.389   1_545 S
C763   C769    1.440   .     S
C763   C775    1.404   .     A
C763   C776    1.399   .     A
C764   C774    1.404   .     A
C765   N790    1.362   .     A
C765   F787    1.356   .     S
C766   N789    1.362   .     A
C766   F788    1.356   .     S
C766   C84     1.417   1_556 S
C767   N789    1.379   .     A
C767   Cl781   1.756   .     S
C767   C81     1.417   1_556 S
C768   Cl782   1.756   .     S
C768   N790    1.379   .     A
C769   O794    1.291   .     A
C769   O792    1.293   .     A
C770   O795    1.287   .     A
C770   C772    1.434   .     S
C770   O797    1.296   .     A
C771   O798    1.296   .     A
C771   C773    1.434   .     S
C771   O796    1.287   .     A
C773   C696    1.357   1_655 S
C773   Cl702   1.779   1_655 S
C774   Cl779   1.763   .     S
C774   C1004   1.389   1_545 S
C775   Cl780   1.763   .     S
C775   C876    1.389   .     S
C776   F785    1.359   .     S
C776   C888    1.389   .     S
Cl777  C696    1.779   1_655 S
Cu783  Cu784   2.692   .     S
Cu783  O798    1.975   .     S
Cu783  O794    1.951   .     S
Cu783  N789    2.023   .     S
Cu783  O795    1.976   .     S
Cu783  O791    1.954   .     S
Cu784  O792    1.954   .     S
Cu784  O793    1.951   .     S
Cu784  O797    1.975   .     S
Cu784  O796    1.976   .     S
Cu784  N790    2.023   .     S
C799   C802    1.440   .     S
C799   O831    1.291   .     A
C799   O829    1.293   .     A
C800   C802    1.399   .     A
C800   F824    1.359   .     S
C801   C807    1.440   .     S
C801   C813    1.404   .     A
C801   C814    1.399   .     A
C802   C812    1.404   .     A
C803   N828    1.362   .     A
C803   F825    1.356   .     S
C804   N827    1.362   .     A
C804   F826    1.356   .     S
C804   C122    1.417   1_556 S
C805   N827    1.379   .     A
C805   Cl819   1.756   .     S
C805   C119    1.417   1_556 S
C806   Cl820   1.756   .     S
C806   N828    1.379   .     A
C807   O832    1.291   .     A
C807   O830    1.293   .     A
C808   O833    1.287   .     A
C808   C810    1.434   .     S
C808   O835    1.296   .     A
C809   O836    1.296   .     A
C809   C811    1.434   .     S
C809   O834    1.287   .     A
C810   C887    1.357   1_455 S
C810   Cl891   1.779   1_455 S
C811   C848    1.357   .     S
C811   Cl854   1.779   .     S
C812   Cl817   1.763   .     S
C813   Cl818   1.763   .     S
C813   C914    1.389   .     S
C814   F823    1.359   .     S
C814   C926    1.389   .     S
Cl815  C848    1.779   .     S
Cl816  C887    1.779   1_455 S
Cu821  Cu822   2.692   .     S
Cu821  O836    1.975   .     S
Cu821  O832    1.951   .     S
Cu821  N827    2.023   .     S
Cu821  O833    1.976   .     S
Cu821  O829    1.954   .     S
Cu822  O830    1.954   .     S
Cu822  O831    1.951   .     S
Cu822  O835    1.975   .     S
Cu822  O834    1.976   .     S
Cu822  N828    2.023   .     S
C837   C840    1.440   .     S
C837   O869    1.291   .     A
C837   O867    1.293   .     A
C838   C840    1.399   .     A
C838   F862    1.359   .     S
C839   C845    1.440   .     S
C839   C851    1.404   .     A
C839   C852    1.399   .     A
C840   C850    1.404   .     A
C841   N866    1.362   .     A
C841   F863    1.356   .     S
C842   N865    1.362   .     A
C842   F864    1.356   .     S
C842   C160    1.417   1_556 S
C843   N865    1.379   .     A
C843   Cl857   1.756   .     S
C843   C157    1.417   1_556 S
C844   Cl858   1.756   .     S
C844   N866    1.379   .     A
C845   O870    1.291   .     A
C845   O868    1.293   .     A
C846   O871    1.287   .     A
C846   C848    1.434   .     S
C846   O873    1.296   .     A
C847   O874    1.296   .     A
C847   C849    1.434   .     S
C847   O872    1.287   .     A
C849   C886    1.357   .     S
C849   Cl892   1.779   .     S
C850   Cl855   1.763   .     S
C851   Cl856   1.763   .     S
C851   C952    1.389   .     S
C852   F861    1.359   .     S
C852   C964    1.389   .     S
Cl853  C886    1.779   .     S
Cu859  Cu860   2.692   .     S
Cu859  O874    1.975   .     S
Cu859  O870    1.951   .     S
Cu859  N865    2.023   .     S
Cu859  O871    1.976   .     S
Cu859  O867    1.954   .     S
Cu860  O868    1.954   .     S
Cu860  O869    1.951   .     S
Cu860  O873    1.975   .     S
Cu860  O872    1.976   .     S
Cu860  N866    2.023   .     S
C875   C878    1.440   .     S
C875   O907    1.291   .     A
C875   O905    1.293   .     A
C876   C878    1.399   .     A
C876   F900    1.359   .     S
C877   C883    1.440   .     S
C877   C889    1.404   .     A
C877   C890    1.399   .     A
C878   C888    1.404   .     A
C879   N904    1.362   .     A
C879   F901    1.356   .     S
C880   N903    1.362   .     A
C880   F902    1.356   .     S
C880   C198    1.417   1_556 S
C881   N903    1.379   .     A
C881   Cl895   1.756   .     S
C881   C195    1.417   1_556 S
C882   Cl896   1.756   .     S
C882   N904    1.379   .     A
C883   O908    1.291   .     A
C883   O906    1.293   .     A
C884   O909    1.287   .     A
C884   C886    1.434   .     S
C884   O911    1.296   .     A
C885   O912    1.296   .     A
C885   C887    1.434   .     S
C885   O910    1.287   .     A
C887   C810    1.357   1_655 S
C887   Cl816   1.779   1_655 S
C888   Cl893   1.763   .     S
C889   Cl894   1.763   .     S
C889   C990    1.389   .     S
C890   F899    1.359   .     S
C890   C1002   1.389   .     S
Cl891  C810    1.779   1_655 S
Cu897  Cu898   2.692   .     S
Cu897  O912    1.975   .     S
Cu897  O908    1.951   .     S
Cu897  N903    2.023   .     S
Cu897  O909    1.976   .     S
Cu897  O905    1.954   .     S
Cu898  O906    1.954   .     S
Cu898  O907    1.951   .     S
Cu898  O911    1.975   .     S
Cu898  O910    1.976   .     S
Cu898  N904    2.023   .     S
C913   C916    1.440   .     S
C913   O945    1.291   .     A
C913   O943    1.293   .     A
C914   C916    1.399   .     A
C914   F938    1.359   .     S
C915   C921    1.440   .     S
C915   C927    1.404   .     A
C915   C928    1.399   .     A
C916   C926    1.404   .     A
C917   N942    1.362   .     A
C917   F939    1.356   .     S
C918   N941    1.362   .     A
C918   F940    1.356   .     S
C918   C236    1.417   1_556 S
C919   N941    1.379   .     A
C919   Cl933   1.756   .     S
C919   C233    1.417   1_556 S
C920   Cl934   1.756   .     S
C920   N942    1.379   .     A
C921   O946    1.291   .     A
C921   O944    1.293   .     A
C922   O947    1.287   .     A
C922   C924    1.434   .     S
C922   O949    1.296   .     A
C923   O950    1.296   .     A
C923   C925    1.434   .     S
C923   O948    1.287   .     A
C924   C1001   1.357   1_455 S
C924   Cl1005  1.779   1_455 S
C925   C962    1.357   .     S
C925   Cl968   1.779   .     S
C926   Cl931   1.763   .     S
C927   Cl932   1.763   .     S
C927   C686    1.389   1_565 S
C928   F937    1.359   .     S
C928   C698    1.389   1_565 S
Cl929  C962    1.779   .     S
Cl930  C1001   1.779   1_455 S
Cu935  Cu936   2.692   .     S
Cu935  O950    1.975   .     S
Cu935  O946    1.951   .     S
Cu935  N941    2.023   .     S
Cu935  O947    1.976   .     S
Cu935  O943    1.954   .     S
Cu936  O944    1.954   .     S
Cu936  O945    1.951   .     S
Cu936  O949    1.975   .     S
Cu936  O948    1.976   .     S
Cu936  N942    2.023   .     S
C951   C954    1.440   .     S
C951   O983    1.291   .     A
C951   O981    1.293   .     A
C952   C954    1.399   .     A
C952   F976    1.359   .     S
C953   C959    1.440   .     S
C953   C965    1.404   .     A
C953   C966    1.399   .     A
C954   C964    1.404   .     A
C955   N980    1.362   .     A
C955   F977    1.356   .     S
C956   N979    1.362   .     A
C956   F978    1.356   .     S
C956   C274    1.417   1_556 S
C957   N979    1.379   .     A
C957   Cl971   1.756   .     S
C957   C271    1.417   1_556 S
C958   Cl972   1.756   .     S
C958   N980    1.379   .     A
C959   O984    1.291   .     A
C959   O982    1.293   .     A
C960   O985    1.287   .     A
C960   C962    1.434   .     S
C960   O987    1.296   .     A
C961   O988    1.296   .     A
C961   C963    1.434   .     S
C961   O986    1.287   .     A
C963   C1000   1.357   .     S
C963   Cl1006  1.779   .     S
C964   Cl969   1.763   .     S
C965   Cl970   1.763   .     S
C965   C724    1.389   1_565 S
C966   F975    1.359   .     S
C966   C736    1.389   1_565 S
Cl967  C1000   1.779   .     S
Cu973  Cu974   2.692   .     S
Cu973  O988    1.975   .     S
Cu973  O984    1.951   .     S
Cu973  N979    2.023   .     S
Cu973  O985    1.976   .     S
Cu973  O981    1.954   .     S
Cu974  O982    1.954   .     S
Cu974  O983    1.951   .     S
Cu974  O987    1.975   .     S
Cu974  O986    1.976   .     S
Cu974  N980    2.023   .     S
C989   C992    1.440   .     S
C989   O1021   1.291   .     A
C989   O1019   1.293   .     A
C990   C992    1.399   .     A
C990   F1014   1.359   .     S
C991   C997    1.440   .     S
C991   C1003   1.404   .     A
C991   C1004   1.399   .     A
C992   C1002   1.404   .     A
C993   N1018   1.362   .     A
C993   F1015   1.356   .     S
C994   N1017   1.362   .     A
C994   F1016   1.356   .     S
C994   C312    1.417   1_556 S
C995   N1017   1.379   .     A
C995   Cl1009  1.756   .     S
C995   C309    1.417   1_556 S
C996   Cl1010  1.756   .     S
C996   N1018   1.379   .     A
C997   O1022   1.291   .     A
C997   O1020   1.293   .     A
C998   O1023   1.287   .     A
C998   C1000   1.434   .     S
C998   O1025   1.296   .     A
C999   O1026   1.296   .     A
C999   C1001   1.434   .     S
C999   O1024   1.287   .     A
C1001  C924    1.357   1_655 S
C1001  Cl930   1.779   1_655 S
C1002  Cl1007  1.763   .     S
C1003  Cl1008  1.763   .     S
C1003  C762    1.389   1_565 S
C1004  F1013   1.359   .     S
C1004  C774    1.389   1_565 S
Cl1005 C924    1.779   1_655 S
Cu1011 Cu1012  2.692   .     S
Cu1011 O1026   1.975   .     S
Cu1011 O1022   1.951   .     S
Cu1011 N1017   2.023   .     S
Cu1011 O1023   1.976   .     S
Cu1011 O1019   1.954   .     S
Cu1012 O1020   1.954   .     S
Cu1012 O1021   1.951   .     S
Cu1012 O1025   1.975   .     S
Cu1012 O1024   1.976   .     S
Cu1012 N1018   2.023   .     S
