data_str_m2_o1_o5_pcu_sym.75
_audit_creation_date              2020-01-03
_audit_creation_method            'Materials Studio'
_symmetry_space_group_name_H-M    'P1'
_symmetry_Int_Tables_number       1
_symmetry_cell_setting            triclinic
loop_
_symmetry_equiv_pos_as_xyz
  x,y,z
_cell_length_a                    32.2733
_cell_length_b                    28.7947
_cell_length_c                    27.2032
_cell_angle_alpha                 89.7109
_cell_angle_beta                  91.3567
_cell_angle_gamma                 89.5844
loop_
_atom_site_label
_atom_site_type_symbol
_atom_site_fract_x
_atom_site_fract_y
_atom_site_fract_z
_atom_site_U_iso_or_equiv
_atom_site_adp_type
_atom_site_occupancy
C1     C     0.08762   0.16680   0.16653   0.00000  Uiso   1.00
C2     C     0.02293   0.16689   0.21192   0.00000  Uiso   1.00
C3     C     0.29043   0.16626   0.16700   0.00000  Uiso   1.00
C4     C     0.04290   0.16704   0.16632   0.00000  Uiso   1.00
C5     C     0.13947   0.02535   0.13698   0.00000  Uiso   1.00
C6     C     0.19358   0.30760   0.19635   0.00000  Uiso   1.00
C7     C     0.19446   0.02358   0.19570   0.00000  Uiso   1.00
C8     C     0.13966   0.30879   0.13675   0.00000  Uiso   1.00
C9     C     0.04295   0.16709   0.07238   0.00000  Uiso   1.00
C10    C     0.29037   0.16606   0.26094   0.00000  Uiso   1.00
C11    C     0.28424   0.16609   0.07409   0.00000  Uiso   1.00
C12    C     0.24571   0.16653   0.16680   0.00000  Uiso   1.00
C13    C     0.04908   0.16717   0.25924   0.00000  Uiso   1.00
C14    C     0.16673   0.16674   0.07362   0.00000  Uiso   1.00
C15    C     0.16659   0.16660   0.25972   0.00000  Uiso   1.00
C16    C     0.16669   0.16676   0.02187   0.00000  Uiso   1.00
C17    C     0.16664   0.16657   0.31147   0.00000  Uiso   1.00
C18    C     0.02064   0.16682   0.12097   0.00000  Uiso   1.00
C19    C     0.31268   0.16643   0.21235   0.00000  Uiso   1.00
C20    C     0.31040   0.16638   0.12141   0.00000  Uiso   1.00
Cu21   Cu    0.16667   0.21355   0.16667   0.00000  Uiso   1.00
Cu22   Cu    0.16667   0.11978   0.16667   0.00000  Uiso   1.00
H23    H     0.07713   0.16769   0.07616   0.00000  Uiso   1.00
H24    H     0.06879   0.19861   0.26016   0.00000  Uiso   1.00
H25    H     0.03109   0.16730   0.29328   0.00000  Uiso   1.00
H26    H     0.06935   0.13585   0.26081   0.00000  Uiso   1.00
H27    H     0.08099   0.04180   0.11410   0.00000  Uiso   1.00
H28    H     0.11659   0.04190   0.06909   0.00000  Uiso   1.00
H29    H     0.21698   0.29222   0.26416   0.00000  Uiso   1.00
H30    H     0.25198   0.29033   0.21867   0.00000  Uiso   1.00
H31    H     0.21526   0.06955   0.24845   0.00000  Uiso   1.00
H32    H     0.24950   0.05779   0.20182   0.00000  Uiso   1.00
H33    H     0.11703   0.29346   0.06871   0.00000  Uiso   1.00
H34    H     0.03497   0.13535   0.05128   0.00000  Uiso   1.00
H35    H     0.08131   0.29320   0.11360   0.00000  Uiso   1.00
H36    H     0.03374   0.19849   0.05080   0.00000  Uiso   1.00
H37    H     0.25619   0.16539   0.25716   0.00000  Uiso   1.00
H38    H     0.29962   0.13465   0.28248   0.00000  Uiso   1.00
H39    H     0.29830   0.19779   0.28208   0.00000  Uiso   1.00
H40    H     0.26452   0.13466   0.07320   0.00000  Uiso   1.00
H41    H     0.26398   0.19741   0.07251   0.00000  Uiso   1.00
H42    H     0.30222   0.16594   0.04005   0.00000  Uiso   1.00
N43    N     0.16667   0.28402   0.16667   0.00000  Uiso   1.00
N44    N     0.16667   0.04931   0.16667   0.00000  Uiso   1.00
N45    N     0.11126   0.05092   0.10556   0.00000  Uiso   1.00
N46    N     0.22166   0.28195   0.22789   0.00000  Uiso   1.00
N47    N     0.22671   0.04484   0.22457   0.00000  Uiso   1.00
N48    N     0.11166   0.28393   0.10511   0.00000  Uiso   1.00
O49    O     0.10655   0.20625   0.16666   0.00000  Uiso   1.00
O50    O     0.22679   0.12709   0.16667   0.00000  Uiso   1.00
O51    O     0.22679   0.20625   0.16667   0.00000  Uiso   1.00
O52    O     0.10655   0.12709   0.16666   0.00000  Uiso   1.00
O53    O     0.16667   0.20625   0.09613   0.00000  Uiso   1.00
O54    O     0.16667   0.12708   0.23720   0.00000  Uiso   1.00
O55    O     0.16667   0.20625   0.23720   0.00000  Uiso   1.00
O56    O     0.16667   0.12708   0.09613   0.00000  Uiso   1.00
C57    C     0.42095   0.16680   0.16653   0.00000  Uiso   1.00
C58    C     0.35626   0.16689   0.21192   0.00000  Uiso   1.00
C59    C     0.62376   0.16626   0.16700   0.00000  Uiso   1.00
C60    C     0.37623   0.16704   0.16632   0.00000  Uiso   1.00
C61    C     0.47280   0.02535   0.13698   0.00000  Uiso   1.00
C62    C     0.52691   0.30760   0.19635   0.00000  Uiso   1.00
C63    C     0.52779   0.02358   0.19570   0.00000  Uiso   1.00
C64    C     0.47299   0.30879   0.13675   0.00000  Uiso   1.00
C65    C     0.37628   0.16709   0.07238   0.00000  Uiso   1.00
C66    C     0.62370   0.16606   0.26094   0.00000  Uiso   1.00
C67    C     0.61758   0.16609   0.07409   0.00000  Uiso   1.00
C68    C     0.57904   0.16653   0.16680   0.00000  Uiso   1.00
C69    C     0.38241   0.16717   0.25924   0.00000  Uiso   1.00
C70    C     0.50006   0.16674   0.07362   0.00000  Uiso   1.00
C71    C     0.49993   0.16660   0.25972   0.00000  Uiso   1.00
C72    C     0.50002   0.16676   0.02187   0.00000  Uiso   1.00
C73    C     0.49997   0.16657   0.31147   0.00000  Uiso   1.00
C74    C     0.35397   0.16682   0.12097   0.00000  Uiso   1.00
C75    C     0.64602   0.16643   0.21235   0.00000  Uiso   1.00
C76    C     0.64373   0.16638   0.12141   0.00000  Uiso   1.00
Cu77   Cu    0.50000   0.21355   0.16667   0.00000  Uiso   1.00
Cu78   Cu    0.50000   0.11978   0.16667   0.00000  Uiso   1.00
H79    H     0.41046   0.16769   0.07616   0.00000  Uiso   1.00
H80    H     0.40213   0.19861   0.26016   0.00000  Uiso   1.00
H81    H     0.36443   0.16730   0.29328   0.00000  Uiso   1.00
H82    H     0.40269   0.13585   0.26081   0.00000  Uiso   1.00
H83    H     0.41432   0.04180   0.11410   0.00000  Uiso   1.00
H84    H     0.44993   0.04190   0.06909   0.00000  Uiso   1.00
H85    H     0.55031   0.29222   0.26416   0.00000  Uiso   1.00
H86    H     0.58532   0.29033   0.21867   0.00000  Uiso   1.00
H87    H     0.54859   0.06955   0.24845   0.00000  Uiso   1.00
H88    H     0.58283   0.05779   0.20182   0.00000  Uiso   1.00
H89    H     0.45037   0.29346   0.06871   0.00000  Uiso   1.00
H90    H     0.36830   0.13535   0.05128   0.00000  Uiso   1.00
H91    H     0.41464   0.29320   0.11360   0.00000  Uiso   1.00
H92    H     0.36708   0.19849   0.05080   0.00000  Uiso   1.00
H93    H     0.58952   0.16539   0.25716   0.00000  Uiso   1.00
H94    H     0.63295   0.13465   0.28248   0.00000  Uiso   1.00
H95    H     0.63163   0.19779   0.28208   0.00000  Uiso   1.00
H96    H     0.59785   0.13466   0.07320   0.00000  Uiso   1.00
H97    H     0.59731   0.19741   0.07251   0.00000  Uiso   1.00
H98    H     0.63556   0.16594   0.04005   0.00000  Uiso   1.00
N99    N     0.50000   0.28402   0.16667   0.00000  Uiso   1.00
N100   N     0.50000   0.04931   0.16667   0.00000  Uiso   1.00
N101   N     0.44459   0.05092   0.10556   0.00000  Uiso   1.00
N102   N     0.55499   0.28195   0.22789   0.00000  Uiso   1.00
N103   N     0.56004   0.04484   0.22457   0.00000  Uiso   1.00
N104   N     0.44499   0.28393   0.10511   0.00000  Uiso   1.00
O105   O     0.43988   0.20625   0.16666   0.00000  Uiso   1.00
O106   O     0.56012   0.12709   0.16667   0.00000  Uiso   1.00
O107   O     0.56012   0.20625   0.16667   0.00000  Uiso   1.00
O108   O     0.43988   0.12709   0.16666   0.00000  Uiso   1.00
O109   O     0.50000   0.20625   0.09613   0.00000  Uiso   1.00
O110   O     0.50000   0.12708   0.23720   0.00000  Uiso   1.00
O111   O     0.50000   0.20625   0.23720   0.00000  Uiso   1.00
O112   O     0.50000   0.12708   0.09613   0.00000  Uiso   1.00
C113   C     0.75429   0.16680   0.16653   0.00000  Uiso   1.00
C114   C     0.68959   0.16689   0.21192   0.00000  Uiso   1.00
C115   C     0.95709   0.16626   0.16700   0.00000  Uiso   1.00
C116   C     0.70957   0.16704   0.16632   0.00000  Uiso   1.00
C117   C     0.80614   0.02535   0.13698   0.00000  Uiso   1.00
C118   C     0.86025   0.30760   0.19635   0.00000  Uiso   1.00
C119   C     0.86112   0.02358   0.19570   0.00000  Uiso   1.00
C120   C     0.80633   0.30879   0.13675   0.00000  Uiso   1.00
C121   C     0.70962   0.16709   0.07238   0.00000  Uiso   1.00
C122   C     0.95703   0.16606   0.26094   0.00000  Uiso   1.00
C123   C     0.95091   0.16609   0.07409   0.00000  Uiso   1.00
C124   C     0.91238   0.16653   0.16680   0.00000  Uiso   1.00
C125   C     0.71574   0.16717   0.25924   0.00000  Uiso   1.00
C126   C     0.83340   0.16674   0.07362   0.00000  Uiso   1.00
C127   C     0.83326   0.16660   0.25972   0.00000  Uiso   1.00
C128   C     0.83335   0.16676   0.02187   0.00000  Uiso   1.00
C129   C     0.83331   0.16657   0.31147   0.00000  Uiso   1.00
C130   C     0.68731   0.16682   0.12097   0.00000  Uiso   1.00
C131   C     0.97935   0.16643   0.21235   0.00000  Uiso   1.00
C132   C     0.97706   0.16638   0.12141   0.00000  Uiso   1.00
Cu133  Cu    0.83333   0.21355   0.16667   0.00000  Uiso   1.00
Cu134  Cu    0.83333   0.11978   0.16667   0.00000  Uiso   1.00
H135   H     0.74380   0.16769   0.07616   0.00000  Uiso   1.00
H136   H     0.73546   0.19861   0.26016   0.00000  Uiso   1.00
H137   H     0.69776   0.16730   0.29328   0.00000  Uiso   1.00
H138   H     0.73602   0.13585   0.26081   0.00000  Uiso   1.00
H139   H     0.74765   0.04180   0.11410   0.00000  Uiso   1.00
H140   H     0.78326   0.04190   0.06909   0.00000  Uiso   1.00
H141   H     0.88364   0.29222   0.26416   0.00000  Uiso   1.00
H142   H     0.91865   0.29033   0.21867   0.00000  Uiso   1.00
H143   H     0.88192   0.06955   0.24845   0.00000  Uiso   1.00
H144   H     0.91616   0.05779   0.20182   0.00000  Uiso   1.00
H145   H     0.78370   0.29346   0.06871   0.00000  Uiso   1.00
H146   H     0.70164   0.13535   0.05128   0.00000  Uiso   1.00
H147   H     0.74797   0.29320   0.11360   0.00000  Uiso   1.00
H148   H     0.70041   0.19849   0.05080   0.00000  Uiso   1.00
H149   H     0.92286   0.16539   0.25716   0.00000  Uiso   1.00
H150   H     0.96628   0.13465   0.28248   0.00000  Uiso   1.00
H151   H     0.96497   0.19779   0.28208   0.00000  Uiso   1.00
H152   H     0.93119   0.13466   0.07320   0.00000  Uiso   1.00
H153   H     0.93064   0.19741   0.07251   0.00000  Uiso   1.00
H154   H     0.96889   0.16594   0.04005   0.00000  Uiso   1.00
N155   N     0.83333   0.28402   0.16667   0.00000  Uiso   1.00
N156   N     0.83333   0.04931   0.16667   0.00000  Uiso   1.00
N157   N     0.77793   0.05092   0.10556   0.00000  Uiso   1.00
N158   N     0.88833   0.28195   0.22789   0.00000  Uiso   1.00
N159   N     0.89338   0.04484   0.22457   0.00000  Uiso   1.00
N160   N     0.77833   0.28393   0.10511   0.00000  Uiso   1.00
O161   O     0.77321   0.20625   0.16666   0.00000  Uiso   1.00
O162   O     0.89345   0.12709   0.16667   0.00000  Uiso   1.00
O163   O     0.89345   0.20625   0.16667   0.00000  Uiso   1.00
O164   O     0.77321   0.12709   0.16666   0.00000  Uiso   1.00
O165   O     0.83333   0.20625   0.09613   0.00000  Uiso   1.00
O166   O     0.83333   0.12708   0.23720   0.00000  Uiso   1.00
O167   O     0.83333   0.20625   0.23720   0.00000  Uiso   1.00
O168   O     0.83333   0.12708   0.09613   0.00000  Uiso   1.00
C169   C     0.08762   0.50014   0.16653   0.00000  Uiso   1.00
C170   C     0.02293   0.50022   0.21192   0.00000  Uiso   1.00
C171   C     0.29043   0.49960   0.16700   0.00000  Uiso   1.00
C172   C     0.04290   0.50038   0.16632   0.00000  Uiso   1.00
C173   C     0.13947   0.35868   0.13698   0.00000  Uiso   1.00
C174   C     0.19358   0.64093   0.19635   0.00000  Uiso   1.00
C175   C     0.19446   0.35691   0.19570   0.00000  Uiso   1.00
C176   C     0.13966   0.64212   0.13675   0.00000  Uiso   1.00
C177   C     0.04295   0.50042   0.07238   0.00000  Uiso   1.00
C178   C     0.29037   0.49939   0.26094   0.00000  Uiso   1.00
C179   C     0.28424   0.49943   0.07409   0.00000  Uiso   1.00
C180   C     0.24571   0.49986   0.16680   0.00000  Uiso   1.00
C181   C     0.04908   0.50050   0.25924   0.00000  Uiso   1.00
C182   C     0.16673   0.50007   0.07362   0.00000  Uiso   1.00
C183   C     0.16659   0.49993   0.25972   0.00000  Uiso   1.00
C184   C     0.16669   0.50010   0.02187   0.00000  Uiso   1.00
C185   C     0.16664   0.49990   0.31147   0.00000  Uiso   1.00
C186   C     0.02064   0.50015   0.12097   0.00000  Uiso   1.00
C187   C     0.31268   0.49977   0.21235   0.00000  Uiso   1.00
C188   C     0.31040   0.49972   0.12141   0.00000  Uiso   1.00
Cu189  Cu    0.16667   0.54689   0.16667   0.00000  Uiso   1.00
Cu190  Cu    0.16667   0.45311   0.16667   0.00000  Uiso   1.00
H191   H     0.07713   0.50103   0.07616   0.00000  Uiso   1.00
H192   H     0.06879   0.53194   0.26016   0.00000  Uiso   1.00
H193   H     0.03109   0.50063   0.29328   0.00000  Uiso   1.00
H194   H     0.06935   0.46918   0.26081   0.00000  Uiso   1.00
H195   H     0.08099   0.37513   0.11410   0.00000  Uiso   1.00
H196   H     0.11659   0.37523   0.06909   0.00000  Uiso   1.00
H197   H     0.21698   0.62555   0.26416   0.00000  Uiso   1.00
H198   H     0.25198   0.62366   0.21867   0.00000  Uiso   1.00
H199   H     0.21526   0.40288   0.24845   0.00000  Uiso   1.00
H200   H     0.24950   0.39113   0.20182   0.00000  Uiso   1.00
H201   H     0.11703   0.62679   0.06871   0.00000  Uiso   1.00
H202   H     0.03497   0.46868   0.05128   0.00000  Uiso   1.00
H203   H     0.08131   0.62653   0.11360   0.00000  Uiso   1.00
H204   H     0.03374   0.53182   0.05080   0.00000  Uiso   1.00
H205   H     0.25619   0.49872   0.25716   0.00000  Uiso   1.00
H206   H     0.29962   0.46798   0.28248   0.00000  Uiso   1.00
H207   H     0.29830   0.53113   0.28208   0.00000  Uiso   1.00
H208   H     0.26452   0.46799   0.07320   0.00000  Uiso   1.00
H209   H     0.26398   0.53075   0.07251   0.00000  Uiso   1.00
H210   H     0.30222   0.49927   0.04005   0.00000  Uiso   1.00
N211   N     0.16667   0.61736   0.16667   0.00000  Uiso   1.00
N212   N     0.16667   0.38264   0.16667   0.00000  Uiso   1.00
N213   N     0.11126   0.38426   0.10556   0.00000  Uiso   1.00
N214   N     0.22166   0.61528   0.22789   0.00000  Uiso   1.00
N215   N     0.22671   0.37817   0.22457   0.00000  Uiso   1.00
N216   N     0.11166   0.61727   0.10511   0.00000  Uiso   1.00
O217   O     0.10655   0.53958   0.16666   0.00000  Uiso   1.00
O218   O     0.22679   0.46042   0.16667   0.00000  Uiso   1.00
O219   O     0.22679   0.53958   0.16667   0.00000  Uiso   1.00
O220   O     0.10655   0.46042   0.16666   0.00000  Uiso   1.00
O221   O     0.16667   0.53959   0.09613   0.00000  Uiso   1.00
O222   O     0.16667   0.46041   0.23720   0.00000  Uiso   1.00
O223   O     0.16667   0.53959   0.23720   0.00000  Uiso   1.00
O224   O     0.16667   0.46041   0.09613   0.00000  Uiso   1.00
C225   C     0.42095   0.50014   0.16653   0.00000  Uiso   1.00
C226   C     0.35626   0.50022   0.21192   0.00000  Uiso   1.00
C227   C     0.62376   0.49960   0.16700   0.00000  Uiso   1.00
C228   C     0.37623   0.50038   0.16632   0.00000  Uiso   1.00
C229   C     0.47280   0.35868   0.13698   0.00000  Uiso   1.00
C230   C     0.52691   0.64093   0.19635   0.00000  Uiso   1.00
C231   C     0.52779   0.35691   0.19570   0.00000  Uiso   1.00
C232   C     0.47299   0.64212   0.13675   0.00000  Uiso   1.00
C233   C     0.37628   0.50042   0.07238   0.00000  Uiso   1.00
C234   C     0.62370   0.49939   0.26094   0.00000  Uiso   1.00
C235   C     0.61758   0.49943   0.07409   0.00000  Uiso   1.00
C236   C     0.57904   0.49986   0.16680   0.00000  Uiso   1.00
C237   C     0.38241   0.50050   0.25924   0.00000  Uiso   1.00
C238   C     0.50006   0.50007   0.07362   0.00000  Uiso   1.00
C239   C     0.49993   0.49993   0.25972   0.00000  Uiso   1.00
C240   C     0.50002   0.50010   0.02187   0.00000  Uiso   1.00
C241   C     0.49997   0.49990   0.31147   0.00000  Uiso   1.00
C242   C     0.35397   0.50015   0.12097   0.00000  Uiso   1.00
C243   C     0.64602   0.49977   0.21235   0.00000  Uiso   1.00
C244   C     0.64373   0.49972   0.12141   0.00000  Uiso   1.00
Cu245  Cu    0.50000   0.54689   0.16667   0.00000  Uiso   1.00
Cu246  Cu    0.50000   0.45311   0.16667   0.00000  Uiso   1.00
H247   H     0.41046   0.50103   0.07616   0.00000  Uiso   1.00
H248   H     0.40213   0.53194   0.26016   0.00000  Uiso   1.00
H249   H     0.36443   0.50063   0.29328   0.00000  Uiso   1.00
H250   H     0.40269   0.46918   0.26081   0.00000  Uiso   1.00
H251   H     0.41432   0.37513   0.11410   0.00000  Uiso   1.00
H252   H     0.44993   0.37523   0.06909   0.00000  Uiso   1.00
H253   H     0.55031   0.62555   0.26416   0.00000  Uiso   1.00
H254   H     0.58532   0.62366   0.21867   0.00000  Uiso   1.00
H255   H     0.54859   0.40288   0.24845   0.00000  Uiso   1.00
H256   H     0.58283   0.39113   0.20182   0.00000  Uiso   1.00
H257   H     0.45037   0.62679   0.06871   0.00000  Uiso   1.00
H258   H     0.36830   0.46868   0.05128   0.00000  Uiso   1.00
H259   H     0.41464   0.62653   0.11360   0.00000  Uiso   1.00
H260   H     0.36708   0.53182   0.05080   0.00000  Uiso   1.00
H261   H     0.58952   0.49872   0.25716   0.00000  Uiso   1.00
H262   H     0.63295   0.46798   0.28248   0.00000  Uiso   1.00
H263   H     0.63163   0.53113   0.28208   0.00000  Uiso   1.00
H264   H     0.59785   0.46799   0.07320   0.00000  Uiso   1.00
H265   H     0.59731   0.53075   0.07251   0.00000  Uiso   1.00
H266   H     0.63556   0.49927   0.04005   0.00000  Uiso   1.00
N267   N     0.50000   0.61736   0.16667   0.00000  Uiso   1.00
N268   N     0.50000   0.38264   0.16667   0.00000  Uiso   1.00
N269   N     0.44459   0.38426   0.10556   0.00000  Uiso   1.00
N270   N     0.55499   0.61528   0.22789   0.00000  Uiso   1.00
N271   N     0.56004   0.37817   0.22457   0.00000  Uiso   1.00
N272   N     0.44499   0.61727   0.10511   0.00000  Uiso   1.00
O273   O     0.43988   0.53958   0.16666   0.00000  Uiso   1.00
O274   O     0.56012   0.46042   0.16667   0.00000  Uiso   1.00
O275   O     0.56012   0.53958   0.16667   0.00000  Uiso   1.00
O276   O     0.43988   0.46042   0.16666   0.00000  Uiso   1.00
O277   O     0.50000   0.53959   0.09613   0.00000  Uiso   1.00
O278   O     0.50000   0.46041   0.23720   0.00000  Uiso   1.00
O279   O     0.50000   0.53959   0.23720   0.00000  Uiso   1.00
O280   O     0.50000   0.46041   0.09613   0.00000  Uiso   1.00
C281   C     0.75429   0.50014   0.16653   0.00000  Uiso   1.00
C282   C     0.68959   0.50022   0.21192   0.00000  Uiso   1.00
C283   C     0.95709   0.49960   0.16700   0.00000  Uiso   1.00
C284   C     0.70957   0.50038   0.16632   0.00000  Uiso   1.00
C285   C     0.80614   0.35868   0.13698   0.00000  Uiso   1.00
C286   C     0.86025   0.64093   0.19635   0.00000  Uiso   1.00
C287   C     0.86112   0.35691   0.19570   0.00000  Uiso   1.00
C288   C     0.80633   0.64212   0.13675   0.00000  Uiso   1.00
C289   C     0.70962   0.50042   0.07238   0.00000  Uiso   1.00
C290   C     0.95703   0.49939   0.26094   0.00000  Uiso   1.00
C291   C     0.95091   0.49943   0.07409   0.00000  Uiso   1.00
C292   C     0.91238   0.49986   0.16680   0.00000  Uiso   1.00
C293   C     0.71574   0.50050   0.25924   0.00000  Uiso   1.00
C294   C     0.83340   0.50007   0.07362   0.00000  Uiso   1.00
C295   C     0.83326   0.49993   0.25972   0.00000  Uiso   1.00
C296   C     0.83335   0.50010   0.02187   0.00000  Uiso   1.00
C297   C     0.83331   0.49990   0.31147   0.00000  Uiso   1.00
C298   C     0.68731   0.50015   0.12097   0.00000  Uiso   1.00
C299   C     0.97935   0.49977   0.21235   0.00000  Uiso   1.00
C300   C     0.97706   0.49972   0.12141   0.00000  Uiso   1.00
Cu301  Cu    0.83333   0.54689   0.16667   0.00000  Uiso   1.00
Cu302  Cu    0.83333   0.45311   0.16667   0.00000  Uiso   1.00
H303   H     0.74380   0.50103   0.07616   0.00000  Uiso   1.00
H304   H     0.73546   0.53194   0.26016   0.00000  Uiso   1.00
H305   H     0.69776   0.50063   0.29328   0.00000  Uiso   1.00
H306   H     0.73602   0.46918   0.26081   0.00000  Uiso   1.00
H307   H     0.74765   0.37513   0.11410   0.00000  Uiso   1.00
H308   H     0.78326   0.37523   0.06909   0.00000  Uiso   1.00
H309   H     0.88364   0.62555   0.26416   0.00000  Uiso   1.00
H310   H     0.91865   0.62366   0.21867   0.00000  Uiso   1.00
H311   H     0.88192   0.40288   0.24845   0.00000  Uiso   1.00
H312   H     0.91616   0.39113   0.20182   0.00000  Uiso   1.00
H313   H     0.78370   0.62679   0.06871   0.00000  Uiso   1.00
H314   H     0.70164   0.46868   0.05128   0.00000  Uiso   1.00
H315   H     0.74797   0.62653   0.11360   0.00000  Uiso   1.00
H316   H     0.70041   0.53182   0.05080   0.00000  Uiso   1.00
H317   H     0.92286   0.49872   0.25716   0.00000  Uiso   1.00
H318   H     0.96628   0.46798   0.28248   0.00000  Uiso   1.00
H319   H     0.96497   0.53113   0.28208   0.00000  Uiso   1.00
H320   H     0.93119   0.46799   0.07320   0.00000  Uiso   1.00
H321   H     0.93064   0.53075   0.07251   0.00000  Uiso   1.00
H322   H     0.96889   0.49927   0.04005   0.00000  Uiso   1.00
N323   N     0.83333   0.61736   0.16667   0.00000  Uiso   1.00
N324   N     0.83333   0.38264   0.16667   0.00000  Uiso   1.00
N325   N     0.77793   0.38426   0.10556   0.00000  Uiso   1.00
N326   N     0.88833   0.61528   0.22789   0.00000  Uiso   1.00
N327   N     0.89338   0.37817   0.22457   0.00000  Uiso   1.00
N328   N     0.77833   0.61727   0.10511   0.00000  Uiso   1.00
O329   O     0.77321   0.53958   0.16666   0.00000  Uiso   1.00
O330   O     0.89345   0.46042   0.16667   0.00000  Uiso   1.00
O331   O     0.89345   0.53958   0.16667   0.00000  Uiso   1.00
O332   O     0.77321   0.46042   0.16666   0.00000  Uiso   1.00
O333   O     0.83333   0.53959   0.09613   0.00000  Uiso   1.00
O334   O     0.83333   0.46041   0.23720   0.00000  Uiso   1.00
O335   O     0.83333   0.53959   0.23720   0.00000  Uiso   1.00
O336   O     0.83333   0.46041   0.09613   0.00000  Uiso   1.00
C337   C     0.08762   0.83347   0.16653   0.00000  Uiso   1.00
C338   C     0.02293   0.83356   0.21192   0.00000  Uiso   1.00
C339   C     0.29043   0.83293   0.16700   0.00000  Uiso   1.00
C340   C     0.04290   0.83371   0.16632   0.00000  Uiso   1.00
C341   C     0.13947   0.69201   0.13698   0.00000  Uiso   1.00
C342   C     0.19358   0.97427   0.19635   0.00000  Uiso   1.00
C343   C     0.19446   0.69024   0.19570   0.00000  Uiso   1.00
C344   C     0.13966   0.97546   0.13675   0.00000  Uiso   1.00
C345   C     0.04295   0.83376   0.07238   0.00000  Uiso   1.00
C346   C     0.29037   0.83273   0.26094   0.00000  Uiso   1.00
C347   C     0.28424   0.83276   0.07409   0.00000  Uiso   1.00
C348   C     0.24571   0.83319   0.16680   0.00000  Uiso   1.00
C349   C     0.04908   0.83383   0.25924   0.00000  Uiso   1.00
C350   C     0.16673   0.83340   0.07362   0.00000  Uiso   1.00
C351   C     0.16659   0.83326   0.25972   0.00000  Uiso   1.00
C352   C     0.16669   0.83343   0.02187   0.00000  Uiso   1.00
C353   C     0.16664   0.83324   0.31147   0.00000  Uiso   1.00
C354   C     0.02064   0.83348   0.12097   0.00000  Uiso   1.00
C355   C     0.31268   0.83310   0.21235   0.00000  Uiso   1.00
C356   C     0.31040   0.83305   0.12141   0.00000  Uiso   1.00
Cu357  Cu    0.16667   0.88022   0.16667   0.00000  Uiso   1.00
Cu358  Cu    0.16667   0.78645   0.16667   0.00000  Uiso   1.00
H359   H     0.07713   0.83436   0.07616   0.00000  Uiso   1.00
H360   H     0.06879   0.86527   0.26016   0.00000  Uiso   1.00
H361   H     0.03109   0.83396   0.29328   0.00000  Uiso   1.00
H362   H     0.06935   0.80252   0.26081   0.00000  Uiso   1.00
H363   H     0.08099   0.70847   0.11410   0.00000  Uiso   1.00
H364   H     0.11659   0.70857   0.06909   0.00000  Uiso   1.00
H365   H     0.21698   0.95889   0.26416   0.00000  Uiso   1.00
H366   H     0.25198   0.95700   0.21867   0.00000  Uiso   1.00
H367   H     0.21526   0.73621   0.24845   0.00000  Uiso   1.00
H368   H     0.24950   0.72446   0.20182   0.00000  Uiso   1.00
H369   H     0.11703   0.96012   0.06871   0.00000  Uiso   1.00
H370   H     0.03497   0.80201   0.05128   0.00000  Uiso   1.00
H371   H     0.08131   0.95986   0.11360   0.00000  Uiso   1.00
H372   H     0.03374   0.86516   0.05080   0.00000  Uiso   1.00
H373   H     0.25619   0.83205   0.25716   0.00000  Uiso   1.00
H374   H     0.29962   0.80132   0.28248   0.00000  Uiso   1.00
H375   H     0.29830   0.86446   0.28208   0.00000  Uiso   1.00
H376   H     0.26452   0.80132   0.07320   0.00000  Uiso   1.00
H377   H     0.26398   0.86408   0.07251   0.00000  Uiso   1.00
H378   H     0.30222   0.83261   0.04005   0.00000  Uiso   1.00
N379   N     0.16667   0.95069   0.16667   0.00000  Uiso   1.00
N380   N     0.16667   0.71598   0.16667   0.00000  Uiso   1.00
N381   N     0.11126   0.71759   0.10556   0.00000  Uiso   1.00
N382   N     0.22166   0.94862   0.22789   0.00000  Uiso   1.00
N383   N     0.22671   0.71150   0.22457   0.00000  Uiso   1.00
N384   N     0.11166   0.95060   0.10511   0.00000  Uiso   1.00
O385   O     0.10655   0.87291   0.16666   0.00000  Uiso   1.00
O386   O     0.22679   0.79375   0.16667   0.00000  Uiso   1.00
O387   O     0.22679   0.87291   0.16667   0.00000  Uiso   1.00
O388   O     0.10655   0.79375   0.16666   0.00000  Uiso   1.00
O389   O     0.16667   0.87292   0.09613   0.00000  Uiso   1.00
O390   O     0.16667   0.79375   0.23720   0.00000  Uiso   1.00
O391   O     0.16667   0.87292   0.23720   0.00000  Uiso   1.00
O392   O     0.16667   0.79375   0.09613   0.00000  Uiso   1.00
C393   C     0.42095   0.83347   0.16653   0.00000  Uiso   1.00
C394   C     0.35626   0.83356   0.21192   0.00000  Uiso   1.00
C395   C     0.62376   0.83293   0.16700   0.00000  Uiso   1.00
C396   C     0.37623   0.83371   0.16632   0.00000  Uiso   1.00
C397   C     0.47280   0.69201   0.13698   0.00000  Uiso   1.00
C398   C     0.52691   0.97427   0.19635   0.00000  Uiso   1.00
C399   C     0.52779   0.69024   0.19570   0.00000  Uiso   1.00
C400   C     0.47299   0.97546   0.13675   0.00000  Uiso   1.00
C401   C     0.37628   0.83376   0.07238   0.00000  Uiso   1.00
C402   C     0.62370   0.83273   0.26094   0.00000  Uiso   1.00
C403   C     0.61758   0.83276   0.07409   0.00000  Uiso   1.00
C404   C     0.57904   0.83319   0.16680   0.00000  Uiso   1.00
C405   C     0.38241   0.83383   0.25924   0.00000  Uiso   1.00
C406   C     0.50006   0.83340   0.07362   0.00000  Uiso   1.00
C407   C     0.49993   0.83326   0.25972   0.00000  Uiso   1.00
C408   C     0.50002   0.83343   0.02187   0.00000  Uiso   1.00
C409   C     0.49997   0.83324   0.31147   0.00000  Uiso   1.00
C410   C     0.35397   0.83348   0.12097   0.00000  Uiso   1.00
C411   C     0.64602   0.83310   0.21235   0.00000  Uiso   1.00
C412   C     0.64373   0.83305   0.12141   0.00000  Uiso   1.00
Cu413  Cu    0.50000   0.88022   0.16667   0.00000  Uiso   1.00
Cu414  Cu    0.50000   0.78645   0.16667   0.00000  Uiso   1.00
H415   H     0.41046   0.83436   0.07616   0.00000  Uiso   1.00
H416   H     0.40213   0.86527   0.26016   0.00000  Uiso   1.00
H417   H     0.36443   0.83396   0.29328   0.00000  Uiso   1.00
H418   H     0.40269   0.80252   0.26081   0.00000  Uiso   1.00
H419   H     0.41432   0.70847   0.11410   0.00000  Uiso   1.00
H420   H     0.44993   0.70857   0.06909   0.00000  Uiso   1.00
H421   H     0.55031   0.95889   0.26416   0.00000  Uiso   1.00
H422   H     0.58532   0.95700   0.21867   0.00000  Uiso   1.00
H423   H     0.54859   0.73621   0.24845   0.00000  Uiso   1.00
H424   H     0.58283   0.72446   0.20182   0.00000  Uiso   1.00
H425   H     0.45037   0.96012   0.06871   0.00000  Uiso   1.00
H426   H     0.36830   0.80201   0.05128   0.00000  Uiso   1.00
H427   H     0.41464   0.95986   0.11360   0.00000  Uiso   1.00
H428   H     0.36708   0.86516   0.05080   0.00000  Uiso   1.00
H429   H     0.58952   0.83205   0.25716   0.00000  Uiso   1.00
H430   H     0.63295   0.80132   0.28248   0.00000  Uiso   1.00
H431   H     0.63163   0.86446   0.28208   0.00000  Uiso   1.00
H432   H     0.59785   0.80132   0.07320   0.00000  Uiso   1.00
H433   H     0.59731   0.86408   0.07251   0.00000  Uiso   1.00
H434   H     0.63556   0.83261   0.04005   0.00000  Uiso   1.00
N435   N     0.50000   0.95069   0.16667   0.00000  Uiso   1.00
N436   N     0.50000   0.71598   0.16667   0.00000  Uiso   1.00
N437   N     0.44459   0.71759   0.10556   0.00000  Uiso   1.00
N438   N     0.55499   0.94862   0.22789   0.00000  Uiso   1.00
N439   N     0.56004   0.71150   0.22457   0.00000  Uiso   1.00
N440   N     0.44499   0.95060   0.10511   0.00000  Uiso   1.00
O441   O     0.43988   0.87291   0.16666   0.00000  Uiso   1.00
O442   O     0.56012   0.79375   0.16667   0.00000  Uiso   1.00
O443   O     0.56012   0.87291   0.16667   0.00000  Uiso   1.00
O444   O     0.43988   0.79375   0.16666   0.00000  Uiso   1.00
O445   O     0.50000   0.87292   0.09613   0.00000  Uiso   1.00
O446   O     0.50000   0.79375   0.23720   0.00000  Uiso   1.00
O447   O     0.50000   0.87292   0.23720   0.00000  Uiso   1.00
O448   O     0.50000   0.79375   0.09613   0.00000  Uiso   1.00
C449   C     0.75429   0.83347   0.16653   0.00000  Uiso   1.00
C450   C     0.68959   0.83356   0.21192   0.00000  Uiso   1.00
C451   C     0.95709   0.83293   0.16700   0.00000  Uiso   1.00
C452   C     0.70957   0.83371   0.16632   0.00000  Uiso   1.00
C453   C     0.80614   0.69201   0.13698   0.00000  Uiso   1.00
C454   C     0.86025   0.97427   0.19635   0.00000  Uiso   1.00
C455   C     0.86112   0.69024   0.19570   0.00000  Uiso   1.00
C456   C     0.80633   0.97546   0.13675   0.00000  Uiso   1.00
C457   C     0.70962   0.83376   0.07238   0.00000  Uiso   1.00
C458   C     0.95703   0.83273   0.26094   0.00000  Uiso   1.00
C459   C     0.95091   0.83276   0.07409   0.00000  Uiso   1.00
C460   C     0.91238   0.83319   0.16680   0.00000  Uiso   1.00
C461   C     0.71574   0.83383   0.25924   0.00000  Uiso   1.00
C462   C     0.83340   0.83340   0.07362   0.00000  Uiso   1.00
C463   C     0.83326   0.83326   0.25972   0.00000  Uiso   1.00
C464   C     0.83335   0.83343   0.02187   0.00000  Uiso   1.00
C465   C     0.83331   0.83324   0.31147   0.00000  Uiso   1.00
C466   C     0.68731   0.83348   0.12097   0.00000  Uiso   1.00
C467   C     0.97935   0.83310   0.21235   0.00000  Uiso   1.00
C468   C     0.97706   0.83305   0.12141   0.00000  Uiso   1.00
Cu469  Cu    0.83333   0.88022   0.16667   0.00000  Uiso   1.00
Cu470  Cu    0.83333   0.78645   0.16667   0.00000  Uiso   1.00
H471   H     0.74380   0.83436   0.07616   0.00000  Uiso   1.00
H472   H     0.73546   0.86527   0.26016   0.00000  Uiso   1.00
H473   H     0.69776   0.83396   0.29328   0.00000  Uiso   1.00
H474   H     0.73602   0.80252   0.26081   0.00000  Uiso   1.00
H475   H     0.74765   0.70847   0.11410   0.00000  Uiso   1.00
H476   H     0.78326   0.70857   0.06909   0.00000  Uiso   1.00
H477   H     0.88364   0.95889   0.26416   0.00000  Uiso   1.00
H478   H     0.91865   0.95700   0.21867   0.00000  Uiso   1.00
H479   H     0.88192   0.73621   0.24845   0.00000  Uiso   1.00
H480   H     0.91616   0.72446   0.20182   0.00000  Uiso   1.00
H481   H     0.78370   0.96012   0.06871   0.00000  Uiso   1.00
H482   H     0.70164   0.80201   0.05128   0.00000  Uiso   1.00
H483   H     0.74797   0.95986   0.11360   0.00000  Uiso   1.00
H484   H     0.70041   0.86516   0.05080   0.00000  Uiso   1.00
H485   H     0.92286   0.83205   0.25716   0.00000  Uiso   1.00
H486   H     0.96628   0.80132   0.28248   0.00000  Uiso   1.00
H487   H     0.96497   0.86446   0.28208   0.00000  Uiso   1.00
H488   H     0.93119   0.80132   0.07320   0.00000  Uiso   1.00
H489   H     0.93064   0.86408   0.07251   0.00000  Uiso   1.00
H490   H     0.96889   0.83261   0.04005   0.00000  Uiso   1.00
N491   N     0.83333   0.95069   0.16667   0.00000  Uiso   1.00
N492   N     0.83333   0.71598   0.16667   0.00000  Uiso   1.00
N493   N     0.77793   0.71759   0.10556   0.00000  Uiso   1.00
N494   N     0.88833   0.94862   0.22789   0.00000  Uiso   1.00
N495   N     0.89338   0.71150   0.22457   0.00000  Uiso   1.00
N496   N     0.77833   0.95060   0.10511   0.00000  Uiso   1.00
O497   O     0.77321   0.87291   0.16666   0.00000  Uiso   1.00
O498   O     0.89345   0.79375   0.16667   0.00000  Uiso   1.00
O499   O     0.89345   0.87291   0.16667   0.00000  Uiso   1.00
O500   O     0.77321   0.79375   0.16666   0.00000  Uiso   1.00
O501   O     0.83333   0.87292   0.09613   0.00000  Uiso   1.00
O502   O     0.83333   0.79375   0.23720   0.00000  Uiso   1.00
O503   O     0.83333   0.87292   0.23720   0.00000  Uiso   1.00
O504   O     0.83333   0.79375   0.09613   0.00000  Uiso   1.00
C505   C     0.08762   0.16680   0.49986   0.00000  Uiso   1.00
C506   C     0.02293   0.16689   0.54525   0.00000  Uiso   1.00
C507   C     0.29043   0.16626   0.50034   0.00000  Uiso   1.00
C508   C     0.04290   0.16704   0.49966   0.00000  Uiso   1.00
C509   C     0.13947   0.02535   0.47031   0.00000  Uiso   1.00
C510   C     0.19358   0.30760   0.52968   0.00000  Uiso   1.00
C511   C     0.19446   0.02358   0.52903   0.00000  Uiso   1.00
C512   C     0.13966   0.30879   0.47009   0.00000  Uiso   1.00
C513   C     0.04295   0.16709   0.40571   0.00000  Uiso   1.00
C514   C     0.29037   0.16606   0.59428   0.00000  Uiso   1.00
C515   C     0.28424   0.16609   0.40743   0.00000  Uiso   1.00
C516   C     0.24571   0.16653   0.50013   0.00000  Uiso   1.00
C517   C     0.04908   0.16717   0.59258   0.00000  Uiso   1.00
C518   C     0.16673   0.16674   0.40695   0.00000  Uiso   1.00
C519   C     0.16659   0.16660   0.59305   0.00000  Uiso   1.00
C520   C     0.16669   0.16676   0.35520   0.00000  Uiso   1.00
C521   C     0.16664   0.16657   0.64480   0.00000  Uiso   1.00
C522   C     0.02064   0.16682   0.45431   0.00000  Uiso   1.00
C523   C     0.31268   0.16643   0.54569   0.00000  Uiso   1.00
C524   C     0.31040   0.16638   0.45475   0.00000  Uiso   1.00
Cu525  Cu    0.16667   0.21355   0.50000   0.00000  Uiso   1.00
Cu526  Cu    0.16667   0.11978   0.50000   0.00000  Uiso   1.00
H527   H     0.07713   0.16769   0.40949   0.00000  Uiso   1.00
H528   H     0.06879   0.19861   0.59349   0.00000  Uiso   1.00
H529   H     0.03109   0.16730   0.62662   0.00000  Uiso   1.00
H530   H     0.06935   0.13585   0.59414   0.00000  Uiso   1.00
H531   H     0.08099   0.04180   0.44743   0.00000  Uiso   1.00
H532   H     0.11659   0.04190   0.40242   0.00000  Uiso   1.00
H533   H     0.21698   0.29222   0.59749   0.00000  Uiso   1.00
H534   H     0.25198   0.29033   0.55200   0.00000  Uiso   1.00
H535   H     0.21526   0.06955   0.58178   0.00000  Uiso   1.00
H536   H     0.24950   0.05779   0.53515   0.00000  Uiso   1.00
H537   H     0.11703   0.29346   0.40204   0.00000  Uiso   1.00
H538   H     0.03497   0.13535   0.38462   0.00000  Uiso   1.00
H539   H     0.08131   0.29320   0.44694   0.00000  Uiso   1.00
H540   H     0.03374   0.19849   0.38413   0.00000  Uiso   1.00
H541   H     0.25619   0.16539   0.59049   0.00000  Uiso   1.00
H542   H     0.29962   0.13465   0.61581   0.00000  Uiso   1.00
H543   H     0.29830   0.19779   0.61542   0.00000  Uiso   1.00
H544   H     0.26452   0.13466   0.40653   0.00000  Uiso   1.00
H545   H     0.26398   0.19741   0.40584   0.00000  Uiso   1.00
H546   H     0.30222   0.16594   0.37338   0.00000  Uiso   1.00
N547   N     0.16667   0.28402   0.50000   0.00000  Uiso   1.00
N548   N     0.16667   0.04931   0.50000   0.00000  Uiso   1.00
N549   N     0.11126   0.05092   0.43889   0.00000  Uiso   1.00
N550   N     0.22166   0.28195   0.56122   0.00000  Uiso   1.00
N551   N     0.22671   0.04484   0.55790   0.00000  Uiso   1.00
N552   N     0.11166   0.28393   0.43844   0.00000  Uiso   1.00
O553   O     0.10655   0.20625   0.50000   0.00000  Uiso   1.00
O554   O     0.22679   0.12709   0.50000   0.00000  Uiso   1.00
O555   O     0.22679   0.20625   0.50000   0.00000  Uiso   1.00
O556   O     0.10655   0.12709   0.50000   0.00000  Uiso   1.00
O557   O     0.16667   0.20625   0.42946   0.00000  Uiso   1.00
O558   O     0.16667   0.12708   0.57054   0.00000  Uiso   1.00
O559   O     0.16667   0.20625   0.57054   0.00000  Uiso   1.00
O560   O     0.16667   0.12708   0.42946   0.00000  Uiso   1.00
C561   C     0.42095   0.16680   0.49986   0.00000  Uiso   1.00
C562   C     0.35626   0.16689   0.54525   0.00000  Uiso   1.00
C563   C     0.62376   0.16626   0.50034   0.00000  Uiso   1.00
C564   C     0.37623   0.16704   0.49966   0.00000  Uiso   1.00
C565   C     0.47280   0.02535   0.47031   0.00000  Uiso   1.00
C566   C     0.52691   0.30760   0.52968   0.00000  Uiso   1.00
C567   C     0.52779   0.02358   0.52903   0.00000  Uiso   1.00
C568   C     0.47299   0.30879   0.47009   0.00000  Uiso   1.00
C569   C     0.37628   0.16709   0.40571   0.00000  Uiso   1.00
C570   C     0.62370   0.16606   0.59428   0.00000  Uiso   1.00
C571   C     0.61758   0.16609   0.40743   0.00000  Uiso   1.00
C572   C     0.57904   0.16653   0.50013   0.00000  Uiso   1.00
C573   C     0.38241   0.16717   0.59258   0.00000  Uiso   1.00
C574   C     0.50006   0.16674   0.40695   0.00000  Uiso   1.00
C575   C     0.49993   0.16660   0.59305   0.00000  Uiso   1.00
C576   C     0.50002   0.16676   0.35520   0.00000  Uiso   1.00
C577   C     0.49997   0.16657   0.64480   0.00000  Uiso   1.00
C578   C     0.35397   0.16682   0.45431   0.00000  Uiso   1.00
C579   C     0.64602   0.16643   0.54569   0.00000  Uiso   1.00
C580   C     0.64373   0.16638   0.45475   0.00000  Uiso   1.00
Cu581  Cu    0.50000   0.21355   0.50000   0.00000  Uiso   1.00
Cu582  Cu    0.50000   0.11978   0.50000   0.00000  Uiso   1.00
H583   H     0.41046   0.16769   0.40949   0.00000  Uiso   1.00
H584   H     0.40213   0.19861   0.59349   0.00000  Uiso   1.00
H585   H     0.36443   0.16730   0.62662   0.00000  Uiso   1.00
H586   H     0.40269   0.13585   0.59414   0.00000  Uiso   1.00
H587   H     0.41432   0.04180   0.44743   0.00000  Uiso   1.00
H588   H     0.44993   0.04190   0.40242   0.00000  Uiso   1.00
H589   H     0.55031   0.29222   0.59749   0.00000  Uiso   1.00
H590   H     0.58532   0.29033   0.55200   0.00000  Uiso   1.00
H591   H     0.54859   0.06955   0.58178   0.00000  Uiso   1.00
H592   H     0.58283   0.05779   0.53515   0.00000  Uiso   1.00
H593   H     0.45037   0.29346   0.40204   0.00000  Uiso   1.00
H594   H     0.36830   0.13535   0.38462   0.00000  Uiso   1.00
H595   H     0.41464   0.29320   0.44694   0.00000  Uiso   1.00
H596   H     0.36708   0.19849   0.38413   0.00000  Uiso   1.00
H597   H     0.58952   0.16539   0.59049   0.00000  Uiso   1.00
H598   H     0.63295   0.13465   0.61581   0.00000  Uiso   1.00
H599   H     0.63163   0.19779   0.61542   0.00000  Uiso   1.00
H600   H     0.59785   0.13466   0.40653   0.00000  Uiso   1.00
H601   H     0.59731   0.19741   0.40584   0.00000  Uiso   1.00
H602   H     0.63556   0.16594   0.37338   0.00000  Uiso   1.00
N603   N     0.50000   0.28402   0.50000   0.00000  Uiso   1.00
N604   N     0.50000   0.04931   0.50000   0.00000  Uiso   1.00
N605   N     0.44459   0.05092   0.43889   0.00000  Uiso   1.00
N606   N     0.55499   0.28195   0.56122   0.00000  Uiso   1.00
N607   N     0.56004   0.04484   0.55790   0.00000  Uiso   1.00
N608   N     0.44499   0.28393   0.43844   0.00000  Uiso   1.00
O609   O     0.43988   0.20625   0.50000   0.00000  Uiso   1.00
O610   O     0.56012   0.12709   0.50000   0.00000  Uiso   1.00
O611   O     0.56012   0.20625   0.50000   0.00000  Uiso   1.00
O612   O     0.43988   0.12709   0.50000   0.00000  Uiso   1.00
O613   O     0.50000   0.20625   0.42946   0.00000  Uiso   1.00
O614   O     0.50000   0.12708   0.57054   0.00000  Uiso   1.00
O615   O     0.50000   0.20625   0.57054   0.00000  Uiso   1.00
O616   O     0.50000   0.12708   0.42946   0.00000  Uiso   1.00
C617   C     0.75429   0.16680   0.49986   0.00000  Uiso   1.00
C618   C     0.68959   0.16689   0.54525   0.00000  Uiso   1.00
C619   C     0.95709   0.16626   0.50034   0.00000  Uiso   1.00
C620   C     0.70957   0.16704   0.49966   0.00000  Uiso   1.00
C621   C     0.80614   0.02535   0.47031   0.00000  Uiso   1.00
C622   C     0.86025   0.30760   0.52968   0.00000  Uiso   1.00
C623   C     0.86112   0.02358   0.52903   0.00000  Uiso   1.00
C624   C     0.80633   0.30879   0.47009   0.00000  Uiso   1.00
C625   C     0.70962   0.16709   0.40571   0.00000  Uiso   1.00
C626   C     0.95703   0.16606   0.59428   0.00000  Uiso   1.00
C627   C     0.95091   0.16609   0.40743   0.00000  Uiso   1.00
C628   C     0.91238   0.16653   0.50013   0.00000  Uiso   1.00
C629   C     0.71574   0.16717   0.59258   0.00000  Uiso   1.00
C630   C     0.83340   0.16674   0.40695   0.00000  Uiso   1.00
C631   C     0.83326   0.16660   0.59305   0.00000  Uiso   1.00
C632   C     0.83335   0.16676   0.35520   0.00000  Uiso   1.00
C633   C     0.83331   0.16657   0.64480   0.00000  Uiso   1.00
C634   C     0.68731   0.16682   0.45431   0.00000  Uiso   1.00
C635   C     0.97935   0.16643   0.54569   0.00000  Uiso   1.00
C636   C     0.97706   0.16638   0.45475   0.00000  Uiso   1.00
Cu637  Cu    0.83333   0.21355   0.50000   0.00000  Uiso   1.00
Cu638  Cu    0.83333   0.11978   0.50000   0.00000  Uiso   1.00
H639   H     0.74380   0.16769   0.40949   0.00000  Uiso   1.00
H640   H     0.73546   0.19861   0.59349   0.00000  Uiso   1.00
H641   H     0.69776   0.16730   0.62662   0.00000  Uiso   1.00
H642   H     0.73602   0.13585   0.59414   0.00000  Uiso   1.00
H643   H     0.74765   0.04180   0.44743   0.00000  Uiso   1.00
H644   H     0.78326   0.04190   0.40242   0.00000  Uiso   1.00
H645   H     0.88364   0.29222   0.59749   0.00000  Uiso   1.00
H646   H     0.91865   0.29033   0.55200   0.00000  Uiso   1.00
H647   H     0.88192   0.06955   0.58178   0.00000  Uiso   1.00
H648   H     0.91616   0.05779   0.53515   0.00000  Uiso   1.00
H649   H     0.78370   0.29346   0.40204   0.00000  Uiso   1.00
H650   H     0.70164   0.13535   0.38462   0.00000  Uiso   1.00
H651   H     0.74797   0.29320   0.44694   0.00000  Uiso   1.00
H652   H     0.70041   0.19849   0.38413   0.00000  Uiso   1.00
H653   H     0.92286   0.16539   0.59049   0.00000  Uiso   1.00
H654   H     0.96628   0.13465   0.61581   0.00000  Uiso   1.00
H655   H     0.96497   0.19779   0.61542   0.00000  Uiso   1.00
H656   H     0.93119   0.13466   0.40653   0.00000  Uiso   1.00
H657   H     0.93064   0.19741   0.40584   0.00000  Uiso   1.00
H658   H     0.96889   0.16594   0.37338   0.00000  Uiso   1.00
N659   N     0.83333   0.28402   0.50000   0.00000  Uiso   1.00
N660   N     0.83333   0.04931   0.50000   0.00000  Uiso   1.00
N661   N     0.77793   0.05092   0.43889   0.00000  Uiso   1.00
N662   N     0.88833   0.28195   0.56122   0.00000  Uiso   1.00
N663   N     0.89338   0.04484   0.55790   0.00000  Uiso   1.00
N664   N     0.77833   0.28393   0.43844   0.00000  Uiso   1.00
O665   O     0.77321   0.20625   0.50000   0.00000  Uiso   1.00
O666   O     0.89345   0.12709   0.50000   0.00000  Uiso   1.00
O667   O     0.89345   0.20625   0.50000   0.00000  Uiso   1.00
O668   O     0.77321   0.12709   0.50000   0.00000  Uiso   1.00
O669   O     0.83333   0.20625   0.42946   0.00000  Uiso   1.00
O670   O     0.83333   0.12708   0.57054   0.00000  Uiso   1.00
O671   O     0.83333   0.20625   0.57054   0.00000  Uiso   1.00
O672   O     0.83333   0.12708   0.42946   0.00000  Uiso   1.00
C673   C     0.08762   0.50014   0.49986   0.00000  Uiso   1.00
C674   C     0.02293   0.50022   0.54525   0.00000  Uiso   1.00
C675   C     0.29043   0.49960   0.50034   0.00000  Uiso   1.00
C676   C     0.04290   0.50038   0.49966   0.00000  Uiso   1.00
C677   C     0.13947   0.35868   0.47031   0.00000  Uiso   1.00
C678   C     0.19358   0.64093   0.52968   0.00000  Uiso   1.00
C679   C     0.19446   0.35691   0.52903   0.00000  Uiso   1.00
C680   C     0.13966   0.64212   0.47009   0.00000  Uiso   1.00
C681   C     0.04295   0.50042   0.40571   0.00000  Uiso   1.00
C682   C     0.29037   0.49939   0.59428   0.00000  Uiso   1.00
C683   C     0.28424   0.49943   0.40743   0.00000  Uiso   1.00
C684   C     0.24571   0.49986   0.50013   0.00000  Uiso   1.00
C685   C     0.04908   0.50050   0.59258   0.00000  Uiso   1.00
C686   C     0.16673   0.50007   0.40695   0.00000  Uiso   1.00
C687   C     0.16659   0.49993   0.59305   0.00000  Uiso   1.00
C688   C     0.16669   0.50010   0.35520   0.00000  Uiso   1.00
C689   C     0.16664   0.49990   0.64480   0.00000  Uiso   1.00
C690   C     0.02064   0.50015   0.45431   0.00000  Uiso   1.00
C691   C     0.31268   0.49977   0.54569   0.00000  Uiso   1.00
C692   C     0.31040   0.49972   0.45475   0.00000  Uiso   1.00
Cu693  Cu    0.16667   0.54689   0.50000   0.00000  Uiso   1.00
Cu694  Cu    0.16667   0.45311   0.50000   0.00000  Uiso   1.00
H695   H     0.07713   0.50103   0.40949   0.00000  Uiso   1.00
H696   H     0.06879   0.53194   0.59349   0.00000  Uiso   1.00
H697   H     0.03109   0.50063   0.62662   0.00000  Uiso   1.00
H698   H     0.06935   0.46918   0.59414   0.00000  Uiso   1.00
H699   H     0.08099   0.37513   0.44743   0.00000  Uiso   1.00
H700   H     0.11659   0.37523   0.40242   0.00000  Uiso   1.00
H701   H     0.21698   0.62555   0.59749   0.00000  Uiso   1.00
H702   H     0.25198   0.62366   0.55200   0.00000  Uiso   1.00
H703   H     0.21526   0.40288   0.58178   0.00000  Uiso   1.00
H704   H     0.24950   0.39113   0.53515   0.00000  Uiso   1.00
H705   H     0.11703   0.62679   0.40204   0.00000  Uiso   1.00
H706   H     0.03497   0.46868   0.38462   0.00000  Uiso   1.00
H707   H     0.08131   0.62653   0.44694   0.00000  Uiso   1.00
H708   H     0.03374   0.53182   0.38413   0.00000  Uiso   1.00
H709   H     0.25619   0.49872   0.59049   0.00000  Uiso   1.00
H710   H     0.29962   0.46798   0.61581   0.00000  Uiso   1.00
H711   H     0.29830   0.53113   0.61542   0.00000  Uiso   1.00
H712   H     0.26452   0.46799   0.40653   0.00000  Uiso   1.00
H713   H     0.26398   0.53075   0.40584   0.00000  Uiso   1.00
H714   H     0.30222   0.49927   0.37338   0.00000  Uiso   1.00
N715   N     0.16667   0.61736   0.50000   0.00000  Uiso   1.00
N716   N     0.16667   0.38264   0.50000   0.00000  Uiso   1.00
N717   N     0.11126   0.38426   0.43889   0.00000  Uiso   1.00
N718   N     0.22166   0.61528   0.56122   0.00000  Uiso   1.00
N719   N     0.22671   0.37817   0.55790   0.00000  Uiso   1.00
N720   N     0.11166   0.61727   0.43844   0.00000  Uiso   1.00
O721   O     0.10655   0.53958   0.50000   0.00000  Uiso   1.00
O722   O     0.22679   0.46042   0.50000   0.00000  Uiso   1.00
O723   O     0.22679   0.53958   0.50000   0.00000  Uiso   1.00
O724   O     0.10655   0.46042   0.50000   0.00000  Uiso   1.00
O725   O     0.16667   0.53959   0.42946   0.00000  Uiso   1.00
O726   O     0.16667   0.46041   0.57054   0.00000  Uiso   1.00
O727   O     0.16667   0.53959   0.57054   0.00000  Uiso   1.00
O728   O     0.16667   0.46041   0.42946   0.00000  Uiso   1.00
C729   C     0.42095   0.50014   0.49986   0.00000  Uiso   1.00
C730   C     0.35626   0.50022   0.54525   0.00000  Uiso   1.00
C731   C     0.62376   0.49960   0.50034   0.00000  Uiso   1.00
C732   C     0.37623   0.50038   0.49966   0.00000  Uiso   1.00
C733   C     0.47280   0.35868   0.47031   0.00000  Uiso   1.00
C734   C     0.52691   0.64093   0.52968   0.00000  Uiso   1.00
C735   C     0.52779   0.35691   0.52903   0.00000  Uiso   1.00
C736   C     0.47299   0.64212   0.47009   0.00000  Uiso   1.00
C737   C     0.37628   0.50042   0.40571   0.00000  Uiso   1.00
C738   C     0.62370   0.49939   0.59428   0.00000  Uiso   1.00
C739   C     0.61758   0.49943   0.40743   0.00000  Uiso   1.00
C740   C     0.57904   0.49986   0.50013   0.00000  Uiso   1.00
C741   C     0.38241   0.50050   0.59258   0.00000  Uiso   1.00
C742   C     0.50006   0.50007   0.40695   0.00000  Uiso   1.00
C743   C     0.49993   0.49993   0.59305   0.00000  Uiso   1.00
C744   C     0.50002   0.50010   0.35520   0.00000  Uiso   1.00
C745   C     0.49997   0.49990   0.64480   0.00000  Uiso   1.00
C746   C     0.35397   0.50015   0.45431   0.00000  Uiso   1.00
C747   C     0.64602   0.49977   0.54569   0.00000  Uiso   1.00
C748   C     0.64373   0.49972   0.45475   0.00000  Uiso   1.00
Cu749  Cu    0.50000   0.54689   0.50000   0.00000  Uiso   1.00
Cu750  Cu    0.50000   0.45311   0.50000   0.00000  Uiso   1.00
H751   H     0.41046   0.50103   0.40949   0.00000  Uiso   1.00
H752   H     0.40213   0.53194   0.59349   0.00000  Uiso   1.00
H753   H     0.36443   0.50063   0.62662   0.00000  Uiso   1.00
H754   H     0.40269   0.46918   0.59414   0.00000  Uiso   1.00
H755   H     0.41432   0.37513   0.44743   0.00000  Uiso   1.00
H756   H     0.44993   0.37523   0.40242   0.00000  Uiso   1.00
H757   H     0.55031   0.62555   0.59749   0.00000  Uiso   1.00
H758   H     0.58532   0.62366   0.55200   0.00000  Uiso   1.00
H759   H     0.54859   0.40288   0.58178   0.00000  Uiso   1.00
H760   H     0.58283   0.39113   0.53515   0.00000  Uiso   1.00
H761   H     0.45037   0.62679   0.40204   0.00000  Uiso   1.00
H762   H     0.36830   0.46868   0.38462   0.00000  Uiso   1.00
H763   H     0.41464   0.62653   0.44694   0.00000  Uiso   1.00
H764   H     0.36708   0.53182   0.38413   0.00000  Uiso   1.00
H765   H     0.58952   0.49872   0.59049   0.00000  Uiso   1.00
H766   H     0.63295   0.46798   0.61581   0.00000  Uiso   1.00
H767   H     0.63163   0.53113   0.61542   0.00000  Uiso   1.00
H768   H     0.59785   0.46799   0.40653   0.00000  Uiso   1.00
H769   H     0.59731   0.53075   0.40584   0.00000  Uiso   1.00
H770   H     0.63556   0.49927   0.37338   0.00000  Uiso   1.00
N771   N     0.50000   0.61736   0.50000   0.00000  Uiso   1.00
N772   N     0.50000   0.38264   0.50000   0.00000  Uiso   1.00
N773   N     0.44459   0.38426   0.43889   0.00000  Uiso   1.00
N774   N     0.55499   0.61528   0.56122   0.00000  Uiso   1.00
N775   N     0.56004   0.37817   0.55790   0.00000  Uiso   1.00
N776   N     0.44499   0.61727   0.43844   0.00000  Uiso   1.00
O777   O     0.43988   0.53958   0.50000   0.00000  Uiso   1.00
O778   O     0.56012   0.46042   0.50000   0.00000  Uiso   1.00
O779   O     0.56012   0.53958   0.50000   0.00000  Uiso   1.00
O780   O     0.43988   0.46042   0.50000   0.00000  Uiso   1.00
O781   O     0.50000   0.53959   0.42946   0.00000  Uiso   1.00
O782   O     0.50000   0.46041   0.57054   0.00000  Uiso   1.00
O783   O     0.50000   0.53959   0.57054   0.00000  Uiso   1.00
O784   O     0.50000   0.46041   0.42946   0.00000  Uiso   1.00
C785   C     0.75429   0.50014   0.49986   0.00000  Uiso   1.00
C786   C     0.68959   0.50022   0.54525   0.00000  Uiso   1.00
C787   C     0.95709   0.49960   0.50034   0.00000  Uiso   1.00
C788   C     0.70957   0.50038   0.49966   0.00000  Uiso   1.00
C789   C     0.80614   0.35868   0.47031   0.00000  Uiso   1.00
C790   C     0.86025   0.64093   0.52968   0.00000  Uiso   1.00
C791   C     0.86112   0.35691   0.52903   0.00000  Uiso   1.00
C792   C     0.80633   0.64212   0.47009   0.00000  Uiso   1.00
C793   C     0.70962   0.50042   0.40571   0.00000  Uiso   1.00
C794   C     0.95703   0.49939   0.59428   0.00000  Uiso   1.00
C795   C     0.95091   0.49943   0.40743   0.00000  Uiso   1.00
C796   C     0.91238   0.49986   0.50013   0.00000  Uiso   1.00
C797   C     0.71574   0.50050   0.59258   0.00000  Uiso   1.00
C798   C     0.83340   0.50007   0.40695   0.00000  Uiso   1.00
C799   C     0.83326   0.49993   0.59305   0.00000  Uiso   1.00
C800   C     0.83335   0.50010   0.35520   0.00000  Uiso   1.00
C801   C     0.83331   0.49990   0.64480   0.00000  Uiso   1.00
C802   C     0.68731   0.50015   0.45431   0.00000  Uiso   1.00
C803   C     0.97935   0.49977   0.54569   0.00000  Uiso   1.00
C804   C     0.97706   0.49972   0.45475   0.00000  Uiso   1.00
Cu805  Cu    0.83333   0.54689   0.50000   0.00000  Uiso   1.00
Cu806  Cu    0.83333   0.45311   0.50000   0.00000  Uiso   1.00
H807   H     0.74380   0.50103   0.40949   0.00000  Uiso   1.00
H808   H     0.73546   0.53194   0.59349   0.00000  Uiso   1.00
H809   H     0.69776   0.50063   0.62662   0.00000  Uiso   1.00
H810   H     0.73602   0.46918   0.59414   0.00000  Uiso   1.00
H811   H     0.74765   0.37513   0.44743   0.00000  Uiso   1.00
H812   H     0.78326   0.37523   0.40242   0.00000  Uiso   1.00
H813   H     0.88364   0.62555   0.59749   0.00000  Uiso   1.00
H814   H     0.91865   0.62366   0.55200   0.00000  Uiso   1.00
H815   H     0.88192   0.40288   0.58178   0.00000  Uiso   1.00
H816   H     0.91616   0.39113   0.53515   0.00000  Uiso   1.00
H817   H     0.78370   0.62679   0.40204   0.00000  Uiso   1.00
H818   H     0.70164   0.46868   0.38462   0.00000  Uiso   1.00
H819   H     0.74797   0.62653   0.44694   0.00000  Uiso   1.00
H820   H     0.70041   0.53182   0.38413   0.00000  Uiso   1.00
H821   H     0.92286   0.49872   0.59049   0.00000  Uiso   1.00
H822   H     0.96628   0.46798   0.61581   0.00000  Uiso   1.00
H823   H     0.96497   0.53113   0.61542   0.00000  Uiso   1.00
H824   H     0.93119   0.46799   0.40653   0.00000  Uiso   1.00
H825   H     0.93064   0.53075   0.40584   0.00000  Uiso   1.00
H826   H     0.96889   0.49927   0.37338   0.00000  Uiso   1.00
N827   N     0.83333   0.61736   0.50000   0.00000  Uiso   1.00
N828   N     0.83333   0.38264   0.50000   0.00000  Uiso   1.00
N829   N     0.77793   0.38426   0.43889   0.00000  Uiso   1.00
N830   N     0.88833   0.61528   0.56122   0.00000  Uiso   1.00
N831   N     0.89338   0.37817   0.55790   0.00000  Uiso   1.00
N832   N     0.77833   0.61727   0.43844   0.00000  Uiso   1.00
O833   O     0.77321   0.53958   0.50000   0.00000  Uiso   1.00
O834   O     0.89345   0.46042   0.50000   0.00000  Uiso   1.00
O835   O     0.89345   0.53958   0.50000   0.00000  Uiso   1.00
O836   O     0.77321   0.46042   0.50000   0.00000  Uiso   1.00
O837   O     0.83333   0.53959   0.42946   0.00000  Uiso   1.00
O838   O     0.83333   0.46041   0.57054   0.00000  Uiso   1.00
O839   O     0.83333   0.53959   0.57054   0.00000  Uiso   1.00
O840   O     0.83333   0.46041   0.42946   0.00000  Uiso   1.00
C841   C     0.08762   0.83347   0.49986   0.00000  Uiso   1.00
C842   C     0.02293   0.83356   0.54525   0.00000  Uiso   1.00
C843   C     0.29043   0.83293   0.50034   0.00000  Uiso   1.00
C844   C     0.04290   0.83371   0.49966   0.00000  Uiso   1.00
C845   C     0.13947   0.69201   0.47031   0.00000  Uiso   1.00
C846   C     0.19358   0.97427   0.52968   0.00000  Uiso   1.00
C847   C     0.19446   0.69024   0.52903   0.00000  Uiso   1.00
C848   C     0.13966   0.97546   0.47009   0.00000  Uiso   1.00
C849   C     0.04295   0.83376   0.40571   0.00000  Uiso   1.00
C850   C     0.29037   0.83273   0.59428   0.00000  Uiso   1.00
C851   C     0.28424   0.83276   0.40743   0.00000  Uiso   1.00
C852   C     0.24571   0.83319   0.50013   0.00000  Uiso   1.00
C853   C     0.04908   0.83383   0.59258   0.00000  Uiso   1.00
C854   C     0.16673   0.83340   0.40695   0.00000  Uiso   1.00
C855   C     0.16659   0.83326   0.59305   0.00000  Uiso   1.00
C856   C     0.16669   0.83343   0.35520   0.00000  Uiso   1.00
C857   C     0.16664   0.83324   0.64480   0.00000  Uiso   1.00
C858   C     0.02064   0.83348   0.45431   0.00000  Uiso   1.00
C859   C     0.31268   0.83310   0.54569   0.00000  Uiso   1.00
C860   C     0.31040   0.83305   0.45475   0.00000  Uiso   1.00
Cu861  Cu    0.16667   0.88022   0.50000   0.00000  Uiso   1.00
Cu862  Cu    0.16667   0.78645   0.50000   0.00000  Uiso   1.00
H863   H     0.07713   0.83436   0.40949   0.00000  Uiso   1.00
H864   H     0.06879   0.86527   0.59349   0.00000  Uiso   1.00
H865   H     0.03109   0.83396   0.62662   0.00000  Uiso   1.00
H866   H     0.06935   0.80252   0.59414   0.00000  Uiso   1.00
H867   H     0.08099   0.70847   0.44743   0.00000  Uiso   1.00
H868   H     0.11659   0.70857   0.40242   0.00000  Uiso   1.00
H869   H     0.21698   0.95889   0.59749   0.00000  Uiso   1.00
H870   H     0.25198   0.95700   0.55200   0.00000  Uiso   1.00
H871   H     0.21526   0.73621   0.58178   0.00000  Uiso   1.00
H872   H     0.24950   0.72446   0.53515   0.00000  Uiso   1.00
H873   H     0.11703   0.96012   0.40204   0.00000  Uiso   1.00
H874   H     0.03497   0.80201   0.38462   0.00000  Uiso   1.00
H875   H     0.08131   0.95986   0.44694   0.00000  Uiso   1.00
H876   H     0.03374   0.86516   0.38413   0.00000  Uiso   1.00
H877   H     0.25619   0.83205   0.59049   0.00000  Uiso   1.00
H878   H     0.29962   0.80132   0.61581   0.00000  Uiso   1.00
H879   H     0.29830   0.86446   0.61542   0.00000  Uiso   1.00
H880   H     0.26452   0.80132   0.40653   0.00000  Uiso   1.00
H881   H     0.26398   0.86408   0.40584   0.00000  Uiso   1.00
H882   H     0.30222   0.83261   0.37338   0.00000  Uiso   1.00
N883   N     0.16667   0.95069   0.50000   0.00000  Uiso   1.00
N884   N     0.16667   0.71598   0.50000   0.00000  Uiso   1.00
N885   N     0.11126   0.71759   0.43889   0.00000  Uiso   1.00
N886   N     0.22166   0.94862   0.56122   0.00000  Uiso   1.00
N887   N     0.22671   0.71150   0.55790   0.00000  Uiso   1.00
N888   N     0.11166   0.95060   0.43844   0.00000  Uiso   1.00
O889   O     0.10655   0.87291   0.50000   0.00000  Uiso   1.00
O890   O     0.22679   0.79375   0.50000   0.00000  Uiso   1.00
O891   O     0.22679   0.87291   0.50000   0.00000  Uiso   1.00
O892   O     0.10655   0.79375   0.50000   0.00000  Uiso   1.00
O893   O     0.16667   0.87292   0.42946   0.00000  Uiso   1.00
O894   O     0.16667   0.79375   0.57054   0.00000  Uiso   1.00
O895   O     0.16667   0.87292   0.57054   0.00000  Uiso   1.00
O896   O     0.16667   0.79375   0.42946   0.00000  Uiso   1.00
C897   C     0.42095   0.83347   0.49986   0.00000  Uiso   1.00
C898   C     0.35626   0.83356   0.54525   0.00000  Uiso   1.00
C899   C     0.62376   0.83293   0.50034   0.00000  Uiso   1.00
C900   C     0.37623   0.83371   0.49966   0.00000  Uiso   1.00
C901   C     0.47280   0.69201   0.47031   0.00000  Uiso   1.00
C902   C     0.52691   0.97427   0.52968   0.00000  Uiso   1.00
C903   C     0.52779   0.69024   0.52903   0.00000  Uiso   1.00
C904   C     0.47299   0.97546   0.47009   0.00000  Uiso   1.00
C905   C     0.37628   0.83376   0.40571   0.00000  Uiso   1.00
C906   C     0.62370   0.83273   0.59428   0.00000  Uiso   1.00
C907   C     0.61758   0.83276   0.40743   0.00000  Uiso   1.00
C908   C     0.57904   0.83319   0.50013   0.00000  Uiso   1.00
C909   C     0.38241   0.83383   0.59258   0.00000  Uiso   1.00
C910   C     0.50006   0.83340   0.40695   0.00000  Uiso   1.00
C911   C     0.49993   0.83326   0.59305   0.00000  Uiso   1.00
C912   C     0.50002   0.83343   0.35520   0.00000  Uiso   1.00
C913   C     0.49997   0.83324   0.64480   0.00000  Uiso   1.00
C914   C     0.35397   0.83348   0.45431   0.00000  Uiso   1.00
C915   C     0.64602   0.83310   0.54569   0.00000  Uiso   1.00
C916   C     0.64373   0.83305   0.45475   0.00000  Uiso   1.00
Cu917  Cu    0.50000   0.88022   0.50000   0.00000  Uiso   1.00
Cu918  Cu    0.50000   0.78645   0.50000   0.00000  Uiso   1.00
H919   H     0.41046   0.83436   0.40949   0.00000  Uiso   1.00
H920   H     0.40213   0.86527   0.59349   0.00000  Uiso   1.00
H921   H     0.36443   0.83396   0.62662   0.00000  Uiso   1.00
H922   H     0.40269   0.80252   0.59414   0.00000  Uiso   1.00
H923   H     0.41432   0.70847   0.44743   0.00000  Uiso   1.00
H924   H     0.44993   0.70857   0.40242   0.00000  Uiso   1.00
H925   H     0.55031   0.95889   0.59749   0.00000  Uiso   1.00
H926   H     0.58532   0.95700   0.55200   0.00000  Uiso   1.00
H927   H     0.54859   0.73621   0.58178   0.00000  Uiso   1.00
H928   H     0.58283   0.72446   0.53515   0.00000  Uiso   1.00
H929   H     0.45037   0.96012   0.40204   0.00000  Uiso   1.00
H930   H     0.36830   0.80201   0.38462   0.00000  Uiso   1.00
H931   H     0.41464   0.95986   0.44694   0.00000  Uiso   1.00
H932   H     0.36708   0.86516   0.38413   0.00000  Uiso   1.00
H933   H     0.58952   0.83205   0.59049   0.00000  Uiso   1.00
H934   H     0.63295   0.80132   0.61581   0.00000  Uiso   1.00
H935   H     0.63163   0.86446   0.61542   0.00000  Uiso   1.00
H936   H     0.59785   0.80132   0.40653   0.00000  Uiso   1.00
H937   H     0.59731   0.86408   0.40584   0.00000  Uiso   1.00
H938   H     0.63556   0.83261   0.37338   0.00000  Uiso   1.00
N939   N     0.50000   0.95069   0.50000   0.00000  Uiso   1.00
N940   N     0.50000   0.71598   0.50000   0.00000  Uiso   1.00
N941   N     0.44459   0.71759   0.43889   0.00000  Uiso   1.00
N942   N     0.55499   0.94862   0.56122   0.00000  Uiso   1.00
N943   N     0.56004   0.71150   0.55790   0.00000  Uiso   1.00
N944   N     0.44499   0.95060   0.43844   0.00000  Uiso   1.00
O945   O     0.43988   0.87291   0.50000   0.00000  Uiso   1.00
O946   O     0.56012   0.79375   0.50000   0.00000  Uiso   1.00
O947   O     0.56012   0.87291   0.50000   0.00000  Uiso   1.00
O948   O     0.43988   0.79375   0.50000   0.00000  Uiso   1.00
O949   O     0.50000   0.87292   0.42946   0.00000  Uiso   1.00
O950   O     0.50000   0.79375   0.57054   0.00000  Uiso   1.00
O951   O     0.50000   0.87292   0.57054   0.00000  Uiso   1.00
O952   O     0.50000   0.79375   0.42946   0.00000  Uiso   1.00
C953   C     0.75429   0.83347   0.49986   0.00000  Uiso   1.00
C954   C     0.68959   0.83356   0.54525   0.00000  Uiso   1.00
C955   C     0.95709   0.83293   0.50034   0.00000  Uiso   1.00
C956   C     0.70957   0.83371   0.49966   0.00000  Uiso   1.00
C957   C     0.80614   0.69201   0.47031   0.00000  Uiso   1.00
C958   C     0.86025   0.97427   0.52968   0.00000  Uiso   1.00
C959   C     0.86112   0.69024   0.52903   0.00000  Uiso   1.00
C960   C     0.80633   0.97546   0.47009   0.00000  Uiso   1.00
C961   C     0.70962   0.83376   0.40571   0.00000  Uiso   1.00
C962   C     0.95703   0.83273   0.59428   0.00000  Uiso   1.00
C963   C     0.95091   0.83276   0.40743   0.00000  Uiso   1.00
C964   C     0.91238   0.83319   0.50013   0.00000  Uiso   1.00
C965   C     0.71574   0.83383   0.59258   0.00000  Uiso   1.00
C966   C     0.83340   0.83340   0.40695   0.00000  Uiso   1.00
C967   C     0.83326   0.83326   0.59305   0.00000  Uiso   1.00
C968   C     0.83335   0.83343   0.35520   0.00000  Uiso   1.00
C969   C     0.83331   0.83324   0.64480   0.00000  Uiso   1.00
C970   C     0.68731   0.83348   0.45431   0.00000  Uiso   1.00
C971   C     0.97935   0.83310   0.54569   0.00000  Uiso   1.00
C972   C     0.97706   0.83305   0.45475   0.00000  Uiso   1.00
Cu973  Cu    0.83333   0.88022   0.50000   0.00000  Uiso   1.00
Cu974  Cu    0.83333   0.78645   0.50000   0.00000  Uiso   1.00
H975   H     0.74380   0.83436   0.40949   0.00000  Uiso   1.00
H976   H     0.73546   0.86527   0.59349   0.00000  Uiso   1.00
H977   H     0.69776   0.83396   0.62662   0.00000  Uiso   1.00
H978   H     0.73602   0.80252   0.59414   0.00000  Uiso   1.00
H979   H     0.74765   0.70847   0.44743   0.00000  Uiso   1.00
H980   H     0.78326   0.70857   0.40242   0.00000  Uiso   1.00
H981   H     0.88364   0.95889   0.59749   0.00000  Uiso   1.00
H982   H     0.91865   0.95700   0.55200   0.00000  Uiso   1.00
H983   H     0.88192   0.73621   0.58178   0.00000  Uiso   1.00
H984   H     0.91616   0.72446   0.53515   0.00000  Uiso   1.00
H985   H     0.78370   0.96012   0.40204   0.00000  Uiso   1.00
H986   H     0.70164   0.80201   0.38462   0.00000  Uiso   1.00
H987   H     0.74797   0.95986   0.44694   0.00000  Uiso   1.00
H988   H     0.70041   0.86516   0.38413   0.00000  Uiso   1.00
H989   H     0.92286   0.83205   0.59049   0.00000  Uiso   1.00
H990   H     0.96628   0.80132   0.61581   0.00000  Uiso   1.00
H991   H     0.96497   0.86446   0.61542   0.00000  Uiso   1.00
H992   H     0.93119   0.80132   0.40653   0.00000  Uiso   1.00
H993   H     0.93064   0.86408   0.40584   0.00000  Uiso   1.00
H994   H     0.96889   0.83261   0.37338   0.00000  Uiso   1.00
N995   N     0.83333   0.95069   0.50000   0.00000  Uiso   1.00
N996   N     0.83333   0.71598   0.50000   0.00000  Uiso   1.00
N997   N     0.77793   0.71759   0.43889   0.00000  Uiso   1.00
N998   N     0.88833   0.94862   0.56122   0.00000  Uiso   1.00
N999   N     0.89338   0.71150   0.55790   0.00000  Uiso   1.00
N1000  N     0.77833   0.95060   0.43844   0.00000  Uiso   1.00
O1001  O     0.77321   0.87291   0.50000   0.00000  Uiso   1.00
O1002  O     0.89345   0.79375   0.50000   0.00000  Uiso   1.00
O1003  O     0.89345   0.87291   0.50000   0.00000  Uiso   1.00
O1004  O     0.77321   0.79375   0.50000   0.00000  Uiso   1.00
O1005  O     0.83333   0.87292   0.42946   0.00000  Uiso   1.00
O1006  O     0.83333   0.79375   0.57054   0.00000  Uiso   1.00
O1007  O     0.83333   0.87292   0.57054   0.00000  Uiso   1.00
O1008  O     0.83333   0.79375   0.42946   0.00000  Uiso   1.00
C1009  C     0.08762   0.16680   0.83319   0.00000  Uiso   1.00
C1010  C     0.02293   0.16689   0.87858   0.00000  Uiso   1.00
C1011  C     0.29043   0.16626   0.83367   0.00000  Uiso   1.00
C1012  C     0.04290   0.16704   0.83299   0.00000  Uiso   1.00
C1013  C     0.13947   0.02535   0.80364   0.00000  Uiso   1.00
C1014  C     0.19358   0.30760   0.86301   0.00000  Uiso   1.00
C1015  C     0.19446   0.02358   0.86236   0.00000  Uiso   1.00
C1016  C     0.13966   0.30879   0.80342   0.00000  Uiso   1.00
C1017  C     0.04295   0.16709   0.73905   0.00000  Uiso   1.00
C1018  C     0.29037   0.16606   0.92761   0.00000  Uiso   1.00
C1019  C     0.28424   0.16609   0.74076   0.00000  Uiso   1.00
C1020  C     0.24571   0.16653   0.83347   0.00000  Uiso   1.00
C1021  C     0.04908   0.16717   0.92591   0.00000  Uiso   1.00
C1022  C     0.16673   0.16674   0.74028   0.00000  Uiso   1.00
C1023  C     0.16659   0.16660   0.92638   0.00000  Uiso   1.00
C1024  C     0.16669   0.16676   0.68853   0.00000  Uiso   1.00
C1025  C     0.16664   0.16657   0.97813   0.00000  Uiso   1.00
C1026  C     0.02064   0.16682   0.78764   0.00000  Uiso   1.00
C1027  C     0.31268   0.16643   0.87902   0.00000  Uiso   1.00
C1028  C     0.31040   0.16638   0.78808   0.00000  Uiso   1.00
Cu1029 Cu    0.16667   0.21355   0.83333   0.00000  Uiso   1.00
Cu1030 Cu    0.16667   0.11978   0.83333   0.00000  Uiso   1.00
H1031  H     0.07713   0.16769   0.74282   0.00000  Uiso   1.00
H1032  H     0.06879   0.19861   0.92682   0.00000  Uiso   1.00
H1033  H     0.03109   0.16730   0.95995   0.00000  Uiso   1.00
H1034  H     0.06935   0.13585   0.92748   0.00000  Uiso   1.00
H1035  H     0.08099   0.04180   0.78076   0.00000  Uiso   1.00
H1036  H     0.11659   0.04190   0.73576   0.00000  Uiso   1.00
H1037  H     0.21698   0.29222   0.93083   0.00000  Uiso   1.00
H1038  H     0.25198   0.29033   0.88533   0.00000  Uiso   1.00
H1039  H     0.21526   0.06955   0.91512   0.00000  Uiso   1.00
H1040  H     0.24950   0.05779   0.86849   0.00000  Uiso   1.00
H1041  H     0.11703   0.29346   0.73537   0.00000  Uiso   1.00
H1042  H     0.03497   0.13535   0.71795   0.00000  Uiso   1.00
H1043  H     0.08131   0.29320   0.78027   0.00000  Uiso   1.00
H1044  H     0.03374   0.19849   0.71747   0.00000  Uiso   1.00
H1045  H     0.25619   0.16539   0.92383   0.00000  Uiso   1.00
H1046  H     0.29962   0.13465   0.94915   0.00000  Uiso   1.00
H1047  H     0.29830   0.19779   0.94875   0.00000  Uiso   1.00
H1048  H     0.26452   0.13466   0.73987   0.00000  Uiso   1.00
H1049  H     0.26398   0.19741   0.73918   0.00000  Uiso   1.00
H1050  H     0.30222   0.16594   0.70672   0.00000  Uiso   1.00
N1051  N     0.16667   0.28402   0.83333   0.00000  Uiso   1.00
N1052  N     0.16667   0.04931   0.83333   0.00000  Uiso   1.00
N1053  N     0.11126   0.05092   0.77223   0.00000  Uiso   1.00
N1054  N     0.22166   0.28195   0.89456   0.00000  Uiso   1.00
N1055  N     0.22671   0.04484   0.89123   0.00000  Uiso   1.00
N1056  N     0.11166   0.28393   0.77177   0.00000  Uiso   1.00
O1057  O     0.10655   0.20625   0.83333   0.00000  Uiso   1.00
O1058  O     0.22679   0.12709   0.83334   0.00000  Uiso   1.00
O1059  O     0.22679   0.20625   0.83334   0.00000  Uiso   1.00
O1060  O     0.10655   0.12709   0.83333   0.00000  Uiso   1.00
O1061  O     0.16667   0.20625   0.76280   0.00000  Uiso   1.00
O1062  O     0.16667   0.12708   0.90387   0.00000  Uiso   1.00
O1063  O     0.16667   0.20625   0.90387   0.00000  Uiso   1.00
O1064  O     0.16667   0.12708   0.76280   0.00000  Uiso   1.00
C1065  C     0.42095   0.16680   0.83319   0.00000  Uiso   1.00
C1066  C     0.35626   0.16689   0.87858   0.00000  Uiso   1.00
C1067  C     0.62376   0.16626   0.83367   0.00000  Uiso   1.00
C1068  C     0.37623   0.16704   0.83299   0.00000  Uiso   1.00
C1069  C     0.47280   0.02535   0.80364   0.00000  Uiso   1.00
C1070  C     0.52691   0.30760   0.86301   0.00000  Uiso   1.00
C1071  C     0.52779   0.02358   0.86236   0.00000  Uiso   1.00
C1072  C     0.47299   0.30879   0.80342   0.00000  Uiso   1.00
C1073  C     0.37628   0.16709   0.73905   0.00000  Uiso   1.00
C1074  C     0.62370   0.16606   0.92761   0.00000  Uiso   1.00
C1075  C     0.61758   0.16609   0.74076   0.00000  Uiso   1.00
C1076  C     0.57904   0.16653   0.83347   0.00000  Uiso   1.00
C1077  C     0.38241   0.16717   0.92591   0.00000  Uiso   1.00
C1078  C     0.50006   0.16674   0.74028   0.00000  Uiso   1.00
C1079  C     0.49993   0.16660   0.92638   0.00000  Uiso   1.00
C1080  C     0.50002   0.16676   0.68853   0.00000  Uiso   1.00
C1081  C     0.49997   0.16657   0.97813   0.00000  Uiso   1.00
C1082  C     0.35397   0.16682   0.78764   0.00000  Uiso   1.00
C1083  C     0.64602   0.16643   0.87902   0.00000  Uiso   1.00
C1084  C     0.64373   0.16638   0.78808   0.00000  Uiso   1.00
Cu1085 Cu    0.50000   0.21355   0.83333   0.00000  Uiso   1.00
Cu1086 Cu    0.50000   0.11978   0.83333   0.00000  Uiso   1.00
H1087  H     0.41046   0.16769   0.74282   0.00000  Uiso   1.00
H1088  H     0.40213   0.19861   0.92682   0.00000  Uiso   1.00
H1089  H     0.36443   0.16730   0.95995   0.00000  Uiso   1.00
H1090  H     0.40269   0.13585   0.92748   0.00000  Uiso   1.00
H1091  H     0.41432   0.04180   0.78076   0.00000  Uiso   1.00
H1092  H     0.44993   0.04190   0.73576   0.00000  Uiso   1.00
H1093  H     0.55031   0.29222   0.93083   0.00000  Uiso   1.00
H1094  H     0.58532   0.29033   0.88533   0.00000  Uiso   1.00
H1095  H     0.54859   0.06955   0.91512   0.00000  Uiso   1.00
H1096  H     0.58283   0.05779   0.86849   0.00000  Uiso   1.00
H1097  H     0.45037   0.29346   0.73537   0.00000  Uiso   1.00
H1098  H     0.36830   0.13535   0.71795   0.00000  Uiso   1.00
H1099  H     0.41464   0.29320   0.78027   0.00000  Uiso   1.00
H1100  H     0.36708   0.19849   0.71747   0.00000  Uiso   1.00
H1101  H     0.58952   0.16539   0.92383   0.00000  Uiso   1.00
H1102  H     0.63295   0.13465   0.94915   0.00000  Uiso   1.00
H1103  H     0.63163   0.19779   0.94875   0.00000  Uiso   1.00
H1104  H     0.59785   0.13466   0.73987   0.00000  Uiso   1.00
H1105  H     0.59731   0.19741   0.73918   0.00000  Uiso   1.00
H1106  H     0.63556   0.16594   0.70672   0.00000  Uiso   1.00
N1107  N     0.50000   0.28402   0.83333   0.00000  Uiso   1.00
N1108  N     0.50000   0.04931   0.83333   0.00000  Uiso   1.00
N1109  N     0.44459   0.05092   0.77223   0.00000  Uiso   1.00
N1110  N     0.55499   0.28195   0.89456   0.00000  Uiso   1.00
N1111  N     0.56004   0.04484   0.89123   0.00000  Uiso   1.00
N1112  N     0.44499   0.28393   0.77177   0.00000  Uiso   1.00
O1113  O     0.43988   0.20625   0.83333   0.00000  Uiso   1.00
O1114  O     0.56012   0.12709   0.83334   0.00000  Uiso   1.00
O1115  O     0.56012   0.20625   0.83334   0.00000  Uiso   1.00
O1116  O     0.43988   0.12709   0.83333   0.00000  Uiso   1.00
O1117  O     0.50000   0.20625   0.76280   0.00000  Uiso   1.00
O1118  O     0.50000   0.12708   0.90387   0.00000  Uiso   1.00
O1119  O     0.50000   0.20625   0.90387   0.00000  Uiso   1.00
O1120  O     0.50000   0.12708   0.76280   0.00000  Uiso   1.00
C1121  C     0.75429   0.16680   0.83319   0.00000  Uiso   1.00
C1122  C     0.68959   0.16689   0.87858   0.00000  Uiso   1.00
C1123  C     0.95709   0.16626   0.83367   0.00000  Uiso   1.00
C1124  C     0.70957   0.16704   0.83299   0.00000  Uiso   1.00
C1125  C     0.80614   0.02535   0.80364   0.00000  Uiso   1.00
C1126  C     0.86025   0.30760   0.86301   0.00000  Uiso   1.00
C1127  C     0.86112   0.02358   0.86236   0.00000  Uiso   1.00
C1128  C     0.80633   0.30879   0.80342   0.00000  Uiso   1.00
C1129  C     0.70962   0.16709   0.73905   0.00000  Uiso   1.00
C1130  C     0.95703   0.16606   0.92761   0.00000  Uiso   1.00
C1131  C     0.95091   0.16609   0.74076   0.00000  Uiso   1.00
C1132  C     0.91238   0.16653   0.83347   0.00000  Uiso   1.00
C1133  C     0.71574   0.16717   0.92591   0.00000  Uiso   1.00
C1134  C     0.83340   0.16674   0.74028   0.00000  Uiso   1.00
C1135  C     0.83326   0.16660   0.92638   0.00000  Uiso   1.00
C1136  C     0.83335   0.16676   0.68853   0.00000  Uiso   1.00
C1137  C     0.83331   0.16657   0.97813   0.00000  Uiso   1.00
C1138  C     0.68731   0.16682   0.78764   0.00000  Uiso   1.00
C1139  C     0.97935   0.16643   0.87902   0.00000  Uiso   1.00
C1140  C     0.97706   0.16638   0.78808   0.00000  Uiso   1.00
Cu1141 Cu    0.83333   0.21355   0.83333   0.00000  Uiso   1.00
Cu1142 Cu    0.83333   0.11978   0.83333   0.00000  Uiso   1.00
H1143  H     0.74380   0.16769   0.74282   0.00000  Uiso   1.00
H1144  H     0.73546   0.19861   0.92682   0.00000  Uiso   1.00
H1145  H     0.69776   0.16730   0.95995   0.00000  Uiso   1.00
H1146  H     0.73602   0.13585   0.92748   0.00000  Uiso   1.00
H1147  H     0.74765   0.04180   0.78076   0.00000  Uiso   1.00
H1148  H     0.78326   0.04190   0.73576   0.00000  Uiso   1.00
H1149  H     0.88364   0.29222   0.93083   0.00000  Uiso   1.00
H1150  H     0.91865   0.29033   0.88533   0.00000  Uiso   1.00
H1151  H     0.88192   0.06955   0.91512   0.00000  Uiso   1.00
H1152  H     0.91616   0.05779   0.86849   0.00000  Uiso   1.00
H1153  H     0.78370   0.29346   0.73537   0.00000  Uiso   1.00
H1154  H     0.70164   0.13535   0.71795   0.00000  Uiso   1.00
H1155  H     0.74797   0.29320   0.78027   0.00000  Uiso   1.00
H1156  H     0.70041   0.19849   0.71747   0.00000  Uiso   1.00
H1157  H     0.92286   0.16539   0.92383   0.00000  Uiso   1.00
H1158  H     0.96628   0.13465   0.94915   0.00000  Uiso   1.00
H1159  H     0.96497   0.19779   0.94875   0.00000  Uiso   1.00
H1160  H     0.93119   0.13466   0.73987   0.00000  Uiso   1.00
H1161  H     0.93064   0.19741   0.73918   0.00000  Uiso   1.00
H1162  H     0.96889   0.16594   0.70672   0.00000  Uiso   1.00
N1163  N     0.83333   0.28402   0.83333   0.00000  Uiso   1.00
N1164  N     0.83333   0.04931   0.83333   0.00000  Uiso   1.00
N1165  N     0.77793   0.05092   0.77223   0.00000  Uiso   1.00
N1166  N     0.88833   0.28195   0.89456   0.00000  Uiso   1.00
N1167  N     0.89338   0.04484   0.89123   0.00000  Uiso   1.00
N1168  N     0.77833   0.28393   0.77177   0.00000  Uiso   1.00
O1169  O     0.77321   0.20625   0.83333   0.00000  Uiso   1.00
O1170  O     0.89345   0.12709   0.83334   0.00000  Uiso   1.00
O1171  O     0.89345   0.20625   0.83334   0.00000  Uiso   1.00
O1172  O     0.77321   0.12709   0.83333   0.00000  Uiso   1.00
O1173  O     0.83333   0.20625   0.76280   0.00000  Uiso   1.00
O1174  O     0.83333   0.12708   0.90387   0.00000  Uiso   1.00
O1175  O     0.83333   0.20625   0.90387   0.00000  Uiso   1.00
O1176  O     0.83333   0.12708   0.76280   0.00000  Uiso   1.00
C1177  C     0.08762   0.50014   0.83319   0.00000  Uiso   1.00
C1178  C     0.02293   0.50022   0.87858   0.00000  Uiso   1.00
C1179  C     0.29043   0.49960   0.83367   0.00000  Uiso   1.00
C1180  C     0.04290   0.50038   0.83299   0.00000  Uiso   1.00
C1181  C     0.13947   0.35868   0.80364   0.00000  Uiso   1.00
C1182  C     0.19358   0.64093   0.86301   0.00000  Uiso   1.00
C1183  C     0.19446   0.35691   0.86236   0.00000  Uiso   1.00
C1184  C     0.13966   0.64212   0.80342   0.00000  Uiso   1.00
C1185  C     0.04295   0.50042   0.73905   0.00000  Uiso   1.00
C1186  C     0.29037   0.49939   0.92761   0.00000  Uiso   1.00
C1187  C     0.28424   0.49943   0.74076   0.00000  Uiso   1.00
C1188  C     0.24571   0.49986   0.83347   0.00000  Uiso   1.00
C1189  C     0.04908   0.50050   0.92591   0.00000  Uiso   1.00
C1190  C     0.16673   0.50007   0.74028   0.00000  Uiso   1.00
C1191  C     0.16659   0.49993   0.92638   0.00000  Uiso   1.00
C1192  C     0.16669   0.50010   0.68853   0.00000  Uiso   1.00
C1193  C     0.16664   0.49990   0.97813   0.00000  Uiso   1.00
C1194  C     0.02064   0.50015   0.78764   0.00000  Uiso   1.00
C1195  C     0.31268   0.49977   0.87902   0.00000  Uiso   1.00
C1196  C     0.31040   0.49972   0.78808   0.00000  Uiso   1.00
Cu1197 Cu    0.16667   0.54689   0.83333   0.00000  Uiso   1.00
Cu1198 Cu    0.16667   0.45311   0.83333   0.00000  Uiso   1.00
H1199  H     0.07713   0.50103   0.74282   0.00000  Uiso   1.00
H1200  H     0.06879   0.53194   0.92682   0.00000  Uiso   1.00
H1201  H     0.03109   0.50063   0.95995   0.00000  Uiso   1.00
H1202  H     0.06935   0.46918   0.92748   0.00000  Uiso   1.00
H1203  H     0.08099   0.37513   0.78076   0.00000  Uiso   1.00
H1204  H     0.11659   0.37523   0.73576   0.00000  Uiso   1.00
H1205  H     0.21698   0.62555   0.93083   0.00000  Uiso   1.00
H1206  H     0.25198   0.62366   0.88533   0.00000  Uiso   1.00
H1207  H     0.21526   0.40288   0.91512   0.00000  Uiso   1.00
H1208  H     0.24950   0.39113   0.86849   0.00000  Uiso   1.00
H1209  H     0.11703   0.62679   0.73537   0.00000  Uiso   1.00
H1210  H     0.03497   0.46868   0.71795   0.00000  Uiso   1.00
H1211  H     0.08131   0.62653   0.78027   0.00000  Uiso   1.00
H1212  H     0.03374   0.53182   0.71747   0.00000  Uiso   1.00
H1213  H     0.25619   0.49872   0.92383   0.00000  Uiso   1.00
H1214  H     0.29962   0.46798   0.94915   0.00000  Uiso   1.00
H1215  H     0.29830   0.53113   0.94875   0.00000  Uiso   1.00
H1216  H     0.26452   0.46799   0.73987   0.00000  Uiso   1.00
H1217  H     0.26398   0.53075   0.73918   0.00000  Uiso   1.00
H1218  H     0.30222   0.49927   0.70672   0.00000  Uiso   1.00
N1219  N     0.16667   0.61736   0.83333   0.00000  Uiso   1.00
N1220  N     0.16667   0.38264   0.83333   0.00000  Uiso   1.00
N1221  N     0.11126   0.38426   0.77223   0.00000  Uiso   1.00
N1222  N     0.22166   0.61528   0.89456   0.00000  Uiso   1.00
N1223  N     0.22671   0.37817   0.89123   0.00000  Uiso   1.00
N1224  N     0.11166   0.61727   0.77177   0.00000  Uiso   1.00
O1225  O     0.10655   0.53958   0.83333   0.00000  Uiso   1.00
O1226  O     0.22679   0.46042   0.83334   0.00000  Uiso   1.00
O1227  O     0.22679   0.53958   0.83334   0.00000  Uiso   1.00
O1228  O     0.10655   0.46042   0.83333   0.00000  Uiso   1.00
O1229  O     0.16667   0.53959   0.76280   0.00000  Uiso   1.00
O1230  O     0.16667   0.46041   0.90387   0.00000  Uiso   1.00
O1231  O     0.16667   0.53959   0.90387   0.00000  Uiso   1.00
O1232  O     0.16667   0.46041   0.76280   0.00000  Uiso   1.00
C1233  C     0.42095   0.50014   0.83319   0.00000  Uiso   1.00
C1234  C     0.35626   0.50022   0.87858   0.00000  Uiso   1.00
C1235  C     0.62376   0.49960   0.83367   0.00000  Uiso   1.00
C1236  C     0.37623   0.50038   0.83299   0.00000  Uiso   1.00
C1237  C     0.47280   0.35868   0.80364   0.00000  Uiso   1.00
C1238  C     0.52691   0.64093   0.86301   0.00000  Uiso   1.00
C1239  C     0.52779   0.35691   0.86236   0.00000  Uiso   1.00
C1240  C     0.47299   0.64212   0.80342   0.00000  Uiso   1.00
C1241  C     0.37628   0.50042   0.73905   0.00000  Uiso   1.00
C1242  C     0.62370   0.49939   0.92761   0.00000  Uiso   1.00
C1243  C     0.61758   0.49943   0.74076   0.00000  Uiso   1.00
C1244  C     0.57904   0.49986   0.83347   0.00000  Uiso   1.00
C1245  C     0.38241   0.50050   0.92591   0.00000  Uiso   1.00
C1246  C     0.50006   0.50007   0.74028   0.00000  Uiso   1.00
C1247  C     0.49993   0.49993   0.92638   0.00000  Uiso   1.00
C1248  C     0.50002   0.50010   0.68853   0.00000  Uiso   1.00
C1249  C     0.49997   0.49990   0.97813   0.00000  Uiso   1.00
C1250  C     0.35397   0.50015   0.78764   0.00000  Uiso   1.00
C1251  C     0.64602   0.49977   0.87902   0.00000  Uiso   1.00
C1252  C     0.64373   0.49972   0.78808   0.00000  Uiso   1.00
Cu1253 Cu    0.50000   0.54689   0.83333   0.00000  Uiso   1.00
Cu1254 Cu    0.50000   0.45311   0.83333   0.00000  Uiso   1.00
H1255  H     0.41046   0.50103   0.74282   0.00000  Uiso   1.00
H1256  H     0.40213   0.53194   0.92682   0.00000  Uiso   1.00
H1257  H     0.36443   0.50063   0.95995   0.00000  Uiso   1.00
H1258  H     0.40269   0.46918   0.92748   0.00000  Uiso   1.00
H1259  H     0.41432   0.37513   0.78076   0.00000  Uiso   1.00
H1260  H     0.44993   0.37523   0.73576   0.00000  Uiso   1.00
H1261  H     0.55031   0.62555   0.93083   0.00000  Uiso   1.00
H1262  H     0.58532   0.62366   0.88533   0.00000  Uiso   1.00
H1263  H     0.54859   0.40288   0.91512   0.00000  Uiso   1.00
H1264  H     0.58283   0.39113   0.86849   0.00000  Uiso   1.00
H1265  H     0.45037   0.62679   0.73537   0.00000  Uiso   1.00
H1266  H     0.36830   0.46868   0.71795   0.00000  Uiso   1.00
H1267  H     0.41464   0.62653   0.78027   0.00000  Uiso   1.00
H1268  H     0.36708   0.53182   0.71747   0.00000  Uiso   1.00
H1269  H     0.58952   0.49872   0.92383   0.00000  Uiso   1.00
H1270  H     0.63295   0.46798   0.94915   0.00000  Uiso   1.00
H1271  H     0.63163   0.53113   0.94875   0.00000  Uiso   1.00
H1272  H     0.59785   0.46799   0.73987   0.00000  Uiso   1.00
H1273  H     0.59731   0.53075   0.73918   0.00000  Uiso   1.00
H1274  H     0.63556   0.49927   0.70672   0.00000  Uiso   1.00
N1275  N     0.50000   0.61736   0.83333   0.00000  Uiso   1.00
N1276  N     0.50000   0.38264   0.83333   0.00000  Uiso   1.00
N1277  N     0.44459   0.38426   0.77223   0.00000  Uiso   1.00
N1278  N     0.55499   0.61528   0.89456   0.00000  Uiso   1.00
N1279  N     0.56004   0.37817   0.89123   0.00000  Uiso   1.00
N1280  N     0.44499   0.61727   0.77177   0.00000  Uiso   1.00
O1281  O     0.43988   0.53958   0.83333   0.00000  Uiso   1.00
O1282  O     0.56012   0.46042   0.83334   0.00000  Uiso   1.00
O1283  O     0.56012   0.53958   0.83334   0.00000  Uiso   1.00
O1284  O     0.43988   0.46042   0.83333   0.00000  Uiso   1.00
O1285  O     0.50000   0.53959   0.76280   0.00000  Uiso   1.00
O1286  O     0.50000   0.46041   0.90387   0.00000  Uiso   1.00
O1287  O     0.50000   0.53959   0.90387   0.00000  Uiso   1.00
O1288  O     0.50000   0.46041   0.76280   0.00000  Uiso   1.00
C1289  C     0.75429   0.50014   0.83319   0.00000  Uiso   1.00
C1290  C     0.68959   0.50022   0.87858   0.00000  Uiso   1.00
C1291  C     0.95709   0.49960   0.83367   0.00000  Uiso   1.00
C1292  C     0.70957   0.50038   0.83299   0.00000  Uiso   1.00
C1293  C     0.80614   0.35868   0.80364   0.00000  Uiso   1.00
C1294  C     0.86025   0.64093   0.86301   0.00000  Uiso   1.00
C1295  C     0.86112   0.35691   0.86236   0.00000  Uiso   1.00
C1296  C     0.80633   0.64212   0.80342   0.00000  Uiso   1.00
C1297  C     0.70962   0.50042   0.73905   0.00000  Uiso   1.00
C1298  C     0.95703   0.49939   0.92761   0.00000  Uiso   1.00
C1299  C     0.95091   0.49943   0.74076   0.00000  Uiso   1.00
C1300  C     0.91238   0.49986   0.83347   0.00000  Uiso   1.00
C1301  C     0.71574   0.50050   0.92591   0.00000  Uiso   1.00
C1302  C     0.83340   0.50007   0.74028   0.00000  Uiso   1.00
C1303  C     0.83326   0.49993   0.92638   0.00000  Uiso   1.00
C1304  C     0.83335   0.50010   0.68853   0.00000  Uiso   1.00
C1305  C     0.83331   0.49990   0.97813   0.00000  Uiso   1.00
C1306  C     0.68731   0.50015   0.78764   0.00000  Uiso   1.00
C1307  C     0.97935   0.49977   0.87902   0.00000  Uiso   1.00
C1308  C     0.97706   0.49972   0.78808   0.00000  Uiso   1.00
Cu1309 Cu    0.83333   0.54689   0.83333   0.00000  Uiso   1.00
Cu1310 Cu    0.83333   0.45311   0.83333   0.00000  Uiso   1.00
H1311  H     0.74380   0.50103   0.74282   0.00000  Uiso   1.00
H1312  H     0.73546   0.53194   0.92682   0.00000  Uiso   1.00
H1313  H     0.69776   0.50063   0.95995   0.00000  Uiso   1.00
H1314  H     0.73602   0.46918   0.92748   0.00000  Uiso   1.00
H1315  H     0.74765   0.37513   0.78076   0.00000  Uiso   1.00
H1316  H     0.78326   0.37523   0.73576   0.00000  Uiso   1.00
H1317  H     0.88364   0.62555   0.93083   0.00000  Uiso   1.00
H1318  H     0.91865   0.62366   0.88533   0.00000  Uiso   1.00
H1319  H     0.88192   0.40288   0.91512   0.00000  Uiso   1.00
H1320  H     0.91616   0.39113   0.86849   0.00000  Uiso   1.00
H1321  H     0.78370   0.62679   0.73537   0.00000  Uiso   1.00
H1322  H     0.70164   0.46868   0.71795   0.00000  Uiso   1.00
H1323  H     0.74797   0.62653   0.78027   0.00000  Uiso   1.00
H1324  H     0.70041   0.53182   0.71747   0.00000  Uiso   1.00
H1325  H     0.92286   0.49872   0.92383   0.00000  Uiso   1.00
H1326  H     0.96628   0.46798   0.94915   0.00000  Uiso   1.00
H1327  H     0.96497   0.53113   0.94875   0.00000  Uiso   1.00
H1328  H     0.93119   0.46799   0.73987   0.00000  Uiso   1.00
H1329  H     0.93064   0.53075   0.73918   0.00000  Uiso   1.00
H1330  H     0.96889   0.49927   0.70672   0.00000  Uiso   1.00
N1331  N     0.83333   0.61736   0.83333   0.00000  Uiso   1.00
N1332  N     0.83333   0.38264   0.83333   0.00000  Uiso   1.00
N1333  N     0.77793   0.38426   0.77223   0.00000  Uiso   1.00
N1334  N     0.88833   0.61528   0.89456   0.00000  Uiso   1.00
N1335  N     0.89338   0.37817   0.89123   0.00000  Uiso   1.00
N1336  N     0.77833   0.61727   0.77177   0.00000  Uiso   1.00
O1337  O     0.77321   0.53958   0.83333   0.00000  Uiso   1.00
O1338  O     0.89345   0.46042   0.83334   0.00000  Uiso   1.00
O1339  O     0.89345   0.53958   0.83334   0.00000  Uiso   1.00
O1340  O     0.77321   0.46042   0.83333   0.00000  Uiso   1.00
O1341  O     0.83333   0.53959   0.76280   0.00000  Uiso   1.00
O1342  O     0.83333   0.46041   0.90387   0.00000  Uiso   1.00
O1343  O     0.83333   0.53959   0.90387   0.00000  Uiso   1.00
O1344  O     0.83333   0.46041   0.76280   0.00000  Uiso   1.00
C1345  C     0.08762   0.83347   0.83319   0.00000  Uiso   1.00
C1346  C     0.02293   0.83356   0.87858   0.00000  Uiso   1.00
C1347  C     0.29043   0.83293   0.83367   0.00000  Uiso   1.00
C1348  C     0.04290   0.83371   0.83299   0.00000  Uiso   1.00
C1349  C     0.13947   0.69201   0.80364   0.00000  Uiso   1.00
C1350  C     0.19358   0.97427   0.86301   0.00000  Uiso   1.00
C1351  C     0.19446   0.69024   0.86236   0.00000  Uiso   1.00
C1352  C     0.13966   0.97546   0.80342   0.00000  Uiso   1.00
C1353  C     0.04295   0.83376   0.73905   0.00000  Uiso   1.00
C1354  C     0.29037   0.83273   0.92761   0.00000  Uiso   1.00
C1355  C     0.28424   0.83276   0.74076   0.00000  Uiso   1.00
C1356  C     0.24571   0.83319   0.83347   0.00000  Uiso   1.00
C1357  C     0.04908   0.83383   0.92591   0.00000  Uiso   1.00
C1358  C     0.16673   0.83340   0.74028   0.00000  Uiso   1.00
C1359  C     0.16659   0.83326   0.92638   0.00000  Uiso   1.00
C1360  C     0.16669   0.83343   0.68853   0.00000  Uiso   1.00
C1361  C     0.16664   0.83324   0.97813   0.00000  Uiso   1.00
C1362  C     0.02064   0.83348   0.78764   0.00000  Uiso   1.00
C1363  C     0.31268   0.83310   0.87902   0.00000  Uiso   1.00
C1364  C     0.31040   0.83305   0.78808   0.00000  Uiso   1.00
Cu1365 Cu    0.16667   0.88022   0.83333   0.00000  Uiso   1.00
Cu1366 Cu    0.16667   0.78645   0.83333   0.00000  Uiso   1.00
H1367  H     0.07713   0.83436   0.74282   0.00000  Uiso   1.00
H1368  H     0.06879   0.86527   0.92682   0.00000  Uiso   1.00
H1369  H     0.03109   0.83396   0.95995   0.00000  Uiso   1.00
H1370  H     0.06935   0.80252   0.92748   0.00000  Uiso   1.00
H1371  H     0.08099   0.70847   0.78076   0.00000  Uiso   1.00
H1372  H     0.11659   0.70857   0.73576   0.00000  Uiso   1.00
H1373  H     0.21698   0.95889   0.93083   0.00000  Uiso   1.00
H1374  H     0.25198   0.95700   0.88533   0.00000  Uiso   1.00
H1375  H     0.21526   0.73621   0.91512   0.00000  Uiso   1.00
H1376  H     0.24950   0.72446   0.86849   0.00000  Uiso   1.00
H1377  H     0.11703   0.96012   0.73537   0.00000  Uiso   1.00
H1378  H     0.03497   0.80201   0.71795   0.00000  Uiso   1.00
H1379  H     0.08131   0.95986   0.78027   0.00000  Uiso   1.00
H1380  H     0.03374   0.86516   0.71747   0.00000  Uiso   1.00
H1381  H     0.25619   0.83205   0.92383   0.00000  Uiso   1.00
H1382  H     0.29962   0.80132   0.94915   0.00000  Uiso   1.00
H1383  H     0.29830   0.86446   0.94875   0.00000  Uiso   1.00
H1384  H     0.26452   0.80132   0.73987   0.00000  Uiso   1.00
H1385  H     0.26398   0.86408   0.73918   0.00000  Uiso   1.00
H1386  H     0.30222   0.83261   0.70672   0.00000  Uiso   1.00
N1387  N     0.16667   0.95069   0.83333   0.00000  Uiso   1.00
N1388  N     0.16667   0.71598   0.83333   0.00000  Uiso   1.00
N1389  N     0.11126   0.71759   0.77223   0.00000  Uiso   1.00
N1390  N     0.22166   0.94862   0.89456   0.00000  Uiso   1.00
N1391  N     0.22671   0.71150   0.89123   0.00000  Uiso   1.00
N1392  N     0.11166   0.95060   0.77177   0.00000  Uiso   1.00
O1393  O     0.10655   0.87291   0.83333   0.00000  Uiso   1.00
O1394  O     0.22679   0.79375   0.83334   0.00000  Uiso   1.00
O1395  O     0.22679   0.87291   0.83334   0.00000  Uiso   1.00
O1396  O     0.10655   0.79375   0.83333   0.00000  Uiso   1.00
O1397  O     0.16667   0.87292   0.76280   0.00000  Uiso   1.00
O1398  O     0.16667   0.79375   0.90387   0.00000  Uiso   1.00
O1399  O     0.16667   0.87292   0.90387   0.00000  Uiso   1.00
O1400  O     0.16667   0.79375   0.76280   0.00000  Uiso   1.00
C1401  C     0.42095   0.83347   0.83319   0.00000  Uiso   1.00
C1402  C     0.35626   0.83356   0.87858   0.00000  Uiso   1.00
C1403  C     0.62376   0.83293   0.83367   0.00000  Uiso   1.00
C1404  C     0.37623   0.83371   0.83299   0.00000  Uiso   1.00
C1405  C     0.47280   0.69201   0.80364   0.00000  Uiso   1.00
C1406  C     0.52691   0.97427   0.86301   0.00000  Uiso   1.00
C1407  C     0.52779   0.69024   0.86236   0.00000  Uiso   1.00
C1408  C     0.47299   0.97546   0.80342   0.00000  Uiso   1.00
C1409  C     0.37628   0.83376   0.73905   0.00000  Uiso   1.00
C1410  C     0.62370   0.83273   0.92761   0.00000  Uiso   1.00
C1411  C     0.61758   0.83276   0.74076   0.00000  Uiso   1.00
C1412  C     0.57904   0.83319   0.83347   0.00000  Uiso   1.00
C1413  C     0.38241   0.83383   0.92591   0.00000  Uiso   1.00
C1414  C     0.50006   0.83340   0.74028   0.00000  Uiso   1.00
C1415  C     0.49993   0.83326   0.92638   0.00000  Uiso   1.00
C1416  C     0.50002   0.83343   0.68853   0.00000  Uiso   1.00
C1417  C     0.49997   0.83324   0.97813   0.00000  Uiso   1.00
C1418  C     0.35397   0.83348   0.78764   0.00000  Uiso   1.00
C1419  C     0.64602   0.83310   0.87902   0.00000  Uiso   1.00
C1420  C     0.64373   0.83305   0.78808   0.00000  Uiso   1.00
Cu1421 Cu    0.50000   0.88022   0.83333   0.00000  Uiso   1.00
Cu1422 Cu    0.50000   0.78645   0.83333   0.00000  Uiso   1.00
H1423  H     0.41046   0.83436   0.74282   0.00000  Uiso   1.00
H1424  H     0.40213   0.86527   0.92682   0.00000  Uiso   1.00
H1425  H     0.36443   0.83396   0.95995   0.00000  Uiso   1.00
H1426  H     0.40269   0.80252   0.92748   0.00000  Uiso   1.00
H1427  H     0.41432   0.70847   0.78076   0.00000  Uiso   1.00
H1428  H     0.44993   0.70857   0.73576   0.00000  Uiso   1.00
H1429  H     0.55031   0.95889   0.93083   0.00000  Uiso   1.00
H1430  H     0.58532   0.95700   0.88533   0.00000  Uiso   1.00
H1431  H     0.54859   0.73621   0.91512   0.00000  Uiso   1.00
H1432  H     0.58283   0.72446   0.86849   0.00000  Uiso   1.00
H1433  H     0.45037   0.96012   0.73537   0.00000  Uiso   1.00
H1434  H     0.36830   0.80201   0.71795   0.00000  Uiso   1.00
H1435  H     0.41464   0.95986   0.78027   0.00000  Uiso   1.00
H1436  H     0.36708   0.86516   0.71747   0.00000  Uiso   1.00
H1437  H     0.58952   0.83205   0.92383   0.00000  Uiso   1.00
H1438  H     0.63295   0.80132   0.94915   0.00000  Uiso   1.00
H1439  H     0.63163   0.86446   0.94875   0.00000  Uiso   1.00
H1440  H     0.59785   0.80132   0.73987   0.00000  Uiso   1.00
H1441  H     0.59731   0.86408   0.73918   0.00000  Uiso   1.00
H1442  H     0.63556   0.83261   0.70672   0.00000  Uiso   1.00
N1443  N     0.50000   0.95069   0.83333   0.00000  Uiso   1.00
N1444  N     0.50000   0.71598   0.83333   0.00000  Uiso   1.00
N1445  N     0.44459   0.71759   0.77223   0.00000  Uiso   1.00
N1446  N     0.55499   0.94862   0.89456   0.00000  Uiso   1.00
N1447  N     0.56004   0.71150   0.89123   0.00000  Uiso   1.00
N1448  N     0.44499   0.95060   0.77177   0.00000  Uiso   1.00
O1449  O     0.43988   0.87291   0.83333   0.00000  Uiso   1.00
O1450  O     0.56012   0.79375   0.83334   0.00000  Uiso   1.00
O1451  O     0.56012   0.87291   0.83334   0.00000  Uiso   1.00
O1452  O     0.43988   0.79375   0.83333   0.00000  Uiso   1.00
O1453  O     0.50000   0.87292   0.76280   0.00000  Uiso   1.00
O1454  O     0.50000   0.79375   0.90387   0.00000  Uiso   1.00
O1455  O     0.50000   0.87292   0.90387   0.00000  Uiso   1.00
O1456  O     0.50000   0.79375   0.76280   0.00000  Uiso   1.00
C1457  C     0.75429   0.83347   0.83319   0.00000  Uiso   1.00
C1458  C     0.68959   0.83356   0.87858   0.00000  Uiso   1.00
C1459  C     0.95709   0.83293   0.83367   0.00000  Uiso   1.00
C1460  C     0.70957   0.83371   0.83299   0.00000  Uiso   1.00
C1461  C     0.80614   0.69201   0.80364   0.00000  Uiso   1.00
C1462  C     0.86025   0.97427   0.86301   0.00000  Uiso   1.00
C1463  C     0.86112   0.69024   0.86236   0.00000  Uiso   1.00
C1464  C     0.80633   0.97546   0.80342   0.00000  Uiso   1.00
C1465  C     0.70962   0.83376   0.73905   0.00000  Uiso   1.00
C1466  C     0.95703   0.83273   0.92761   0.00000  Uiso   1.00
C1467  C     0.95091   0.83276   0.74076   0.00000  Uiso   1.00
C1468  C     0.91238   0.83319   0.83347   0.00000  Uiso   1.00
C1469  C     0.71574   0.83383   0.92591   0.00000  Uiso   1.00
C1470  C     0.83340   0.83340   0.74028   0.00000  Uiso   1.00
C1471  C     0.83326   0.83326   0.92638   0.00000  Uiso   1.00
C1472  C     0.83335   0.83343   0.68853   0.00000  Uiso   1.00
C1473  C     0.83331   0.83324   0.97813   0.00000  Uiso   1.00
C1474  C     0.68731   0.83348   0.78764   0.00000  Uiso   1.00
C1475  C     0.97935   0.83310   0.87902   0.00000  Uiso   1.00
C1476  C     0.97706   0.83305   0.78808   0.00000  Uiso   1.00
Cu1477 Cu    0.83333   0.88022   0.83333   0.00000  Uiso   1.00
Cu1478 Cu    0.83333   0.78645   0.83333   0.00000  Uiso   1.00
H1479  H     0.74380   0.83436   0.74282   0.00000  Uiso   1.00
H1480  H     0.73546   0.86527   0.92682   0.00000  Uiso   1.00
H1481  H     0.69776   0.83396   0.95995   0.00000  Uiso   1.00
H1482  H     0.73602   0.80252   0.92748   0.00000  Uiso   1.00
H1483  H     0.74765   0.70847   0.78076   0.00000  Uiso   1.00
H1484  H     0.78326   0.70857   0.73576   0.00000  Uiso   1.00
H1485  H     0.88364   0.95889   0.93083   0.00000  Uiso   1.00
H1486  H     0.91865   0.95700   0.88533   0.00000  Uiso   1.00
H1487  H     0.88192   0.73621   0.91512   0.00000  Uiso   1.00
H1488  H     0.91616   0.72446   0.86849   0.00000  Uiso   1.00
H1489  H     0.78370   0.96012   0.73537   0.00000  Uiso   1.00
H1490  H     0.70164   0.80201   0.71795   0.00000  Uiso   1.00
H1491  H     0.74797   0.95986   0.78027   0.00000  Uiso   1.00
H1492  H     0.70041   0.86516   0.71747   0.00000  Uiso   1.00
H1493  H     0.92286   0.83205   0.92383   0.00000  Uiso   1.00
H1494  H     0.96628   0.80132   0.94915   0.00000  Uiso   1.00
H1495  H     0.96497   0.86446   0.94875   0.00000  Uiso   1.00
H1496  H     0.93119   0.80132   0.73987   0.00000  Uiso   1.00
H1497  H     0.93064   0.86408   0.73918   0.00000  Uiso   1.00
H1498  H     0.96889   0.83261   0.70672   0.00000  Uiso   1.00
N1499  N     0.83333   0.95069   0.83333   0.00000  Uiso   1.00
N1500  N     0.83333   0.71598   0.83333   0.00000  Uiso   1.00
N1501  N     0.77793   0.71759   0.77223   0.00000  Uiso   1.00
N1502  N     0.88833   0.94862   0.89456   0.00000  Uiso   1.00
N1503  N     0.89338   0.71150   0.89123   0.00000  Uiso   1.00
N1504  N     0.77833   0.95060   0.77177   0.00000  Uiso   1.00
O1505  O     0.77321   0.87291   0.83333   0.00000  Uiso   1.00
O1506  O     0.89345   0.79375   0.83334   0.00000  Uiso   1.00
O1507  O     0.89345   0.87291   0.83334   0.00000  Uiso   1.00
O1508  O     0.77321   0.79375   0.83333   0.00000  Uiso   1.00
O1509  O     0.83333   0.87292   0.76280   0.00000  Uiso   1.00
O1510  O     0.83333   0.79375   0.90387   0.00000  Uiso   1.00
O1511  O     0.83333   0.87292   0.90387   0.00000  Uiso   1.00
O1512  O     0.83333   0.79375   0.76280   0.00000  Uiso   1.00
loop_
_geom_bond_atom_site_label_1
_geom_bond_atom_site_label_2
_geom_bond_distance
_geom_bond_site_symmetry_2
_ccdc_geom_bond_type
C1     C4      1.443   .     S
C1     O52     1.293   .     A
C1     O49     1.293   .     A
C2     C4      1.411   .     A
C2     C13     1.523   .     S
C2     C131    1.407   1_455 S
C3     C19     1.413   .     A
C3     C20     1.411   .     A
C3     C12     1.443   .     S
C4     C18     1.413   .     A
C5     N45     1.431   .     S
C5     N44     1.371   .     A
C5     C344    1.437   1_545 S
C6     N43     1.359   .     A
C6     N46     1.432   .     S
C6     C175    1.420   .     S
C7     N44     1.389   .     A
C7     N47     1.432   .     S
C7     C342    1.420   1_545 S
C8     N48     1.431   .     S
C8     N43     1.372   .     A
C8     C173    1.437   .     S
C9     H36     1.110   .     S
C9     H34     1.110   .     S
C9     C18     1.520   .     S
C9     H23     1.106   .     S
C10    C19     1.520   .     S
C10    H38     1.110   .     S
C10    H37     1.106   .     S
C10    H39     1.110   .     S
C11    H40     1.110   .     S
C11    H41     1.110   .     S
C11    H42     1.104   .     S
C11    C20     1.523   .     S
C12    O51     1.293   .     A
C12    O50     1.293   .     A
C13    H25     1.104   .     S
C13    H26     1.110   .     S
C13    H24     1.110   .     S
C14    O56     1.293   .     A
C14    O53     1.295   .     A
C14    C16     1.408   .     S
C15    C17     1.408   .     S
C15    O54     1.295   .     A
C15    O55     1.293   .     A
C16    C1025   1.190   1_554 S
C17    C520    1.190   .     S
C18    C132    1.407   1_455 S
C19    C58     1.407   .     S
C20    C74     1.407   .     S
Cu21   N43     2.029   .     S
Cu21   O49     1.953   .     S
Cu21   O53     1.931   .     S
Cu21   O51     1.950   .     S
Cu21   O55     1.929   .     S
Cu21   Cu22    2.700   .     S
Cu22   O50     1.953   .     S
Cu22   O54     1.931   .     S
Cu22   O52     1.950   .     S
Cu22   N44     2.029   .     S
Cu22   O56     1.929   .     S
H27    N45     1.045   .     S
H28    N45     1.045   .     S
H29    N46     1.046   .     S
H30    N46     1.046   .     S
H31    N47     1.038   .     S
H32    N47     1.042   .     S
H33    N48     1.045   .     S
H35    N48     1.045   .     S
C57    C60     1.443   .     S
C57    O108    1.293   .     A
C57    O105    1.293   .     A
C58    C60     1.411   .     A
C58    C69     1.523   .     S
C59    C75     1.413   .     A
C59    C76     1.411   .     A
C59    C68     1.443   .     S
C60    C74     1.413   .     A
C61    N101    1.431   .     S
C61    N100    1.371   .     A
C61    C400    1.437   1_545 S
C62    N99     1.359   .     A
C62    N102    1.432   .     S
C62    C231    1.420   .     S
C63    N100    1.389   .     A
C63    N103    1.432   .     S
C63    C398    1.420   1_545 S
C64    N104    1.431   .     S
C64    N99     1.372   .     A
C64    C229    1.437   .     S
C65    H92     1.110   .     S
C65    H90     1.110   .     S
C65    C74     1.520   .     S
C65    H79     1.106   .     S
C66    C75     1.520   .     S
C66    H94     1.110   .     S
C66    H93     1.106   .     S
C66    H95     1.110   .     S
C67    H96     1.110   .     S
C67    H97     1.110   .     S
C67    H98     1.104   .     S
C67    C76     1.523   .     S
C68    O107    1.293   .     A
C68    O106    1.293   .     A
C69    H81     1.104   .     S
C69    H82     1.110   .     S
C69    H80     1.110   .     S
C70    O112    1.293   .     A
C70    O109    1.295   .     A
C70    C72     1.408   .     S
C71    C73     1.408   .     S
C71    O110    1.295   .     A
C71    O111    1.293   .     A
C72    C1081   1.190   1_554 S
C73    C576    1.190   .     S
C75    C114    1.407   .     S
C76    C130    1.407   .     S
Cu77   N99     2.029   .     S
Cu77   O105    1.953   .     S
Cu77   O109    1.931   .     S
Cu77   O107    1.950   .     S
Cu77   O111    1.929   .     S
Cu77   Cu78    2.700   .     S
Cu78   O106    1.953   .     S
Cu78   O110    1.931   .     S
Cu78   O108    1.950   .     S
Cu78   N100    2.029   .     S
Cu78   O112    1.929   .     S
H83    N101    1.045   .     S
H84    N101    1.045   .     S
H85    N102    1.046   .     S
H86    N102    1.046   .     S
H87    N103    1.038   .     S
H88    N103    1.042   .     S
H89    N104    1.045   .     S
H91    N104    1.045   .     S
C113   C116    1.443   .     S
C113   O164    1.293   .     A
C113   O161    1.293   .     A
C114   C116    1.411   .     A
C114   C125    1.523   .     S
C115   C131    1.413   .     A
C115   C132    1.411   .     A
C115   C124    1.443   .     S
C116   C130    1.413   .     A
C117   N157    1.431   .     S
C117   N156    1.371   .     A
C117   C456    1.437   1_545 S
C118   N155    1.359   .     A
C118   N158    1.432   .     S
C118   C287    1.420   .     S
C119   N156    1.389   .     A
C119   N159    1.432   .     S
C119   C454    1.420   1_545 S
C120   N160    1.431   .     S
C120   N155    1.372   .     A
C120   C285    1.437   .     S
C121   H148    1.110   .     S
C121   H146    1.110   .     S
C121   C130    1.520   .     S
C121   H135    1.106   .     S
C122   C131    1.520   .     S
C122   H150    1.110   .     S
C122   H149    1.106   .     S
C122   H151    1.110   .     S
C123   H152    1.110   .     S
C123   H153    1.110   .     S
C123   H154    1.104   .     S
C123   C132    1.523   .     S
C124   O163    1.293   .     A
C124   O162    1.293   .     A
C125   H137    1.104   .     S
C125   H138    1.110   .     S
C125   H136    1.110   .     S
C126   O168    1.293   .     A
C126   O165    1.295   .     A
C126   C128    1.408   .     S
C127   C129    1.408   .     S
C127   O166    1.295   .     A
C127   O167    1.293   .     A
C128   C1137   1.190   1_554 S
C129   C632    1.190   .     S
C131   C2      1.407   1_655 S
C132   C18     1.407   1_655 S
Cu133  N155    2.029   .     S
Cu133  O161    1.953   .     S
Cu133  O165    1.931   .     S
Cu133  O163    1.950   .     S
Cu133  O167    1.929   .     S
Cu133  Cu134   2.700   .     S
Cu134  O162    1.953   .     S
Cu134  O166    1.931   .     S
Cu134  O164    1.950   .     S
Cu134  N156    2.029   .     S
Cu134  O168    1.929   .     S
H139   N157    1.045   .     S
H140   N157    1.045   .     S
H141   N158    1.046   .     S
H142   N158    1.046   .     S
H143   N159    1.038   .     S
H144   N159    1.042   .     S
H145   N160    1.045   .     S
H147   N160    1.045   .     S
C169   C172    1.443   .     S
C169   O220    1.293   .     A
C169   O217    1.293   .     A
C170   C172    1.411   .     A
C170   C181    1.523   .     S
C170   C299    1.407   1_455 S
C171   C187    1.413   .     A
C171   C188    1.411   .     A
C171   C180    1.443   .     S
C172   C186    1.413   .     A
C173   N213    1.431   .     S
C173   N212    1.371   .     A
C174   N211    1.359   .     A
C174   N214    1.432   .     S
C174   C343    1.420   .     S
C175   N212    1.389   .     A
C175   N215    1.432   .     S
C176   N216    1.431   .     S
C176   N211    1.372   .     A
C176   C341    1.437   .     S
C177   H204    1.110   .     S
C177   H202    1.110   .     S
C177   C186    1.520   .     S
C177   H191    1.106   .     S
C178   C187    1.520   .     S
C178   H206    1.110   .     S
C178   H205    1.106   .     S
C178   H207    1.110   .     S
C179   H208    1.110   .     S
C179   H209    1.110   .     S
C179   H210    1.104   .     S
C179   C188    1.523   .     S
C180   O219    1.293   .     A
C180   O218    1.293   .     A
C181   H193    1.104   .     S
C181   H194    1.110   .     S
C181   H192    1.110   .     S
C182   O224    1.293   .     A
C182   O221    1.295   .     A
C182   C184    1.408   .     S
C183   C185    1.408   .     S
C183   O222    1.295   .     A
C183   O223    1.293   .     A
C184   C1193   1.190   1_554 S
C185   C688    1.190   .     S
C186   C300    1.407   1_455 S
C187   C226    1.407   .     S
C188   C242    1.407   .     S
Cu189  N211    2.029   .     S
Cu189  O217    1.953   .     S
Cu189  O221    1.931   .     S
Cu189  O219    1.950   .     S
Cu189  O223    1.929   .     S
Cu189  Cu190   2.700   .     S
Cu190  O218    1.953   .     S
Cu190  O222    1.931   .     S
Cu190  O220    1.950   .     S
Cu190  N212    2.029   .     S
Cu190  O224    1.929   .     S
H195   N213    1.045   .     S
H196   N213    1.045   .     S
H197   N214    1.046   .     S
H198   N214    1.046   .     S
H199   N215    1.038   .     S
H200   N215    1.042   .     S
H201   N216    1.045   .     S
H203   N216    1.045   .     S
C225   C228    1.443   .     S
C225   O276    1.293   .     A
C225   O273    1.293   .     A
C226   C228    1.411   .     A
C226   C237    1.523   .     S
C227   C243    1.413   .     A
C227   C244    1.411   .     A
C227   C236    1.443   .     S
C228   C242    1.413   .     A
C229   N269    1.431   .     S
C229   N268    1.371   .     A
C230   N267    1.359   .     A
C230   N270    1.432   .     S
C230   C399    1.420   .     S
C231   N268    1.389   .     A
C231   N271    1.432   .     S
C232   N272    1.431   .     S
C232   N267    1.372   .     A
C232   C397    1.437   .     S
C233   H260    1.110   .     S
C233   H258    1.110   .     S
C233   C242    1.520   .     S
C233   H247    1.106   .     S
C234   C243    1.520   .     S
C234   H262    1.110   .     S
C234   H261    1.106   .     S
C234   H263    1.110   .     S
C235   H264    1.110   .     S
C235   H265    1.110   .     S
C235   H266    1.104   .     S
C235   C244    1.523   .     S
C236   O275    1.293   .     A
C236   O274    1.293   .     A
C237   H249    1.104   .     S
C237   H250    1.110   .     S
C237   H248    1.110   .     S
C238   O280    1.293   .     A
C238   O277    1.295   .     A
C238   C240    1.408   .     S
C239   C241    1.408   .     S
C239   O278    1.295   .     A
C239   O279    1.293   .     A
C240   C1249   1.190   1_554 S
C241   C744    1.190   .     S
C243   C282    1.407   .     S
C244   C298    1.407   .     S
Cu245  N267    2.029   .     S
Cu245  O273    1.953   .     S
Cu245  O277    1.931   .     S
Cu245  O275    1.950   .     S
Cu245  O279    1.929   .     S
Cu245  Cu246   2.700   .     S
Cu246  O274    1.953   .     S
Cu246  O278    1.931   .     S
Cu246  O276    1.950   .     S
Cu246  N268    2.029   .     S
Cu246  O280    1.929   .     S
H251   N269    1.045   .     S
H252   N269    1.045   .     S
H253   N270    1.046   .     S
H254   N270    1.046   .     S
H255   N271    1.038   .     S
H256   N271    1.042   .     S
H257   N272    1.045   .     S
H259   N272    1.045   .     S
C281   C284    1.443   .     S
C281   O332    1.293   .     A
C281   O329    1.293   .     A
C282   C284    1.411   .     A
C282   C293    1.523   .     S
C283   C299    1.413   .     A
C283   C300    1.411   .     A
C283   C292    1.443   .     S
C284   C298    1.413   .     A
C285   N325    1.431   .     S
C285   N324    1.371   .     A
C286   N323    1.359   .     A
C286   N326    1.432   .     S
C286   C455    1.420   .     S
C287   N324    1.389   .     A
C287   N327    1.432   .     S
C288   N328    1.431   .     S
C288   N323    1.372   .     A
C288   C453    1.437   .     S
C289   H316    1.110   .     S
C289   H314    1.110   .     S
C289   C298    1.520   .     S
C289   H303    1.106   .     S
C290   C299    1.520   .     S
C290   H318    1.110   .     S
C290   H317    1.106   .     S
C290   H319    1.110   .     S
C291   H320    1.110   .     S
C291   H321    1.110   .     S
C291   H322    1.104   .     S
C291   C300    1.523   .     S
C292   O331    1.293   .     A
C292   O330    1.293   .     A
C293   H305    1.104   .     S
C293   H306    1.110   .     S
C293   H304    1.110   .     S
C294   O336    1.293   .     A
C294   O333    1.295   .     A
C294   C296    1.408   .     S
C295   C297    1.408   .     S
C295   O334    1.295   .     A
C295   O335    1.293   .     A
C296   C1305   1.190   1_554 S
C297   C800    1.190   .     S
C299   C170    1.407   1_655 S
C300   C186    1.407   1_655 S
Cu301  N323    2.029   .     S
Cu301  O329    1.953   .     S
Cu301  O333    1.931   .     S
Cu301  O331    1.950   .     S
Cu301  O335    1.929   .     S
Cu301  Cu302   2.700   .     S
Cu302  O330    1.953   .     S
Cu302  O334    1.931   .     S
Cu302  O332    1.950   .     S
Cu302  N324    2.029   .     S
Cu302  O336    1.929   .     S
H307   N325    1.045   .     S
H308   N325    1.045   .     S
H309   N326    1.046   .     S
H310   N326    1.046   .     S
H311   N327    1.038   .     S
H312   N327    1.042   .     S
H313   N328    1.045   .     S
H315   N328    1.045   .     S
C337   C340    1.443   .     S
C337   O388    1.293   .     A
C337   O385    1.293   .     A
C338   C340    1.411   .     A
C338   C349    1.523   .     S
C338   C467    1.407   1_455 S
C339   C355    1.413   .     A
C339   C356    1.411   .     A
C339   C348    1.443   .     S
C340   C354    1.413   .     A
C341   N381    1.431   .     S
C341   N380    1.371   .     A
C342   N379    1.359   .     A
C342   N382    1.432   .     S
C342   C7      1.420   1_565 S
C343   N380    1.389   .     A
C343   N383    1.432   .     S
C344   N384    1.431   .     S
C344   N379    1.372   .     A
C344   C5      1.437   1_565 S
C345   H372    1.110   .     S
C345   H370    1.110   .     S
C345   C354    1.520   .     S
C345   H359    1.106   .     S
C346   C355    1.520   .     S
C346   H374    1.110   .     S
C346   H373    1.106   .     S
C346   H375    1.110   .     S
C347   H376    1.110   .     S
C347   H377    1.110   .     S
C347   H378    1.104   .     S
C347   C356    1.523   .     S
C348   O387    1.293   .     A
C348   O386    1.293   .     A
C349   H361    1.104   .     S
C349   H362    1.110   .     S
C349   H360    1.110   .     S
C350   O392    1.293   .     A
C350   O389    1.295   .     A
C350   C352    1.408   .     S
C351   C353    1.408   .     S
C351   O390    1.295   .     A
C351   O391    1.293   .     A
C352   C1361   1.190   1_554 S
C353   C856    1.190   .     S
C354   C468    1.407   1_455 S
C355   C394    1.407   .     S
C356   C410    1.407   .     S
Cu357  N379    2.029   .     S
Cu357  O385    1.953   .     S
Cu357  O389    1.931   .     S
Cu357  O387    1.950   .     S
Cu357  O391    1.929   .     S
Cu357  Cu358   2.700   .     S
Cu358  O386    1.953   .     S
Cu358  O390    1.931   .     S
Cu358  O388    1.950   .     S
Cu358  N380    2.029   .     S
Cu358  O392    1.929   .     S
H363   N381    1.045   .     S
H364   N381    1.045   .     S
H365   N382    1.046   .     S
H366   N382    1.046   .     S
H367   N383    1.038   .     S
H368   N383    1.042   .     S
H369   N384    1.045   .     S
H371   N384    1.045   .     S
C393   C396    1.443   .     S
C393   O444    1.293   .     A
C393   O441    1.293   .     A
C394   C396    1.411   .     A
C394   C405    1.523   .     S
C395   C411    1.413   .     A
C395   C412    1.411   .     A
C395   C404    1.443   .     S
C396   C410    1.413   .     A
C397   N437    1.431   .     S
C397   N436    1.371   .     A
C398   N435    1.359   .     A
C398   N438    1.432   .     S
C398   C63     1.420   1_565 S
C399   N436    1.389   .     A
C399   N439    1.432   .     S
C400   N440    1.431   .     S
C400   N435    1.372   .     A
C400   C61     1.437   1_565 S
C401   H428    1.110   .     S
C401   H426    1.110   .     S
C401   C410    1.520   .     S
C401   H415    1.106   .     S
C402   C411    1.520   .     S
C402   H430    1.110   .     S
C402   H429    1.106   .     S
C402   H431    1.110   .     S
C403   H432    1.110   .     S
C403   H433    1.110   .     S
C403   H434    1.104   .     S
C403   C412    1.523   .     S
C404   O443    1.293   .     A
C404   O442    1.293   .     A
C405   H417    1.104   .     S
C405   H418    1.110   .     S
C405   H416    1.110   .     S
C406   O448    1.293   .     A
C406   O445    1.295   .     A
C406   C408    1.408   .     S
C407   C409    1.408   .     S
C407   O446    1.295   .     A
C407   O447    1.293   .     A
C408   C1417   1.190   1_554 S
C409   C912    1.190   .     S
C411   C450    1.407   .     S
C412   C466    1.407   .     S
Cu413  N435    2.029   .     S
Cu413  O441    1.953   .     S
Cu413  O445    1.931   .     S
Cu413  O443    1.950   .     S
Cu413  O447    1.929   .     S
Cu413  Cu414   2.700   .     S
Cu414  O442    1.953   .     S
Cu414  O446    1.931   .     S
Cu414  O444    1.950   .     S
Cu414  N436    2.029   .     S
Cu414  O448    1.929   .     S
H419   N437    1.045   .     S
H420   N437    1.045   .     S
H421   N438    1.046   .     S
H422   N438    1.046   .     S
H423   N439    1.038   .     S
H424   N439    1.042   .     S
H425   N440    1.045   .     S
H427   N440    1.045   .     S
C449   C452    1.443   .     S
C449   O500    1.293   .     A
C449   O497    1.293   .     A
C450   C452    1.411   .     A
C450   C461    1.523   .     S
C451   C467    1.413   .     A
C451   C468    1.411   .     A
C451   C460    1.443   .     S
C452   C466    1.413   .     A
C453   N493    1.431   .     S
C453   N492    1.371   .     A
C454   N491    1.359   .     A
C454   N494    1.432   .     S
C454   C119    1.420   1_565 S
C455   N492    1.389   .     A
C455   N495    1.432   .     S
C456   N496    1.431   .     S
C456   N491    1.372   .     A
C456   C117    1.437   1_565 S
C457   H484    1.110   .     S
C457   H482    1.110   .     S
C457   C466    1.520   .     S
C457   H471    1.106   .     S
C458   C467    1.520   .     S
C458   H486    1.110   .     S
C458   H485    1.106   .     S
C458   H487    1.110   .     S
C459   H488    1.110   .     S
C459   H489    1.110   .     S
C459   H490    1.104   .     S
C459   C468    1.523   .     S
C460   O499    1.293   .     A
C460   O498    1.293   .     A
C461   H473    1.104   .     S
C461   H474    1.110   .     S
C461   H472    1.110   .     S
C462   O504    1.293   .     A
C462   O501    1.295   .     A
C462   C464    1.408   .     S
C463   C465    1.408   .     S
C463   O502    1.295   .     A
C463   O503    1.293   .     A
C464   C1473   1.190   1_554 S
C465   C968    1.190   .     S
C467   C338    1.407   1_655 S
C468   C354    1.407   1_655 S
Cu469  N491    2.029   .     S
Cu469  O497    1.953   .     S
Cu469  O501    1.931   .     S
Cu469  O499    1.950   .     S
Cu469  O503    1.929   .     S
Cu469  Cu470   2.700   .     S
Cu470  O498    1.953   .     S
Cu470  O502    1.931   .     S
Cu470  O500    1.950   .     S
Cu470  N492    2.029   .     S
Cu470  O504    1.929   .     S
H475   N493    1.045   .     S
H476   N493    1.045   .     S
H477   N494    1.046   .     S
H478   N494    1.046   .     S
H479   N495    1.038   .     S
H480   N495    1.042   .     S
H481   N496    1.045   .     S
H483   N496    1.045   .     S
C505   C508    1.443   .     S
C505   O556    1.293   .     A
C505   O553    1.293   .     A
C506   C508    1.411   .     A
C506   C517    1.523   .     S
C506   C635    1.407   1_455 S
C507   C523    1.413   .     A
C507   C524    1.411   .     A
C507   C516    1.443   .     S
C508   C522    1.413   .     A
C509   N549    1.431   .     S
C509   N548    1.371   .     A
C509   C848    1.437   1_545 S
C510   N547    1.359   .     A
C510   N550    1.432   .     S
C510   C679    1.420   .     S
C511   N548    1.389   .     A
C511   N551    1.432   .     S
C511   C846    1.420   1_545 S
C512   N552    1.431   .     S
C512   N547    1.372   .     A
C512   C677    1.437   .     S
C513   H540    1.110   .     S
C513   H538    1.110   .     S
C513   C522    1.520   .     S
C513   H527    1.106   .     S
C514   C523    1.520   .     S
C514   H542    1.110   .     S
C514   H541    1.106   .     S
C514   H543    1.110   .     S
C515   H544    1.110   .     S
C515   H545    1.110   .     S
C515   H546    1.104   .     S
C515   C524    1.523   .     S
C516   O555    1.293   .     A
C516   O554    1.293   .     A
C517   H529    1.104   .     S
C517   H530    1.110   .     S
C517   H528    1.110   .     S
C518   O560    1.293   .     A
C518   O557    1.295   .     A
C518   C520    1.408   .     S
C519   C521    1.408   .     S
C519   O558    1.295   .     A
C519   O559    1.293   .     A
C521   C1024   1.190   .     S
C522   C636    1.407   1_455 S
C523   C562    1.407   .     S
C524   C578    1.407   .     S
Cu525  N547    2.029   .     S
Cu525  O553    1.953   .     S
Cu525  O557    1.931   .     S
Cu525  O555    1.950   .     S
Cu525  O559    1.929   .     S
Cu525  Cu526   2.700   .     S
Cu526  O554    1.953   .     S
Cu526  O558    1.931   .     S
Cu526  O556    1.950   .     S
Cu526  N548    2.029   .     S
Cu526  O560    1.929   .     S
H531   N549    1.045   .     S
H532   N549    1.045   .     S
H533   N550    1.046   .     S
H534   N550    1.046   .     S
H535   N551    1.038   .     S
H536   N551    1.042   .     S
H537   N552    1.045   .     S
H539   N552    1.045   .     S
C561   C564    1.443   .     S
C561   O612    1.293   .     A
C561   O609    1.293   .     A
C562   C564    1.411   .     A
C562   C573    1.523   .     S
C563   C579    1.413   .     A
C563   C580    1.411   .     A
C563   C572    1.443   .     S
C564   C578    1.413   .     A
C565   N605    1.431   .     S
C565   N604    1.371   .     A
C565   C904    1.437   1_545 S
C566   N603    1.359   .     A
C566   N606    1.432   .     S
C566   C735    1.420   .     S
C567   N604    1.389   .     A
C567   N607    1.432   .     S
C567   C902    1.420   1_545 S
C568   N608    1.431   .     S
C568   N603    1.372   .     A
C568   C733    1.437   .     S
C569   H596    1.110   .     S
C569   H594    1.110   .     S
C569   C578    1.520   .     S
C569   H583    1.106   .     S
C570   C579    1.520   .     S
C570   H598    1.110   .     S
C570   H597    1.106   .     S
C570   H599    1.110   .     S
C571   H600    1.110   .     S
C571   H601    1.110   .     S
C571   H602    1.104   .     S
C571   C580    1.523   .     S
C572   O611    1.293   .     A
C572   O610    1.293   .     A
C573   H585    1.104   .     S
C573   H586    1.110   .     S
C573   H584    1.110   .     S
C574   O616    1.293   .     A
C574   O613    1.295   .     A
C574   C576    1.408   .     S
C575   C577    1.408   .     S
C575   O614    1.295   .     A
C575   O615    1.293   .     A
C577   C1080   1.190   .     S
C579   C618    1.407   .     S
C580   C634    1.407   .     S
Cu581  N603    2.029   .     S
Cu581  O609    1.953   .     S
Cu581  O613    1.931   .     S
Cu581  O611    1.950   .     S
Cu581  O615    1.929   .     S
Cu581  Cu582   2.700   .     S
Cu582  O610    1.953   .     S
Cu582  O614    1.931   .     S
Cu582  O612    1.950   .     S
Cu582  N604    2.029   .     S
Cu582  O616    1.929   .     S
H587   N605    1.045   .     S
H588   N605    1.045   .     S
H589   N606    1.046   .     S
H590   N606    1.046   .     S
H591   N607    1.038   .     S
H592   N607    1.042   .     S
H593   N608    1.045   .     S
H595   N608    1.045   .     S
C617   C620    1.443   .     S
C617   O668    1.293   .     A
C617   O665    1.293   .     A
C618   C620    1.411   .     A
C618   C629    1.523   .     S
C619   C635    1.413   .     A
C619   C636    1.411   .     A
C619   C628    1.443   .     S
C620   C634    1.413   .     A
C621   N661    1.431   .     S
C621   N660    1.371   .     A
C621   C960    1.437   1_545 S
C622   N659    1.359   .     A
C622   N662    1.432   .     S
C622   C791    1.420   .     S
C623   N660    1.389   .     A
C623   N663    1.432   .     S
C623   C958    1.420   1_545 S
C624   N664    1.431   .     S
C624   N659    1.372   .     A
C624   C789    1.437   .     S
C625   H652    1.110   .     S
C625   H650    1.110   .     S
C625   C634    1.520   .     S
C625   H639    1.106   .     S
C626   C635    1.520   .     S
C626   H654    1.110   .     S
C626   H653    1.106   .     S
C626   H655    1.110   .     S
C627   H656    1.110   .     S
C627   H657    1.110   .     S
C627   H658    1.104   .     S
C627   C636    1.523   .     S
C628   O667    1.293   .     A
C628   O666    1.293   .     A
C629   H641    1.104   .     S
C629   H642    1.110   .     S
C629   H640    1.110   .     S
C630   O672    1.293   .     A
C630   O669    1.295   .     A
C630   C632    1.408   .     S
C631   C633    1.408   .     S
C631   O670    1.295   .     A
C631   O671    1.293   .     A
C633   C1136   1.190   .     S
C635   C506    1.407   1_655 S
C636   C522    1.407   1_655 S
Cu637  N659    2.029   .     S
Cu637  O665    1.953   .     S
Cu637  O669    1.931   .     S
Cu637  O667    1.950   .     S
Cu637  O671    1.929   .     S
Cu637  Cu638   2.700   .     S
Cu638  O666    1.953   .     S
Cu638  O670    1.931   .     S
Cu638  O668    1.950   .     S
Cu638  N660    2.029   .     S
Cu638  O672    1.929   .     S
H643   N661    1.045   .     S
H644   N661    1.045   .     S
H645   N662    1.046   .     S
H646   N662    1.046   .     S
H647   N663    1.038   .     S
H648   N663    1.042   .     S
H649   N664    1.045   .     S
H651   N664    1.045   .     S
C673   C676    1.443   .     S
C673   O724    1.293   .     A
C673   O721    1.293   .     A
C674   C676    1.411   .     A
C674   C685    1.523   .     S
C674   C803    1.407   1_455 S
C675   C691    1.413   .     A
C675   C692    1.411   .     A
C675   C684    1.443   .     S
C676   C690    1.413   .     A
C677   N717    1.431   .     S
C677   N716    1.371   .     A
C678   N715    1.359   .     A
C678   N718    1.432   .     S
C678   C847    1.420   .     S
C679   N716    1.389   .     A
C679   N719    1.432   .     S
C680   N720    1.431   .     S
C680   N715    1.372   .     A
C680   C845    1.437   .     S
C681   H708    1.110   .     S
C681   H706    1.110   .     S
C681   C690    1.520   .     S
C681   H695    1.106   .     S
C682   C691    1.520   .     S
C682   H710    1.110   .     S
C682   H709    1.106   .     S
C682   H711    1.110   .     S
C683   H712    1.110   .     S
C683   H713    1.110   .     S
C683   H714    1.104   .     S
C683   C692    1.523   .     S
C684   O723    1.293   .     A
C684   O722    1.293   .     A
C685   H697    1.104   .     S
C685   H698    1.110   .     S
C685   H696    1.110   .     S
C686   O728    1.293   .     A
C686   O725    1.295   .     A
C686   C688    1.408   .     S
C687   C689    1.408   .     S
C687   O726    1.295   .     A
C687   O727    1.293   .     A
C689   C1192   1.190   .     S
C690   C804    1.407   1_455 S
C691   C730    1.407   .     S
C692   C746    1.407   .     S
Cu693  N715    2.029   .     S
Cu693  O721    1.953   .     S
Cu693  O725    1.931   .     S
Cu693  O723    1.950   .     S
Cu693  O727    1.929   .     S
Cu693  Cu694   2.700   .     S
Cu694  O722    1.953   .     S
Cu694  O726    1.931   .     S
Cu694  O724    1.950   .     S
Cu694  N716    2.029   .     S
Cu694  O728    1.929   .     S
H699   N717    1.045   .     S
H700   N717    1.045   .     S
H701   N718    1.046   .     S
H702   N718    1.046   .     S
H703   N719    1.038   .     S
H704   N719    1.042   .     S
H705   N720    1.045   .     S
H707   N720    1.045   .     S
C729   C732    1.443   .     S
C729   O780    1.293   .     A
C729   O777    1.293   .     A
C730   C732    1.411   .     A
C730   C741    1.523   .     S
C731   C747    1.413   .     A
C731   C748    1.411   .     A
C731   C740    1.443   .     S
C732   C746    1.413   .     A
C733   N773    1.431   .     S
C733   N772    1.371   .     A
C734   N771    1.359   .     A
C734   N774    1.432   .     S
C734   C903    1.420   .     S
C735   N772    1.389   .     A
C735   N775    1.432   .     S
C736   N776    1.431   .     S
C736   N771    1.372   .     A
C736   C901    1.437   .     S
C737   H764    1.110   .     S
C737   H762    1.110   .     S
C737   C746    1.520   .     S
C737   H751    1.106   .     S
C738   C747    1.520   .     S
C738   H766    1.110   .     S
C738   H765    1.106   .     S
C738   H767    1.110   .     S
C739   H768    1.110   .     S
C739   H769    1.110   .     S
C739   H770    1.104   .     S
C739   C748    1.523   .     S
C740   O779    1.293   .     A
C740   O778    1.293   .     A
C741   H753    1.104   .     S
C741   H754    1.110   .     S
C741   H752    1.110   .     S
C742   O784    1.293   .     A
C742   O781    1.295   .     A
C742   C744    1.408   .     S
C743   C745    1.408   .     S
C743   O782    1.295   .     A
C743   O783    1.293   .     A
C745   C1248   1.190   .     S
C747   C786    1.407   .     S
C748   C802    1.407   .     S
Cu749  N771    2.029   .     S
Cu749  O777    1.953   .     S
Cu749  O781    1.931   .     S
Cu749  O779    1.950   .     S
Cu749  O783    1.929   .     S
Cu749  Cu750   2.700   .     S
Cu750  O778    1.953   .     S
Cu750  O782    1.931   .     S
Cu750  O780    1.950   .     S
Cu750  N772    2.029   .     S
Cu750  O784    1.929   .     S
H755   N773    1.045   .     S
H756   N773    1.045   .     S
H757   N774    1.046   .     S
H758   N774    1.046   .     S
H759   N775    1.038   .     S
H760   N775    1.042   .     S
H761   N776    1.045   .     S
H763   N776    1.045   .     S
C785   C788    1.443   .     S
C785   O836    1.293   .     A
C785   O833    1.293   .     A
C786   C788    1.411   .     A
C786   C797    1.523   .     S
C787   C803    1.413   .     A
C787   C804    1.411   .     A
C787   C796    1.443   .     S
C788   C802    1.413   .     A
C789   N829    1.431   .     S
C789   N828    1.371   .     A
C790   N827    1.359   .     A
C790   N830    1.432   .     S
C790   C959    1.420   .     S
C791   N828    1.389   .     A
C791   N831    1.432   .     S
C792   N832    1.431   .     S
C792   N827    1.372   .     A
C792   C957    1.437   .     S
C793   H820    1.110   .     S
C793   H818    1.110   .     S
C793   C802    1.520   .     S
C793   H807    1.106   .     S
C794   C803    1.520   .     S
C794   H822    1.110   .     S
C794   H821    1.106   .     S
C794   H823    1.110   .     S
C795   H824    1.110   .     S
C795   H825    1.110   .     S
C795   H826    1.104   .     S
C795   C804    1.523   .     S
C796   O835    1.293   .     A
C796   O834    1.293   .     A
C797   H809    1.104   .     S
C797   H810    1.110   .     S
C797   H808    1.110   .     S
C798   O840    1.293   .     A
C798   O837    1.295   .     A
C798   C800    1.408   .     S
C799   C801    1.408   .     S
C799   O838    1.295   .     A
C799   O839    1.293   .     A
C801   C1304   1.190   .     S
C803   C674    1.407   1_655 S
C804   C690    1.407   1_655 S
Cu805  N827    2.029   .     S
Cu805  O833    1.953   .     S
Cu805  O837    1.931   .     S
Cu805  O835    1.950   .     S
Cu805  O839    1.929   .     S
Cu805  Cu806   2.700   .     S
Cu806  O834    1.953   .     S
Cu806  O838    1.931   .     S
Cu806  O836    1.950   .     S
Cu806  N828    2.029   .     S
Cu806  O840    1.929   .     S
H811   N829    1.045   .     S
H812   N829    1.045   .     S
H813   N830    1.046   .     S
H814   N830    1.046   .     S
H815   N831    1.038   .     S
H816   N831    1.042   .     S
H817   N832    1.045   .     S
H819   N832    1.045   .     S
C841   C844    1.443   .     S
C841   O892    1.293   .     A
C841   O889    1.293   .     A
C842   C844    1.411   .     A
C842   C853    1.523   .     S
C842   C971    1.407   1_455 S
C843   C859    1.413   .     A
C843   C860    1.411   .     A
C843   C852    1.443   .     S
C844   C858    1.413   .     A
C845   N885    1.431   .     S
C845   N884    1.371   .     A
C846   N883    1.359   .     A
C846   N886    1.432   .     S
C846   C511    1.420   1_565 S
C847   N884    1.389   .     A
C847   N887    1.432   .     S
C848   N888    1.431   .     S
C848   N883    1.372   .     A
C848   C509    1.437   1_565 S
C849   H876    1.110   .     S
C849   H874    1.110   .     S
C849   C858    1.520   .     S
C849   H863    1.106   .     S
C850   C859    1.520   .     S
C850   H878    1.110   .     S
C850   H877    1.106   .     S
C850   H879    1.110   .     S
C851   H880    1.110   .     S
C851   H881    1.110   .     S
C851   H882    1.104   .     S
C851   C860    1.523   .     S
C852   O891    1.293   .     A
C852   O890    1.293   .     A
C853   H865    1.104   .     S
C853   H866    1.110   .     S
C853   H864    1.110   .     S
C854   O896    1.293   .     A
C854   O893    1.295   .     A
C854   C856    1.408   .     S
C855   C857    1.408   .     S
C855   O894    1.295   .     A
C855   O895    1.293   .     A
C857   C1360   1.190   .     S
C858   C972    1.407   1_455 S
C859   C898    1.407   .     S
C860   C914    1.407   .     S
Cu861  N883    2.029   .     S
Cu861  O889    1.953   .     S
Cu861  O893    1.931   .     S
Cu861  O891    1.950   .     S
Cu861  O895    1.929   .     S
Cu861  Cu862   2.700   .     S
Cu862  O890    1.953   .     S
Cu862  O894    1.931   .     S
Cu862  O892    1.950   .     S
Cu862  N884    2.029   .     S
Cu862  O896    1.929   .     S
H867   N885    1.045   .     S
H868   N885    1.045   .     S
H869   N886    1.046   .     S
H870   N886    1.046   .     S
H871   N887    1.038   .     S
H872   N887    1.042   .     S
H873   N888    1.045   .     S
H875   N888    1.045   .     S
C897   C900    1.443   .     S
C897   O948    1.293   .     A
C897   O945    1.293   .     A
C898   C900    1.411   .     A
C898   C909    1.523   .     S
C899   C915    1.413   .     A
C899   C916    1.411   .     A
C899   C908    1.443   .     S
C900   C914    1.413   .     A
C901   N941    1.431   .     S
C901   N940    1.371   .     A
C902   N939    1.359   .     A
C902   N942    1.432   .     S
C902   C567    1.420   1_565 S
C903   N940    1.389   .     A
C903   N943    1.432   .     S
C904   N944    1.431   .     S
C904   N939    1.372   .     A
C904   C565    1.437   1_565 S
C905   H932    1.110   .     S
C905   H930    1.110   .     S
C905   C914    1.520   .     S
C905   H919    1.106   .     S
C906   C915    1.520   .     S
C906   H934    1.110   .     S
C906   H933    1.106   .     S
C906   H935    1.110   .     S
C907   H936    1.110   .     S
C907   H937    1.110   .     S
C907   H938    1.104   .     S
C907   C916    1.523   .     S
C908   O947    1.293   .     A
C908   O946    1.293   .     A
C909   H921    1.104   .     S
C909   H922    1.110   .     S
C909   H920    1.110   .     S
C910   O952    1.293   .     A
C910   O949    1.295   .     A
C910   C912    1.408   .     S
C911   C913    1.408   .     S
C911   O950    1.295   .     A
C911   O951    1.293   .     A
C913   C1416   1.190   .     S
C915   C954    1.407   .     S
C916   C970    1.407   .     S
Cu917  N939    2.029   .     S
Cu917  O945    1.953   .     S
Cu917  O949    1.931   .     S
Cu917  O947    1.950   .     S
Cu917  O951    1.929   .     S
Cu917  Cu918   2.700   .     S
Cu918  O946    1.953   .     S
Cu918  O950    1.931   .     S
Cu918  O948    1.950   .     S
Cu918  N940    2.029   .     S
Cu918  O952    1.929   .     S
H923   N941    1.045   .     S
H924   N941    1.045   .     S
H925   N942    1.046   .     S
H926   N942    1.046   .     S
H927   N943    1.038   .     S
H928   N943    1.042   .     S
H929   N944    1.045   .     S
H931   N944    1.045   .     S
C953   C956    1.443   .     S
C953   O1004   1.293   .     A
C953   O1001   1.293   .     A
C954   C956    1.411   .     A
C954   C965    1.523   .     S
C955   C971    1.413   .     A
C955   C972    1.411   .     A
C955   C964    1.443   .     S
C956   C970    1.413   .     A
C957   N997    1.431   .     S
C957   N996    1.371   .     A
C958   N995    1.359   .     A
C958   N998    1.432   .     S
C958   C623    1.420   1_565 S
C959   N996    1.389   .     A
C959   N999    1.432   .     S
C960   N1000   1.431   .     S
C960   N995    1.372   .     A
C960   C621    1.437   1_565 S
C961   H988    1.110   .     S
C961   H986    1.110   .     S
C961   C970    1.520   .     S
C961   H975    1.106   .     S
C962   C971    1.520   .     S
C962   H990    1.110   .     S
C962   H989    1.106   .     S
C962   H991    1.110   .     S
C963   H992    1.110   .     S
C963   H993    1.110   .     S
C963   H994    1.104   .     S
C963   C972    1.523   .     S
C964   O1003   1.293   .     A
C964   O1002   1.293   .     A
C965   H977    1.104   .     S
C965   H978    1.110   .     S
C965   H976    1.110   .     S
C966   O1008   1.293   .     A
C966   O1005   1.295   .     A
C966   C968    1.408   .     S
C967   C969    1.408   .     S
C967   O1006   1.295   .     A
C967   O1007   1.293   .     A
C969   C1472   1.190   .     S
C971   C842    1.407   1_655 S
C972   C858    1.407   1_655 S
Cu973  N995    2.029   .     S
Cu973  O1001   1.953   .     S
Cu973  O1005   1.931   .     S
Cu973  O1003   1.950   .     S
Cu973  O1007   1.929   .     S
Cu973  Cu974   2.700   .     S
Cu974  O1002   1.953   .     S
Cu974  O1006   1.931   .     S
Cu974  O1004   1.950   .     S
Cu974  N996    2.029   .     S
Cu974  O1008   1.929   .     S
H979   N997    1.045   .     S
H980   N997    1.045   .     S
H981   N998    1.046   .     S
H982   N998    1.046   .     S
H983   N999    1.038   .     S
H984   N999    1.042   .     S
H985   N1000   1.045   .     S
H987   N1000   1.045   .     S
C1009  C1012   1.443   .     S
C1009  O1060   1.293   .     A
C1009  O1057   1.293   .     A
C1010  C1012   1.411   .     A
C1010  C1021   1.523   .     S
C1010  C1139   1.407   1_455 S
C1011  C1027   1.413   .     A
C1011  C1028   1.411   .     A
C1011  C1020   1.443   .     S
C1012  C1026   1.413   .     A
C1013  N1053   1.431   .     S
C1013  N1052   1.371   .     A
C1013  C1352   1.437   1_545 S
C1014  N1051   1.359   .     A
C1014  N1054   1.432   .     S
C1014  C1183   1.420   .     S
C1015  N1052   1.389   .     A
C1015  N1055   1.432   .     S
C1015  C1350   1.420   1_545 S
C1016  N1056   1.431   .     S
C1016  N1051   1.372   .     A
C1016  C1181   1.437   .     S
C1017  H1044   1.110   .     S
C1017  H1042   1.110   .     S
C1017  C1026   1.520   .     S
C1017  H1031   1.106   .     S
C1018  C1027   1.520   .     S
C1018  H1046   1.110   .     S
C1018  H1045   1.106   .     S
C1018  H1047   1.110   .     S
C1019  H1048   1.110   .     S
C1019  H1049   1.110   .     S
C1019  H1050   1.104   .     S
C1019  C1028   1.523   .     S
C1020  O1059   1.293   .     A
C1020  O1058   1.293   .     A
C1021  H1033   1.104   .     S
C1021  H1034   1.110   .     S
C1021  H1032   1.110   .     S
C1022  O1064   1.293   .     A
C1022  O1061   1.295   .     A
C1022  C1024   1.408   .     S
C1023  C1025   1.408   .     S
C1023  O1062   1.295   .     A
C1023  O1063   1.293   .     A
C1025  C16     1.190   1_556 S
C1026  C1140   1.407   1_455 S
C1027  C1066   1.407   .     S
C1028  C1082   1.407   .     S
Cu1029 N1051   2.029   .     S
Cu1029 O1057   1.953   .     S
Cu1029 O1061   1.931   .     S
Cu1029 O1059   1.950   .     S
Cu1029 O1063   1.929   .     S
Cu1029 Cu1030  2.700   .     S
Cu1030 O1058   1.953   .     S
Cu1030 O1062   1.931   .     S
Cu1030 O1060   1.950   .     S
Cu1030 N1052   2.029   .     S
Cu1030 O1064   1.929   .     S
H1035  N1053   1.045   .     S
H1036  N1053   1.045   .     S
H1037  N1054   1.046   .     S
H1038  N1054   1.046   .     S
H1039  N1055   1.038   .     S
H1040  N1055   1.042   .     S
H1041  N1056   1.045   .     S
H1043  N1056   1.045   .     S
C1065  C1068   1.443   .     S
C1065  O1116   1.293   .     A
C1065  O1113   1.293   .     A
C1066  C1068   1.411   .     A
C1066  C1077   1.523   .     S
C1067  C1083   1.413   .     A
C1067  C1084   1.411   .     A
C1067  C1076   1.443   .     S
C1068  C1082   1.413   .     A
C1069  N1109   1.431   .     S
C1069  N1108   1.371   .     A
C1069  C1408   1.437   1_545 S
C1070  N1107   1.359   .     A
C1070  N1110   1.432   .     S
C1070  C1239   1.420   .     S
C1071  N1108   1.389   .     A
C1071  N1111   1.432   .     S
C1071  C1406   1.420   1_545 S
C1072  N1112   1.431   .     S
C1072  N1107   1.372   .     A
C1072  C1237   1.437   .     S
C1073  H1100   1.110   .     S
C1073  H1098   1.110   .     S
C1073  C1082   1.520   .     S
C1073  H1087   1.106   .     S
C1074  C1083   1.520   .     S
C1074  H1102   1.110   .     S
C1074  H1101   1.106   .     S
C1074  H1103   1.110   .     S
C1075  H1104   1.110   .     S
C1075  H1105   1.110   .     S
C1075  H1106   1.104   .     S
C1075  C1084   1.523   .     S
C1076  O1115   1.293   .     A
C1076  O1114   1.293   .     A
C1077  H1089   1.104   .     S
C1077  H1090   1.110   .     S
C1077  H1088   1.110   .     S
C1078  O1120   1.293   .     A
C1078  O1117   1.295   .     A
C1078  C1080   1.408   .     S
C1079  C1081   1.408   .     S
C1079  O1118   1.295   .     A
C1079  O1119   1.293   .     A
C1081  C72     1.190   1_556 S
C1083  C1122   1.407   .     S
C1084  C1138   1.407   .     S
Cu1085 N1107   2.029   .     S
Cu1085 O1113   1.953   .     S
Cu1085 O1117   1.931   .     S
Cu1085 O1115   1.950   .     S
Cu1085 O1119   1.929   .     S
Cu1085 Cu1086  2.700   .     S
Cu1086 O1114   1.953   .     S
Cu1086 O1118   1.931   .     S
Cu1086 O1116   1.950   .     S
Cu1086 N1108   2.029   .     S
Cu1086 O1120   1.929   .     S
H1091  N1109   1.045   .     S
H1092  N1109   1.045   .     S
H1093  N1110   1.046   .     S
H1094  N1110   1.046   .     S
H1095  N1111   1.038   .     S
H1096  N1111   1.042   .     S
H1097  N1112   1.045   .     S
H1099  N1112   1.045   .     S
C1121  C1124   1.443   .     S
C1121  O1172   1.293   .     A
C1121  O1169   1.293   .     A
C1122  C1124   1.411   .     A
C1122  C1133   1.523   .     S
C1123  C1139   1.413   .     A
C1123  C1140   1.411   .     A
C1123  C1132   1.443   .     S
C1124  C1138   1.413   .     A
C1125  N1165   1.431   .     S
C1125  N1164   1.371   .     A
C1125  C1464   1.437   1_545 S
C1126  N1163   1.359   .     A
C1126  N1166   1.432   .     S
C1126  C1295   1.420   .     S
C1127  N1164   1.389   .     A
C1127  N1167   1.432   .     S
C1127  C1462   1.420   1_545 S
C1128  N1168   1.431   .     S
C1128  N1163   1.372   .     A
C1128  C1293   1.437   .     S
C1129  H1156   1.110   .     S
C1129  H1154   1.110   .     S
C1129  C1138   1.520   .     S
C1129  H1143   1.106   .     S
C1130  C1139   1.520   .     S
C1130  H1158   1.110   .     S
C1130  H1157   1.106   .     S
C1130  H1159   1.110   .     S
C1131  H1160   1.110   .     S
C1131  H1161   1.110   .     S
C1131  H1162   1.104   .     S
C1131  C1140   1.523   .     S
C1132  O1171   1.293   .     A
C1132  O1170   1.293   .     A
C1133  H1145   1.104   .     S
C1133  H1146   1.110   .     S
C1133  H1144   1.110   .     S
C1134  O1176   1.293   .     A
C1134  O1173   1.295   .     A
C1134  C1136   1.408   .     S
C1135  C1137   1.408   .     S
C1135  O1174   1.295   .     A
C1135  O1175   1.293   .     A
C1137  C128    1.190   1_556 S
C1139  C1010   1.407   1_655 S
C1140  C1026   1.407   1_655 S
Cu1141 N1163   2.029   .     S
Cu1141 O1169   1.953   .     S
Cu1141 O1173   1.931   .     S
Cu1141 O1171   1.950   .     S
Cu1141 O1175   1.929   .     S
Cu1141 Cu1142  2.700   .     S
Cu1142 O1170   1.953   .     S
Cu1142 O1174   1.931   .     S
Cu1142 O1172   1.950   .     S
Cu1142 N1164   2.029   .     S
Cu1142 O1176   1.929   .     S
H1147  N1165   1.045   .     S
H1148  N1165   1.045   .     S
H1149  N1166   1.046   .     S
H1150  N1166   1.046   .     S
H1151  N1167   1.038   .     S
H1152  N1167   1.042   .     S
H1153  N1168   1.045   .     S
H1155  N1168   1.045   .     S
C1177  C1180   1.443   .     S
C1177  O1228   1.293   .     A
C1177  O1225   1.293   .     A
C1178  C1180   1.411   .     A
C1178  C1189   1.523   .     S
C1178  C1307   1.407   1_455 S
C1179  C1195   1.413   .     A
C1179  C1196   1.411   .     A
C1179  C1188   1.443   .     S
C1180  C1194   1.413   .     A
C1181  N1221   1.431   .     S
C1181  N1220   1.371   .     A
C1182  N1219   1.359   .     A
C1182  N1222   1.432   .     S
C1182  C1351   1.420   .     S
C1183  N1220   1.389   .     A
C1183  N1223   1.432   .     S
C1184  N1224   1.431   .     S
C1184  N1219   1.372   .     A
C1184  C1349   1.437   .     S
C1185  H1212   1.110   .     S
C1185  H1210   1.110   .     S
C1185  C1194   1.520   .     S
C1185  H1199   1.106   .     S
C1186  C1195   1.520   .     S
C1186  H1214   1.110   .     S
C1186  H1213   1.106   .     S
C1186  H1215   1.110   .     S
C1187  H1216   1.110   .     S
C1187  H1217   1.110   .     S
C1187  H1218   1.104   .     S
C1187  C1196   1.523   .     S
C1188  O1227   1.293   .     A
C1188  O1226   1.293   .     A
C1189  H1201   1.104   .     S
C1189  H1202   1.110   .     S
C1189  H1200   1.110   .     S
C1190  O1232   1.293   .     A
C1190  O1229   1.295   .     A
C1190  C1192   1.408   .     S
C1191  C1193   1.408   .     S
C1191  O1230   1.295   .     A
C1191  O1231   1.293   .     A
C1193  C184    1.190   1_556 S
C1194  C1308   1.407   1_455 S
C1195  C1234   1.407   .     S
C1196  C1250   1.407   .     S
Cu1197 N1219   2.029   .     S
Cu1197 O1225   1.953   .     S
Cu1197 O1229   1.931   .     S
Cu1197 O1227   1.950   .     S
Cu1197 O1231   1.929   .     S
Cu1197 Cu1198  2.700   .     S
Cu1198 O1226   1.953   .     S
Cu1198 O1230   1.931   .     S
Cu1198 O1228   1.950   .     S
Cu1198 N1220   2.029   .     S
Cu1198 O1232   1.929   .     S
H1203  N1221   1.045   .     S
H1204  N1221   1.045   .     S
H1205  N1222   1.046   .     S
H1206  N1222   1.046   .     S
H1207  N1223   1.038   .     S
H1208  N1223   1.042   .     S
H1209  N1224   1.045   .     S
H1211  N1224   1.045   .     S
C1233  C1236   1.443   .     S
C1233  O1284   1.293   .     A
C1233  O1281   1.293   .     A
C1234  C1236   1.411   .     A
C1234  C1245   1.523   .     S
C1235  C1251   1.413   .     A
C1235  C1252   1.411   .     A
C1235  C1244   1.443   .     S
C1236  C1250   1.413   .     A
C1237  N1277   1.431   .     S
C1237  N1276   1.371   .     A
C1238  N1275   1.359   .     A
C1238  N1278   1.432   .     S
C1238  C1407   1.420   .     S
C1239  N1276   1.389   .     A
C1239  N1279   1.432   .     S
C1240  N1280   1.431   .     S
C1240  N1275   1.372   .     A
C1240  C1405   1.437   .     S
C1241  H1268   1.110   .     S
C1241  H1266   1.110   .     S
C1241  C1250   1.520   .     S
C1241  H1255   1.106   .     S
C1242  C1251   1.520   .     S
C1242  H1270   1.110   .     S
C1242  H1269   1.106   .     S
C1242  H1271   1.110   .     S
C1243  H1272   1.110   .     S
C1243  H1273   1.110   .     S
C1243  H1274   1.104   .     S
C1243  C1252   1.523   .     S
C1244  O1283   1.293   .     A
C1244  O1282   1.293   .     A
C1245  H1257   1.104   .     S
C1245  H1258   1.110   .     S
C1245  H1256   1.110   .     S
C1246  O1288   1.293   .     A
C1246  O1285   1.295   .     A
C1246  C1248   1.408   .     S
C1247  C1249   1.408   .     S
C1247  O1286   1.295   .     A
C1247  O1287   1.293   .     A
C1249  C240    1.190   1_556 S
C1251  C1290   1.407   .     S
C1252  C1306   1.407   .     S
Cu1253 N1275   2.029   .     S
Cu1253 O1281   1.953   .     S
Cu1253 O1285   1.931   .     S
Cu1253 O1283   1.950   .     S
Cu1253 O1287   1.929   .     S
Cu1253 Cu1254  2.700   .     S
Cu1254 O1282   1.953   .     S
Cu1254 O1286   1.931   .     S
Cu1254 O1284   1.950   .     S
Cu1254 N1276   2.029   .     S
Cu1254 O1288   1.929   .     S
H1259  N1277   1.045   .     S
H1260  N1277   1.045   .     S
H1261  N1278   1.046   .     S
H1262  N1278   1.046   .     S
H1263  N1279   1.038   .     S
H1264  N1279   1.042   .     S
H1265  N1280   1.045   .     S
H1267  N1280   1.045   .     S
C1289  C1292   1.443   .     S
C1289  O1340   1.293   .     A
C1289  O1337   1.293   .     A
C1290  C1292   1.411   .     A
C1290  C1301   1.523   .     S
C1291  C1307   1.413   .     A
C1291  C1308   1.411   .     A
C1291  C1300   1.443   .     S
C1292  C1306   1.413   .     A
C1293  N1333   1.431   .     S
C1293  N1332   1.371   .     A
C1294  N1331   1.359   .     A
C1294  N1334   1.432   .     S
C1294  C1463   1.420   .     S
C1295  N1332   1.389   .     A
C1295  N1335   1.432   .     S
C1296  N1336   1.431   .     S
C1296  N1331   1.372   .     A
C1296  C1461   1.437   .     S
C1297  H1324   1.110   .     S
C1297  H1322   1.110   .     S
C1297  C1306   1.520   .     S
C1297  H1311   1.106   .     S
C1298  C1307   1.520   .     S
C1298  H1326   1.110   .     S
C1298  H1325   1.106   .     S
C1298  H1327   1.110   .     S
C1299  H1328   1.110   .     S
C1299  H1329   1.110   .     S
C1299  H1330   1.104   .     S
C1299  C1308   1.523   .     S
C1300  O1339   1.293   .     A
C1300  O1338   1.293   .     A
C1301  H1313   1.104   .     S
C1301  H1314   1.110   .     S
C1301  H1312   1.110   .     S
C1302  O1344   1.293   .     A
C1302  O1341   1.295   .     A
C1302  C1304   1.408   .     S
C1303  C1305   1.408   .     S
C1303  O1342   1.295   .     A
C1303  O1343   1.293   .     A
C1305  C296    1.190   1_556 S
C1307  C1178   1.407   1_655 S
C1308  C1194   1.407   1_655 S
Cu1309 N1331   2.029   .     S
Cu1309 O1337   1.953   .     S
Cu1309 O1341   1.931   .     S
Cu1309 O1339   1.950   .     S
Cu1309 O1343   1.929   .     S
Cu1309 Cu1310  2.700   .     S
Cu1310 O1338   1.953   .     S
Cu1310 O1342   1.931   .     S
Cu1310 O1340   1.950   .     S
Cu1310 N1332   2.029   .     S
Cu1310 O1344   1.929   .     S
H1315  N1333   1.045   .     S
H1316  N1333   1.045   .     S
H1317  N1334   1.046   .     S
H1318  N1334   1.046   .     S
H1319  N1335   1.038   .     S
H1320  N1335   1.042   .     S
H1321  N1336   1.045   .     S
H1323  N1336   1.045   .     S
C1345  C1348   1.443   .     S
C1345  O1396   1.293   .     A
C1345  O1393   1.293   .     A
C1346  C1348   1.411   .     A
C1346  C1357   1.523   .     S
C1346  C1475   1.407   1_455 S
C1347  C1363   1.413   .     A
C1347  C1364   1.411   .     A
C1347  C1356   1.443   .     S
C1348  C1362   1.413   .     A
C1349  N1389   1.431   .     S
C1349  N1388   1.371   .     A
C1350  N1387   1.359   .     A
C1350  N1390   1.432   .     S
C1350  C1015   1.420   1_565 S
C1351  N1388   1.389   .     A
C1351  N1391   1.432   .     S
C1352  N1392   1.431   .     S
C1352  N1387   1.372   .     A
C1352  C1013   1.437   1_565 S
C1353  H1380   1.110   .     S
C1353  H1378   1.110   .     S
C1353  C1362   1.520   .     S
C1353  H1367   1.106   .     S
C1354  C1363   1.520   .     S
C1354  H1382   1.110   .     S
C1354  H1381   1.106   .     S
C1354  H1383   1.110   .     S
C1355  H1384   1.110   .     S
C1355  H1385   1.110   .     S
C1355  H1386   1.104   .     S
C1355  C1364   1.523   .     S
C1356  O1395   1.293   .     A
C1356  O1394   1.293   .     A
C1357  H1369   1.104   .     S
C1357  H1370   1.110   .     S
C1357  H1368   1.110   .     S
C1358  O1400   1.293   .     A
C1358  O1397   1.295   .     A
C1358  C1360   1.408   .     S
C1359  C1361   1.408   .     S
C1359  O1398   1.295   .     A
C1359  O1399   1.293   .     A
C1361  C352    1.190   1_556 S
C1362  C1476   1.407   1_455 S
C1363  C1402   1.407   .     S
C1364  C1418   1.407   .     S
Cu1365 N1387   2.029   .     S
Cu1365 O1393   1.953   .     S
Cu1365 O1397   1.931   .     S
Cu1365 O1395   1.950   .     S
Cu1365 O1399   1.929   .     S
Cu1365 Cu1366  2.700   .     S
Cu1366 O1394   1.953   .     S
Cu1366 O1398   1.931   .     S
Cu1366 O1396   1.950   .     S
Cu1366 N1388   2.029   .     S
Cu1366 O1400   1.929   .     S
H1371  N1389   1.045   .     S
H1372  N1389   1.045   .     S
H1373  N1390   1.046   .     S
H1374  N1390   1.046   .     S
H1375  N1391   1.038   .     S
H1376  N1391   1.042   .     S
H1377  N1392   1.045   .     S
H1379  N1392   1.045   .     S
C1401  C1404   1.443   .     S
C1401  O1452   1.293   .     A
C1401  O1449   1.293   .     A
C1402  C1404   1.411   .     A
C1402  C1413   1.523   .     S
C1403  C1419   1.413   .     A
C1403  C1420   1.411   .     A
C1403  C1412   1.443   .     S
C1404  C1418   1.413   .     A
C1405  N1445   1.431   .     S
C1405  N1444   1.371   .     A
C1406  N1443   1.359   .     A
C1406  N1446   1.432   .     S
C1406  C1071   1.420   1_565 S
C1407  N1444   1.389   .     A
C1407  N1447   1.432   .     S
C1408  N1448   1.431   .     S
C1408  N1443   1.372   .     A
C1408  C1069   1.437   1_565 S
C1409  H1436   1.110   .     S
C1409  H1434   1.110   .     S
C1409  C1418   1.520   .     S
C1409  H1423   1.106   .     S
C1410  C1419   1.520   .     S
C1410  H1438   1.110   .     S
C1410  H1437   1.106   .     S
C1410  H1439   1.110   .     S
C1411  H1440   1.110   .     S
C1411  H1441   1.110   .     S
C1411  H1442   1.104   .     S
C1411  C1420   1.523   .     S
C1412  O1451   1.293   .     A
C1412  O1450   1.293   .     A
C1413  H1425   1.104   .     S
C1413  H1426   1.110   .     S
C1413  H1424   1.110   .     S
C1414  O1456   1.293   .     A
C1414  O1453   1.295   .     A
C1414  C1416   1.408   .     S
C1415  C1417   1.408   .     S
C1415  O1454   1.295   .     A
C1415  O1455   1.293   .     A
C1417  C408    1.190   1_556 S
C1419  C1458   1.407   .     S
C1420  C1474   1.407   .     S
Cu1421 N1443   2.029   .     S
Cu1421 O1449   1.953   .     S
Cu1421 O1453   1.931   .     S
Cu1421 O1451   1.950   .     S
Cu1421 O1455   1.929   .     S
Cu1421 Cu1422  2.700   .     S
Cu1422 O1450   1.953   .     S
Cu1422 O1454   1.931   .     S
Cu1422 O1452   1.950   .     S
Cu1422 N1444   2.029   .     S
Cu1422 O1456   1.929   .     S
H1427  N1445   1.045   .     S
H1428  N1445   1.045   .     S
H1429  N1446   1.046   .     S
H1430  N1446   1.046   .     S
H1431  N1447   1.038   .     S
H1432  N1447   1.042   .     S
H1433  N1448   1.045   .     S
H1435  N1448   1.045   .     S
C1457  C1460   1.443   .     S
C1457  O1508   1.293   .     A
C1457  O1505   1.293   .     A
C1458  C1460   1.411   .     A
C1458  C1469   1.523   .     S
C1459  C1475   1.413   .     A
C1459  C1476   1.411   .     A
C1459  C1468   1.443   .     S
C1460  C1474   1.413   .     A
C1461  N1501   1.431   .     S
C1461  N1500   1.371   .     A
C1462  N1499   1.359   .     A
C1462  N1502   1.432   .     S
C1462  C1127   1.420   1_565 S
C1463  N1500   1.389   .     A
C1463  N1503   1.432   .     S
C1464  N1504   1.431   .     S
C1464  N1499   1.372   .     A
C1464  C1125   1.437   1_565 S
C1465  H1492   1.110   .     S
C1465  H1490   1.110   .     S
C1465  C1474   1.520   .     S
C1465  H1479   1.106   .     S
C1466  C1475   1.520   .     S
C1466  H1494   1.110   .     S
C1466  H1493   1.106   .     S
C1466  H1495   1.110   .     S
C1467  H1496   1.110   .     S
C1467  H1497   1.110   .     S
C1467  H1498   1.104   .     S
C1467  C1476   1.523   .     S
C1468  O1507   1.293   .     A
C1468  O1506   1.293   .     A
C1469  H1481   1.104   .     S
C1469  H1482   1.110   .     S
C1469  H1480   1.110   .     S
C1470  O1512   1.293   .     A
C1470  O1509   1.295   .     A
C1470  C1472   1.408   .     S
C1471  C1473   1.408   .     S
C1471  O1510   1.295   .     A
C1471  O1511   1.293   .     A
C1473  C464    1.190   1_556 S
C1475  C1346   1.407   1_655 S
C1476  C1362   1.407   1_655 S
Cu1477 N1499   2.029   .     S
Cu1477 O1505   1.953   .     S
Cu1477 O1509   1.931   .     S
Cu1477 O1507   1.950   .     S
Cu1477 O1511   1.929   .     S
Cu1477 Cu1478  2.700   .     S
Cu1478 O1506   1.953   .     S
Cu1478 O1510   1.931   .     S
Cu1478 O1508   1.950   .     S
Cu1478 N1500   2.029   .     S
Cu1478 O1512   1.929   .     S
H1483  N1501   1.045   .     S
H1484  N1501   1.045   .     S
H1485  N1502   1.046   .     S
H1486  N1502   1.046   .     S
H1487  N1503   1.038   .     S
H1488  N1503   1.042   .     S
H1489  N1504   1.045   .     S
H1491  N1504   1.045   .     S
