data_str_m2_o10_o18_pcu_sym.124
_audit_creation_date              2020-01-03
_audit_creation_method            'Materials Studio'
_symmetry_space_group_name_H-M    'P1'
_symmetry_Int_Tables_number       1
_symmetry_cell_setting            triclinic
loop_
_symmetry_equiv_pos_as_xyz
  x,y,z
_cell_length_a                    22.8906
_cell_length_b                    26.0684
_cell_length_c                    31.6382
_cell_angle_alpha                 97.8083
_cell_angle_beta                  77.6186
_cell_angle_gamma                 102.3007
loop_
_atom_site_label
_atom_site_type_symbol
_atom_site_fract_x
_atom_site_fract_y
_atom_site_fract_z
_atom_site_U_iso_or_equiv
_atom_site_adp_type
_atom_site_occupancy
C1     C     0.18129   0.26644   0.25164   0.00000  Uiso   1.00
C2     C     0.15205   0.06687   0.24828   0.00000  Uiso   1.00
C3     C     0.09007   0.14931   0.04036   0.00000  Uiso   1.00
C4     C     0.22917   0.20945   0.46669   0.00000  Uiso   1.00
C5     C     0.04767   0.13958   0.01315   0.00000  Uiso   1.00
C6     C     0.26913   0.22740   0.49524   0.00000  Uiso   1.00
C7     C     0.18868   0.32253   0.25363   0.00000  Uiso   1.00
C8     C     0.14452   0.01076   0.24642   0.00000  Uiso   1.00
C9     C     0.12938   0.16115   0.33249   0.00000  Uiso   1.00
C10    C     0.20368   0.17081   0.16753   0.00000  Uiso   1.00
C11    C     0.10733   0.15492   0.37929   0.00000  Uiso   1.00
C12    C     0.22453   0.18048   0.12170   0.00000  Uiso   1.00
C13    C     0.02453   0.13618   0.44094   0.00000  Uiso   1.00
C14    C     0.29515   0.22948   0.06600   0.00000  Uiso   1.00
C15    C     0.04462   0.14383   0.39691   0.00000  Uiso   1.00
C16    C     0.27964   0.21471   0.10826   0.00000  Uiso   1.00
C17    C     0.14878   0.15847   0.40672   0.00000  Uiso   1.00
C18    C     0.18586   0.16010   0.09232   0.00000  Uiso   1.00
C19    C     0.12937   0.16154   0.45187   0.00000  Uiso   1.00
C20    C     0.19675   0.17973   0.05158   0.00000  Uiso   1.00
C21    C     0.06669   0.14574   0.46885   0.00000  Uiso   1.00
C22    C     0.25399   0.21237   0.03749   0.00000  Uiso   1.00
C23    C     0.17124   0.17826   0.48030   0.00000  Uiso   1.00
C24    C     0.15274   0.16763   0.02434   0.00000  Uiso   1.00
Cu25   Cu    0.10737   0.16108   0.24517   0.00000  Uiso   1.00
Cu26   Cu    0.22596   0.17225   0.25484   0.00000  Uiso   1.00
H27    H     0.33323   0.12718   0.02696   0.00000  Uiso   1.00
H28    H     0.31250   0.25233   0.48378   0.00000  Uiso   1.00
H29    H     0.31027   0.23064   0.13062   0.00000  Uiso   1.00
H30    H     0.01117   0.13861   0.37635   0.00000  Uiso   1.00
H31    H     0.07206   0.14601   0.07450   0.00000  Uiso   1.00
H32    H     0.24297   0.22297   0.43459   0.00000  Uiso   1.00
H33    H     0.23068   0.01284   0.26158   0.00000  Uiso   1.00
H34    H     0.10237   0.32040   0.23866   0.00000  Uiso   1.00
N35    N     0.31506   0.18068   0.26212   0.00000  Uiso   1.00
N36    N     0.01827   0.15265   0.23788   0.00000  Uiso   1.00
O37    O     0.12815   0.23809   0.24686   0.00000  Uiso   1.00
O38    O     0.20518   0.09524   0.25314   0.00000  Uiso   1.00
O39    O     0.22829   0.24753   0.25503   0.00000  Uiso   1.00
O40    O     0.10504   0.08580   0.24498   0.00000  Uiso   1.00
O41    O     0.08851   0.15930   0.30855   0.00000  Uiso   1.00
O42    O     0.24482   0.17403   0.19146   0.00000  Uiso   1.00
O43    O     0.18866   0.16874   0.31671   0.00000  Uiso   1.00
O44    O     0.14468   0.16460   0.18329   0.00000  Uiso   1.00
F45    F     0.14178   0.11736   0.10202   0.00000  Uiso   1.00
F46    F     0.20580   0.15014   0.38984   0.00000  Uiso   1.00
F47    F     0.29751   0.11976   0.45615   0.00000  Uiso   1.00
F48    F     0.01618   0.26171   0.05346   0.00000  Uiso   1.00
C49    C     0.00628   0.22840   0.28778   0.00000  Uiso   1.00
C50    C     0.30452   0.23627   0.33473   0.00000  Uiso   1.00
C51    C     0.26560   0.27898   0.34301   0.00000  Uiso   1.00
H52    H     0.25510   0.29088   0.37846   0.00000  Uiso   1.00
H53    H     0.29037   0.31452   0.32650   0.00000  Uiso   1.00
H54    H     0.22149   0.26460   0.33263   0.00000  Uiso   1.00
H55    H     0.00441   0.24912   0.35704   0.00000  Uiso   1.00
H56    H     0.27892   0.19829   0.34509   0.00000  Uiso   1.00
H57    H     0.04883   0.22512   0.29479   0.00000  Uiso   1.00
H58    H     0.01215   0.26346   0.26987   0.00000  Uiso   1.00
C59    C     0.32636   0.10445   0.21361   0.00000  Uiso   1.00
C60    C     0.03478   0.09162   0.17058   0.00000  Uiso   1.00
C61    C     0.00311   0.04531   0.14326   0.00000  Uiso   1.00
H62    H     0.32195   0.00971   0.16145   0.00000  Uiso   1.00
H63    H     0.29595   0.05532   0.13457   0.00000  Uiso   1.00
H64    H     0.03508   0.03618   0.11274   0.00000  Uiso   1.00
H65    H     0.04703   0.12683   0.15202   0.00000  Uiso   1.00
H66    H     0.07626   0.08044   0.17606   0.00000  Uiso   1.00
H67    H     0.31662   0.07109   0.23398   0.00000  Uiso   1.00
H68    H     0.28612   0.10859   0.20280   0.00000  Uiso   1.00
C69    C     0.51462   0.26644   0.25164   0.00000  Uiso   1.00
C70    C     0.48539   0.06687   0.24828   0.00000  Uiso   1.00
C71    C     0.42341   0.14931   0.04036   0.00000  Uiso   1.00
C72    C     0.56251   0.20945   0.46669   0.00000  Uiso   1.00
C73    C     0.38100   0.13958   0.01315   0.00000  Uiso   1.00
C74    C     0.60246   0.22740   0.49524   0.00000  Uiso   1.00
C75    C     0.52202   0.32253   0.25363   0.00000  Uiso   1.00
C76    C     0.47786   0.01076   0.24642   0.00000  Uiso   1.00
C77    C     0.46272   0.16115   0.33249   0.00000  Uiso   1.00
C78    C     0.53701   0.17081   0.16753   0.00000  Uiso   1.00
C79    C     0.44066   0.15492   0.37929   0.00000  Uiso   1.00
C80    C     0.55786   0.18048   0.12170   0.00000  Uiso   1.00
C81    C     0.35787   0.13618   0.44094   0.00000  Uiso   1.00
C82    C     0.62848   0.22948   0.06600   0.00000  Uiso   1.00
C83    C     0.37796   0.14383   0.39691   0.00000  Uiso   1.00
C84    C     0.61297   0.21471   0.10826   0.00000  Uiso   1.00
C85    C     0.48211   0.15847   0.40672   0.00000  Uiso   1.00
C86    C     0.51919   0.16010   0.09232   0.00000  Uiso   1.00
C87    C     0.46271   0.16154   0.45187   0.00000  Uiso   1.00
C88    C     0.53008   0.17973   0.05158   0.00000  Uiso   1.00
C89    C     0.40002   0.14574   0.46885   0.00000  Uiso   1.00
C90    C     0.58732   0.21237   0.03749   0.00000  Uiso   1.00
C91    C     0.50458   0.17826   0.48030   0.00000  Uiso   1.00
C92    C     0.48608   0.16763   0.02434   0.00000  Uiso   1.00
Cu93   Cu    0.44071   0.16108   0.24517   0.00000  Uiso   1.00
Cu94   Cu    0.55929   0.17225   0.25484   0.00000  Uiso   1.00
H95    H     0.66656   0.12718   0.02696   0.00000  Uiso   1.00
H96    H     0.64583   0.25233   0.48378   0.00000  Uiso   1.00
H97    H     0.64360   0.23064   0.13062   0.00000  Uiso   1.00
H98    H     0.34451   0.13861   0.37635   0.00000  Uiso   1.00
H99    H     0.40539   0.14601   0.07450   0.00000  Uiso   1.00
H100   H     0.57630   0.22297   0.43459   0.00000  Uiso   1.00
H101   H     0.56401   0.01284   0.26158   0.00000  Uiso   1.00
H102   H     0.43571   0.32040   0.23866   0.00000  Uiso   1.00
N103   N     0.64839   0.18068   0.26212   0.00000  Uiso   1.00
N104   N     0.35161   0.15265   0.23788   0.00000  Uiso   1.00
O105   O     0.46148   0.23809   0.24686   0.00000  Uiso   1.00
O106   O     0.53852   0.09524   0.25314   0.00000  Uiso   1.00
O107   O     0.56163   0.24753   0.25503   0.00000  Uiso   1.00
O108   O     0.43837   0.08580   0.24498   0.00000  Uiso   1.00
O109   O     0.42185   0.15930   0.30855   0.00000  Uiso   1.00
O110   O     0.57815   0.17403   0.19146   0.00000  Uiso   1.00
O111   O     0.52199   0.16874   0.31671   0.00000  Uiso   1.00
O112   O     0.47801   0.16460   0.18329   0.00000  Uiso   1.00
F113   F     0.47512   0.11736   0.10202   0.00000  Uiso   1.00
F114   F     0.53913   0.15014   0.38984   0.00000  Uiso   1.00
F115   F     0.63085   0.11976   0.45615   0.00000  Uiso   1.00
F116   F     0.34951   0.26171   0.05346   0.00000  Uiso   1.00
C117   C     0.33961   0.22840   0.28778   0.00000  Uiso   1.00
C118   C     0.63785   0.23627   0.33473   0.00000  Uiso   1.00
C119   C     0.59893   0.27898   0.34301   0.00000  Uiso   1.00
H120   H     0.58843   0.29088   0.37846   0.00000  Uiso   1.00
H121   H     0.62371   0.31452   0.32650   0.00000  Uiso   1.00
H122   H     0.55482   0.26460   0.33263   0.00000  Uiso   1.00
H123   H     0.33775   0.24912   0.35704   0.00000  Uiso   1.00
H124   H     0.61225   0.19829   0.34509   0.00000  Uiso   1.00
H125   H     0.38216   0.22512   0.29479   0.00000  Uiso   1.00
H126   H     0.34548   0.26346   0.26987   0.00000  Uiso   1.00
C127   C     0.65969   0.10445   0.21361   0.00000  Uiso   1.00
C128   C     0.36811   0.09162   0.17058   0.00000  Uiso   1.00
C129   C     0.33645   0.04531   0.14326   0.00000  Uiso   1.00
H130   H     0.65528   0.00971   0.16145   0.00000  Uiso   1.00
H131   H     0.62928   0.05532   0.13457   0.00000  Uiso   1.00
H132   H     0.36842   0.03618   0.11274   0.00000  Uiso   1.00
H133   H     0.38036   0.12683   0.15202   0.00000  Uiso   1.00
H134   H     0.40960   0.08044   0.17606   0.00000  Uiso   1.00
H135   H     0.64995   0.07109   0.23398   0.00000  Uiso   1.00
H136   H     0.61945   0.10859   0.20280   0.00000  Uiso   1.00
C137   C     0.84796   0.26644   0.25164   0.00000  Uiso   1.00
C138   C     0.81872   0.06687   0.24828   0.00000  Uiso   1.00
C139   C     0.75674   0.14931   0.04036   0.00000  Uiso   1.00
C140   C     0.89584   0.20945   0.46669   0.00000  Uiso   1.00
C141   C     0.71433   0.13958   0.01315   0.00000  Uiso   1.00
C142   C     0.93580   0.22740   0.49524   0.00000  Uiso   1.00
C143   C     0.85535   0.32253   0.25363   0.00000  Uiso   1.00
C144   C     0.81119   0.01076   0.24642   0.00000  Uiso   1.00
C145   C     0.79605   0.16115   0.33249   0.00000  Uiso   1.00
C146   C     0.87034   0.17081   0.16753   0.00000  Uiso   1.00
C147   C     0.77399   0.15492   0.37929   0.00000  Uiso   1.00
C148   C     0.89120   0.18048   0.12170   0.00000  Uiso   1.00
C149   C     0.69120   0.13618   0.44094   0.00000  Uiso   1.00
C150   C     0.96182   0.22948   0.06600   0.00000  Uiso   1.00
C151   C     0.71129   0.14383   0.39691   0.00000  Uiso   1.00
C152   C     0.94631   0.21471   0.10826   0.00000  Uiso   1.00
C153   C     0.81544   0.15847   0.40672   0.00000  Uiso   1.00
C154   C     0.85252   0.16010   0.09232   0.00000  Uiso   1.00
C155   C     0.79604   0.16154   0.45187   0.00000  Uiso   1.00
C156   C     0.86342   0.17973   0.05158   0.00000  Uiso   1.00
C157   C     0.73336   0.14574   0.46885   0.00000  Uiso   1.00
C158   C     0.92065   0.21237   0.03749   0.00000  Uiso   1.00
C159   C     0.83791   0.17826   0.48030   0.00000  Uiso   1.00
C160   C     0.81941   0.16763   0.02434   0.00000  Uiso   1.00
Cu161  Cu    0.77404   0.16108   0.24517   0.00000  Uiso   1.00
Cu162  Cu    0.89263   0.17225   0.25484   0.00000  Uiso   1.00
H163   H     0.99989   0.12718   0.02696   0.00000  Uiso   1.00
H164   H     0.97917   0.25233   0.48378   0.00000  Uiso   1.00
H165   H     0.97694   0.23064   0.13062   0.00000  Uiso   1.00
H166   H     0.67784   0.13861   0.37635   0.00000  Uiso   1.00
H167   H     0.73873   0.14601   0.07450   0.00000  Uiso   1.00
H168   H     0.90963   0.22297   0.43459   0.00000  Uiso   1.00
H169   H     0.89735   0.01284   0.26158   0.00000  Uiso   1.00
H170   H     0.76904   0.32040   0.23866   0.00000  Uiso   1.00
N171   N     0.98173   0.18068   0.26212   0.00000  Uiso   1.00
N172   N     0.68494   0.15265   0.23788   0.00000  Uiso   1.00
O173   O     0.79482   0.23809   0.24686   0.00000  Uiso   1.00
O174   O     0.87185   0.09524   0.25314   0.00000  Uiso   1.00
O175   O     0.89496   0.24753   0.25503   0.00000  Uiso   1.00
O176   O     0.77171   0.08580   0.24498   0.00000  Uiso   1.00
O177   O     0.75518   0.15930   0.30855   0.00000  Uiso   1.00
O178   O     0.91149   0.17403   0.19146   0.00000  Uiso   1.00
O179   O     0.85532   0.16874   0.31671   0.00000  Uiso   1.00
O180   O     0.81134   0.16460   0.18329   0.00000  Uiso   1.00
F181   F     0.80845   0.11736   0.10202   0.00000  Uiso   1.00
F182   F     0.87247   0.15014   0.38984   0.00000  Uiso   1.00
F183   F     0.96418   0.11976   0.45615   0.00000  Uiso   1.00
F184   F     0.68284   0.26171   0.05346   0.00000  Uiso   1.00
C185   C     0.67294   0.22840   0.28778   0.00000  Uiso   1.00
C186   C     0.97119   0.23627   0.33473   0.00000  Uiso   1.00
C187   C     0.93227   0.27898   0.34301   0.00000  Uiso   1.00
H188   H     0.92177   0.29088   0.37846   0.00000  Uiso   1.00
H189   H     0.95704   0.31452   0.32650   0.00000  Uiso   1.00
H190   H     0.88815   0.26460   0.33263   0.00000  Uiso   1.00
H191   H     0.67108   0.24912   0.35704   0.00000  Uiso   1.00
H192   H     0.94558   0.19829   0.34509   0.00000  Uiso   1.00
H193   H     0.71550   0.22512   0.29479   0.00000  Uiso   1.00
H194   H     0.67882   0.26346   0.26987   0.00000  Uiso   1.00
C195   C     0.99302   0.10445   0.21361   0.00000  Uiso   1.00
C196   C     0.70144   0.09162   0.17058   0.00000  Uiso   1.00
C197   C     0.66978   0.04531   0.14326   0.00000  Uiso   1.00
H198   H     0.98861   0.00971   0.16145   0.00000  Uiso   1.00
H199   H     0.96261   0.05532   0.13457   0.00000  Uiso   1.00
H200   H     0.70175   0.03618   0.11274   0.00000  Uiso   1.00
H201   H     0.71370   0.12683   0.15202   0.00000  Uiso   1.00
H202   H     0.74293   0.08044   0.17606   0.00000  Uiso   1.00
H203   H     0.98328   0.07109   0.23398   0.00000  Uiso   1.00
H204   H     0.95278   0.10859   0.20280   0.00000  Uiso   1.00
C205   C     0.18129   0.59977   0.25164   0.00000  Uiso   1.00
C206   C     0.15205   0.40020   0.24828   0.00000  Uiso   1.00
C207   C     0.09007   0.48264   0.04036   0.00000  Uiso   1.00
C208   C     0.22917   0.54278   0.46669   0.00000  Uiso   1.00
C209   C     0.04767   0.47292   0.01315   0.00000  Uiso   1.00
C210   C     0.26913   0.56074   0.49524   0.00000  Uiso   1.00
C211   C     0.18868   0.65586   0.25363   0.00000  Uiso   1.00
C212   C     0.14452   0.34409   0.24642   0.00000  Uiso   1.00
C213   C     0.12938   0.49448   0.33249   0.00000  Uiso   1.00
C214   C     0.20368   0.50415   0.16753   0.00000  Uiso   1.00
C215   C     0.10733   0.48826   0.37929   0.00000  Uiso   1.00
C216   C     0.22453   0.51382   0.12170   0.00000  Uiso   1.00
C217   C     0.02453   0.46951   0.44094   0.00000  Uiso   1.00
C218   C     0.29515   0.56282   0.06600   0.00000  Uiso   1.00
C219   C     0.04462   0.47716   0.39691   0.00000  Uiso   1.00
C220   C     0.27964   0.54804   0.10826   0.00000  Uiso   1.00
C221   C     0.14878   0.49180   0.40672   0.00000  Uiso   1.00
C222   C     0.18586   0.49343   0.09232   0.00000  Uiso   1.00
C223   C     0.12937   0.49487   0.45187   0.00000  Uiso   1.00
C224   C     0.19675   0.51306   0.05158   0.00000  Uiso   1.00
C225   C     0.06669   0.47907   0.46885   0.00000  Uiso   1.00
C226   C     0.25399   0.54570   0.03749   0.00000  Uiso   1.00
C227   C     0.17124   0.51160   0.48030   0.00000  Uiso   1.00
C228   C     0.15274   0.50097   0.02434   0.00000  Uiso   1.00
Cu229  Cu    0.10737   0.49441   0.24517   0.00000  Uiso   1.00
Cu230  Cu    0.22596   0.50559   0.25484   0.00000  Uiso   1.00
H231   H     0.33323   0.46052   0.02696   0.00000  Uiso   1.00
H232   H     0.31250   0.58567   0.48378   0.00000  Uiso   1.00
H233   H     0.31027   0.56398   0.13062   0.00000  Uiso   1.00
H234   H     0.01117   0.47195   0.37635   0.00000  Uiso   1.00
H235   H     0.07206   0.47935   0.07450   0.00000  Uiso   1.00
H236   H     0.24297   0.55630   0.43459   0.00000  Uiso   1.00
H237   H     0.23068   0.34617   0.26158   0.00000  Uiso   1.00
H238   H     0.10237   0.65373   0.23866   0.00000  Uiso   1.00
N239   N     0.31506   0.51401   0.26212   0.00000  Uiso   1.00
N240   N     0.01827   0.48599   0.23788   0.00000  Uiso   1.00
O241   O     0.12815   0.57142   0.24686   0.00000  Uiso   1.00
O242   O     0.20518   0.42858   0.25314   0.00000  Uiso   1.00
O243   O     0.22829   0.58086   0.25503   0.00000  Uiso   1.00
O244   O     0.10504   0.41914   0.24498   0.00000  Uiso   1.00
O245   O     0.08851   0.49263   0.30855   0.00000  Uiso   1.00
O246   O     0.24482   0.50737   0.19146   0.00000  Uiso   1.00
O247   O     0.18866   0.50207   0.31671   0.00000  Uiso   1.00
O248   O     0.14468   0.49793   0.18329   0.00000  Uiso   1.00
F249   F     0.14178   0.45069   0.10202   0.00000  Uiso   1.00
F250   F     0.20580   0.48348   0.38984   0.00000  Uiso   1.00
F251   F     0.29751   0.45309   0.45615   0.00000  Uiso   1.00
F252   F     0.01618   0.59505   0.05346   0.00000  Uiso   1.00
C253   C     0.00628   0.56173   0.28778   0.00000  Uiso   1.00
C254   C     0.30452   0.56960   0.33473   0.00000  Uiso   1.00
C255   C     0.26560   0.61231   0.34301   0.00000  Uiso   1.00
H256   H     0.25510   0.62422   0.37846   0.00000  Uiso   1.00
H257   H     0.29037   0.64785   0.32650   0.00000  Uiso   1.00
H258   H     0.22149   0.59793   0.33263   0.00000  Uiso   1.00
H259   H     0.00441   0.58246   0.35704   0.00000  Uiso   1.00
H260   H     0.27892   0.53163   0.34509   0.00000  Uiso   1.00
H261   H     0.04883   0.55846   0.29479   0.00000  Uiso   1.00
H262   H     0.01215   0.59679   0.26987   0.00000  Uiso   1.00
C263   C     0.32636   0.43778   0.21361   0.00000  Uiso   1.00
C264   C     0.03478   0.42495   0.17058   0.00000  Uiso   1.00
C265   C     0.00311   0.37865   0.14326   0.00000  Uiso   1.00
H266   H     0.32195   0.34304   0.16145   0.00000  Uiso   1.00
H267   H     0.29595   0.38865   0.13457   0.00000  Uiso   1.00
H268   H     0.03508   0.36952   0.11274   0.00000  Uiso   1.00
H269   H     0.04703   0.46016   0.15202   0.00000  Uiso   1.00
H270   H     0.07626   0.41377   0.17606   0.00000  Uiso   1.00
H271   H     0.31662   0.40442   0.23398   0.00000  Uiso   1.00
H272   H     0.28612   0.44193   0.20280   0.00000  Uiso   1.00
C273   C     0.51462   0.59977   0.25164   0.00000  Uiso   1.00
C274   C     0.48539   0.40020   0.24828   0.00000  Uiso   1.00
C275   C     0.42341   0.48264   0.04036   0.00000  Uiso   1.00
C276   C     0.56251   0.54278   0.46669   0.00000  Uiso   1.00
C277   C     0.38100   0.47292   0.01315   0.00000  Uiso   1.00
C278   C     0.60246   0.56074   0.49524   0.00000  Uiso   1.00
C279   C     0.52202   0.65586   0.25363   0.00000  Uiso   1.00
C280   C     0.47786   0.34409   0.24642   0.00000  Uiso   1.00
C281   C     0.46272   0.49448   0.33249   0.00000  Uiso   1.00
C282   C     0.53701   0.50415   0.16753   0.00000  Uiso   1.00
C283   C     0.44066   0.48826   0.37929   0.00000  Uiso   1.00
C284   C     0.55786   0.51382   0.12170   0.00000  Uiso   1.00
C285   C     0.35787   0.46951   0.44094   0.00000  Uiso   1.00
C286   C     0.62848   0.56282   0.06600   0.00000  Uiso   1.00
C287   C     0.37796   0.47716   0.39691   0.00000  Uiso   1.00
C288   C     0.61297   0.54804   0.10826   0.00000  Uiso   1.00
C289   C     0.48211   0.49180   0.40672   0.00000  Uiso   1.00
C290   C     0.51919   0.49343   0.09232   0.00000  Uiso   1.00
C291   C     0.46271   0.49487   0.45187   0.00000  Uiso   1.00
C292   C     0.53008   0.51306   0.05158   0.00000  Uiso   1.00
C293   C     0.40002   0.47907   0.46885   0.00000  Uiso   1.00
C294   C     0.58732   0.54570   0.03749   0.00000  Uiso   1.00
C295   C     0.50458   0.51160   0.48030   0.00000  Uiso   1.00
C296   C     0.48608   0.50097   0.02434   0.00000  Uiso   1.00
Cu297  Cu    0.44071   0.49441   0.24517   0.00000  Uiso   1.00
Cu298  Cu    0.55929   0.50559   0.25484   0.00000  Uiso   1.00
H299   H     0.66656   0.46052   0.02696   0.00000  Uiso   1.00
H300   H     0.64583   0.58567   0.48378   0.00000  Uiso   1.00
H301   H     0.64360   0.56398   0.13062   0.00000  Uiso   1.00
H302   H     0.34451   0.47195   0.37635   0.00000  Uiso   1.00
H303   H     0.40539   0.47935   0.07450   0.00000  Uiso   1.00
H304   H     0.57630   0.55630   0.43459   0.00000  Uiso   1.00
H305   H     0.56401   0.34617   0.26158   0.00000  Uiso   1.00
H306   H     0.43571   0.65373   0.23866   0.00000  Uiso   1.00
N307   N     0.64839   0.51401   0.26212   0.00000  Uiso   1.00
N308   N     0.35161   0.48599   0.23788   0.00000  Uiso   1.00
O309   O     0.46148   0.57142   0.24686   0.00000  Uiso   1.00
O310   O     0.53852   0.42858   0.25314   0.00000  Uiso   1.00
O311   O     0.56163   0.58086   0.25503   0.00000  Uiso   1.00
O312   O     0.43837   0.41914   0.24498   0.00000  Uiso   1.00
O313   O     0.42185   0.49263   0.30855   0.00000  Uiso   1.00
O314   O     0.57815   0.50737   0.19146   0.00000  Uiso   1.00
O315   O     0.52199   0.50207   0.31671   0.00000  Uiso   1.00
O316   O     0.47801   0.49793   0.18329   0.00000  Uiso   1.00
F317   F     0.47512   0.45069   0.10202   0.00000  Uiso   1.00
F318   F     0.53913   0.48348   0.38984   0.00000  Uiso   1.00
F319   F     0.63085   0.45309   0.45615   0.00000  Uiso   1.00
F320   F     0.34951   0.59505   0.05346   0.00000  Uiso   1.00
C321   C     0.33961   0.56173   0.28778   0.00000  Uiso   1.00
C322   C     0.63785   0.56960   0.33473   0.00000  Uiso   1.00
C323   C     0.59893   0.61231   0.34301   0.00000  Uiso   1.00
H324   H     0.58843   0.62422   0.37846   0.00000  Uiso   1.00
H325   H     0.62371   0.64785   0.32650   0.00000  Uiso   1.00
H326   H     0.55482   0.59793   0.33263   0.00000  Uiso   1.00
H327   H     0.33775   0.58246   0.35704   0.00000  Uiso   1.00
H328   H     0.61225   0.53163   0.34509   0.00000  Uiso   1.00
H329   H     0.38216   0.55846   0.29479   0.00000  Uiso   1.00
H330   H     0.34548   0.59679   0.26987   0.00000  Uiso   1.00
C331   C     0.65969   0.43778   0.21361   0.00000  Uiso   1.00
C332   C     0.36811   0.42495   0.17058   0.00000  Uiso   1.00
C333   C     0.33645   0.37865   0.14326   0.00000  Uiso   1.00
H334   H     0.65528   0.34304   0.16145   0.00000  Uiso   1.00
H335   H     0.62928   0.38865   0.13457   0.00000  Uiso   1.00
H336   H     0.36842   0.36952   0.11274   0.00000  Uiso   1.00
H337   H     0.38036   0.46016   0.15202   0.00000  Uiso   1.00
H338   H     0.40960   0.41377   0.17606   0.00000  Uiso   1.00
H339   H     0.64995   0.40442   0.23398   0.00000  Uiso   1.00
H340   H     0.61945   0.44193   0.20280   0.00000  Uiso   1.00
C341   C     0.84796   0.59977   0.25164   0.00000  Uiso   1.00
C342   C     0.81872   0.40020   0.24828   0.00000  Uiso   1.00
C343   C     0.75674   0.48264   0.04036   0.00000  Uiso   1.00
C344   C     0.89584   0.54278   0.46669   0.00000  Uiso   1.00
C345   C     0.71433   0.47292   0.01315   0.00000  Uiso   1.00
C346   C     0.93580   0.56074   0.49524   0.00000  Uiso   1.00
C347   C     0.85535   0.65586   0.25363   0.00000  Uiso   1.00
C348   C     0.81119   0.34409   0.24642   0.00000  Uiso   1.00
C349   C     0.79605   0.49448   0.33249   0.00000  Uiso   1.00
C350   C     0.87034   0.50415   0.16753   0.00000  Uiso   1.00
C351   C     0.77399   0.48826   0.37929   0.00000  Uiso   1.00
C352   C     0.89120   0.51382   0.12170   0.00000  Uiso   1.00
C353   C     0.69120   0.46951   0.44094   0.00000  Uiso   1.00
C354   C     0.96182   0.56282   0.06600   0.00000  Uiso   1.00
C355   C     0.71129   0.47716   0.39691   0.00000  Uiso   1.00
C356   C     0.94631   0.54804   0.10826   0.00000  Uiso   1.00
C357   C     0.81544   0.49180   0.40672   0.00000  Uiso   1.00
C358   C     0.85252   0.49343   0.09232   0.00000  Uiso   1.00
C359   C     0.79604   0.49487   0.45187   0.00000  Uiso   1.00
C360   C     0.86342   0.51306   0.05158   0.00000  Uiso   1.00
C361   C     0.73336   0.47907   0.46885   0.00000  Uiso   1.00
C362   C     0.92065   0.54570   0.03749   0.00000  Uiso   1.00
C363   C     0.83791   0.51160   0.48030   0.00000  Uiso   1.00
C364   C     0.81941   0.50097   0.02434   0.00000  Uiso   1.00
Cu365  Cu    0.77404   0.49441   0.24517   0.00000  Uiso   1.00
Cu366  Cu    0.89263   0.50559   0.25484   0.00000  Uiso   1.00
H367   H     0.99989   0.46052   0.02696   0.00000  Uiso   1.00
H368   H     0.97917   0.58567   0.48378   0.00000  Uiso   1.00
H369   H     0.97694   0.56398   0.13062   0.00000  Uiso   1.00
H370   H     0.67784   0.47195   0.37635   0.00000  Uiso   1.00
H371   H     0.73873   0.47935   0.07450   0.00000  Uiso   1.00
H372   H     0.90963   0.55630   0.43459   0.00000  Uiso   1.00
H373   H     0.89735   0.34617   0.26158   0.00000  Uiso   1.00
H374   H     0.76904   0.65373   0.23866   0.00000  Uiso   1.00
N375   N     0.98173   0.51401   0.26212   0.00000  Uiso   1.00
N376   N     0.68494   0.48599   0.23788   0.00000  Uiso   1.00
O377   O     0.79482   0.57142   0.24686   0.00000  Uiso   1.00
O378   O     0.87185   0.42858   0.25314   0.00000  Uiso   1.00
O379   O     0.89496   0.58086   0.25503   0.00000  Uiso   1.00
O380   O     0.77171   0.41914   0.24498   0.00000  Uiso   1.00
O381   O     0.75518   0.49263   0.30855   0.00000  Uiso   1.00
O382   O     0.91149   0.50737   0.19146   0.00000  Uiso   1.00
O383   O     0.85532   0.50207   0.31671   0.00000  Uiso   1.00
O384   O     0.81134   0.49793   0.18329   0.00000  Uiso   1.00
F385   F     0.80845   0.45069   0.10202   0.00000  Uiso   1.00
F386   F     0.87247   0.48348   0.38984   0.00000  Uiso   1.00
F387   F     0.96418   0.45309   0.45615   0.00000  Uiso   1.00
F388   F     0.68284   0.59505   0.05346   0.00000  Uiso   1.00
C389   C     0.67294   0.56173   0.28778   0.00000  Uiso   1.00
C390   C     0.97119   0.56960   0.33473   0.00000  Uiso   1.00
C391   C     0.93227   0.61231   0.34301   0.00000  Uiso   1.00
H392   H     0.92177   0.62422   0.37846   0.00000  Uiso   1.00
H393   H     0.95704   0.64785   0.32650   0.00000  Uiso   1.00
H394   H     0.88815   0.59793   0.33263   0.00000  Uiso   1.00
H395   H     0.67108   0.58246   0.35704   0.00000  Uiso   1.00
H396   H     0.94558   0.53163   0.34509   0.00000  Uiso   1.00
H397   H     0.71550   0.55846   0.29479   0.00000  Uiso   1.00
H398   H     0.67882   0.59679   0.26987   0.00000  Uiso   1.00
C399   C     0.99302   0.43778   0.21361   0.00000  Uiso   1.00
C400   C     0.70144   0.42495   0.17058   0.00000  Uiso   1.00
C401   C     0.66978   0.37865   0.14326   0.00000  Uiso   1.00
H402   H     0.98861   0.34304   0.16145   0.00000  Uiso   1.00
H403   H     0.96261   0.38865   0.13457   0.00000  Uiso   1.00
H404   H     0.70175   0.36952   0.11274   0.00000  Uiso   1.00
H405   H     0.71370   0.46016   0.15202   0.00000  Uiso   1.00
H406   H     0.74293   0.41377   0.17606   0.00000  Uiso   1.00
H407   H     0.98328   0.40442   0.23398   0.00000  Uiso   1.00
H408   H     0.95278   0.44193   0.20280   0.00000  Uiso   1.00
C409   C     0.18129   0.93311   0.25164   0.00000  Uiso   1.00
C410   C     0.15205   0.73354   0.24828   0.00000  Uiso   1.00
C411   C     0.09007   0.81597   0.04036   0.00000  Uiso   1.00
C412   C     0.22917   0.87611   0.46669   0.00000  Uiso   1.00
C413   C     0.04767   0.80625   0.01315   0.00000  Uiso   1.00
C414   C     0.26913   0.89407   0.49524   0.00000  Uiso   1.00
C415   C     0.18868   0.98919   0.25363   0.00000  Uiso   1.00
C416   C     0.14452   0.67742   0.24642   0.00000  Uiso   1.00
C417   C     0.12938   0.82782   0.33249   0.00000  Uiso   1.00
C418   C     0.20368   0.83748   0.16753   0.00000  Uiso   1.00
C419   C     0.10733   0.82159   0.37929   0.00000  Uiso   1.00
C420   C     0.22453   0.84715   0.12170   0.00000  Uiso   1.00
C421   C     0.02453   0.80285   0.44094   0.00000  Uiso   1.00
C422   C     0.29515   0.89615   0.06600   0.00000  Uiso   1.00
C423   C     0.04462   0.81050   0.39691   0.00000  Uiso   1.00
C424   C     0.27964   0.88138   0.10826   0.00000  Uiso   1.00
C425   C     0.14878   0.82514   0.40672   0.00000  Uiso   1.00
C426   C     0.18586   0.82676   0.09232   0.00000  Uiso   1.00
C427   C     0.12937   0.82821   0.45187   0.00000  Uiso   1.00
C428   C     0.19675   0.84639   0.05158   0.00000  Uiso   1.00
C429   C     0.06669   0.81240   0.46885   0.00000  Uiso   1.00
C430   C     0.25399   0.87903   0.03749   0.00000  Uiso   1.00
C431   C     0.17124   0.84493   0.48030   0.00000  Uiso   1.00
C432   C     0.15274   0.83430   0.02434   0.00000  Uiso   1.00
Cu433  Cu    0.10737   0.82775   0.24517   0.00000  Uiso   1.00
Cu434  Cu    0.22596   0.83892   0.25484   0.00000  Uiso   1.00
H435   H     0.33323   0.79385   0.02696   0.00000  Uiso   1.00
H436   H     0.31250   0.91900   0.48378   0.00000  Uiso   1.00
H437   H     0.31027   0.89731   0.13062   0.00000  Uiso   1.00
H438   H     0.01117   0.80528   0.37635   0.00000  Uiso   1.00
H439   H     0.07206   0.81268   0.07450   0.00000  Uiso   1.00
H440   H     0.24297   0.88963   0.43459   0.00000  Uiso   1.00
H441   H     0.23068   0.67950   0.26158   0.00000  Uiso   1.00
H442   H     0.10237   0.98706   0.23866   0.00000  Uiso   1.00
N443   N     0.31506   0.84735   0.26212   0.00000  Uiso   1.00
N444   N     0.01827   0.81932   0.23788   0.00000  Uiso   1.00
O445   O     0.12815   0.90476   0.24686   0.00000  Uiso   1.00
O446   O     0.20518   0.76191   0.25314   0.00000  Uiso   1.00
O447   O     0.22829   0.91420   0.25503   0.00000  Uiso   1.00
O448   O     0.10504   0.75247   0.24498   0.00000  Uiso   1.00
O449   O     0.08851   0.82597   0.30855   0.00000  Uiso   1.00
O450   O     0.24482   0.84070   0.19146   0.00000  Uiso   1.00
O451   O     0.18866   0.83540   0.31671   0.00000  Uiso   1.00
O452   O     0.14468   0.83126   0.18329   0.00000  Uiso   1.00
F453   F     0.14178   0.78402   0.10202   0.00000  Uiso   1.00
F454   F     0.20580   0.81681   0.38984   0.00000  Uiso   1.00
F455   F     0.29751   0.78643   0.45615   0.00000  Uiso   1.00
F456   F     0.01618   0.92838   0.05346   0.00000  Uiso   1.00
C457   C     0.00628   0.89506   0.28778   0.00000  Uiso   1.00
C458   C     0.30452   0.90294   0.33473   0.00000  Uiso   1.00
C459   C     0.26560   0.94565   0.34301   0.00000  Uiso   1.00
H460   H     0.25510   0.95755   0.37846   0.00000  Uiso   1.00
H461   H     0.29037   0.98118   0.32650   0.00000  Uiso   1.00
H462   H     0.22149   0.93126   0.33263   0.00000  Uiso   1.00
H463   H     0.00441   0.91579   0.35704   0.00000  Uiso   1.00
H464   H     0.27892   0.86496   0.34509   0.00000  Uiso   1.00
H465   H     0.04883   0.89179   0.29479   0.00000  Uiso   1.00
H466   H     0.01215   0.93013   0.26987   0.00000  Uiso   1.00
C467   C     0.32636   0.77111   0.21361   0.00000  Uiso   1.00
C468   C     0.03478   0.75828   0.17058   0.00000  Uiso   1.00
C469   C     0.00311   0.71198   0.14326   0.00000  Uiso   1.00
H470   H     0.32195   0.67638   0.16145   0.00000  Uiso   1.00
H471   H     0.29595   0.72199   0.13457   0.00000  Uiso   1.00
H472   H     0.03508   0.70285   0.11274   0.00000  Uiso   1.00
H473   H     0.04703   0.79350   0.15202   0.00000  Uiso   1.00
H474   H     0.07626   0.74711   0.17606   0.00000  Uiso   1.00
H475   H     0.31662   0.73776   0.23398   0.00000  Uiso   1.00
H476   H     0.28612   0.77526   0.20280   0.00000  Uiso   1.00
C477   C     0.51462   0.93311   0.25164   0.00000  Uiso   1.00
C478   C     0.48539   0.73354   0.24828   0.00000  Uiso   1.00
C479   C     0.42341   0.81597   0.04036   0.00000  Uiso   1.00
C480   C     0.56251   0.87611   0.46669   0.00000  Uiso   1.00
C481   C     0.38100   0.80625   0.01315   0.00000  Uiso   1.00
C482   C     0.60246   0.89407   0.49524   0.00000  Uiso   1.00
C483   C     0.52202   0.98919   0.25363   0.00000  Uiso   1.00
C484   C     0.47786   0.67742   0.24642   0.00000  Uiso   1.00
C485   C     0.46272   0.82782   0.33249   0.00000  Uiso   1.00
C486   C     0.53701   0.83748   0.16753   0.00000  Uiso   1.00
C487   C     0.44066   0.82159   0.37929   0.00000  Uiso   1.00
C488   C     0.55786   0.84715   0.12170   0.00000  Uiso   1.00
C489   C     0.35787   0.80285   0.44094   0.00000  Uiso   1.00
C490   C     0.62848   0.89615   0.06600   0.00000  Uiso   1.00
C491   C     0.37796   0.81050   0.39691   0.00000  Uiso   1.00
C492   C     0.61297   0.88138   0.10826   0.00000  Uiso   1.00
C493   C     0.48211   0.82514   0.40672   0.00000  Uiso   1.00
C494   C     0.51919   0.82676   0.09232   0.00000  Uiso   1.00
C495   C     0.46271   0.82821   0.45187   0.00000  Uiso   1.00
C496   C     0.53008   0.84639   0.05158   0.00000  Uiso   1.00
C497   C     0.40002   0.81240   0.46885   0.00000  Uiso   1.00
C498   C     0.58732   0.87903   0.03749   0.00000  Uiso   1.00
C499   C     0.50458   0.84493   0.48030   0.00000  Uiso   1.00
C500   C     0.48608   0.83430   0.02434   0.00000  Uiso   1.00
Cu501  Cu    0.44071   0.82775   0.24517   0.00000  Uiso   1.00
Cu502  Cu    0.55929   0.83892   0.25484   0.00000  Uiso   1.00
H503   H     0.66656   0.79385   0.02696   0.00000  Uiso   1.00
H504   H     0.64583   0.91900   0.48378   0.00000  Uiso   1.00
H505   H     0.64360   0.89731   0.13062   0.00000  Uiso   1.00
H506   H     0.34451   0.80528   0.37635   0.00000  Uiso   1.00
H507   H     0.40539   0.81268   0.07450   0.00000  Uiso   1.00
H508   H     0.57630   0.88963   0.43459   0.00000  Uiso   1.00
H509   H     0.56401   0.67950   0.26158   0.00000  Uiso   1.00
H510   H     0.43571   0.98706   0.23866   0.00000  Uiso   1.00
N511   N     0.64839   0.84735   0.26212   0.00000  Uiso   1.00
N512   N     0.35161   0.81932   0.23788   0.00000  Uiso   1.00
O513   O     0.46148   0.90476   0.24686   0.00000  Uiso   1.00
O514   O     0.53852   0.76191   0.25314   0.00000  Uiso   1.00
O515   O     0.56163   0.91420   0.25503   0.00000  Uiso   1.00
O516   O     0.43837   0.75247   0.24498   0.00000  Uiso   1.00
O517   O     0.42185   0.82597   0.30855   0.00000  Uiso   1.00
O518   O     0.57815   0.84070   0.19146   0.00000  Uiso   1.00
O519   O     0.52199   0.83540   0.31671   0.00000  Uiso   1.00
O520   O     0.47801   0.83126   0.18329   0.00000  Uiso   1.00
F521   F     0.47512   0.78402   0.10202   0.00000  Uiso   1.00
F522   F     0.53913   0.81681   0.38984   0.00000  Uiso   1.00
F523   F     0.63085   0.78643   0.45615   0.00000  Uiso   1.00
F524   F     0.34951   0.92838   0.05346   0.00000  Uiso   1.00
C525   C     0.33961   0.89506   0.28778   0.00000  Uiso   1.00
C526   C     0.63785   0.90294   0.33473   0.00000  Uiso   1.00
C527   C     0.59893   0.94565   0.34301   0.00000  Uiso   1.00
H528   H     0.58843   0.95755   0.37846   0.00000  Uiso   1.00
H529   H     0.62371   0.98118   0.32650   0.00000  Uiso   1.00
H530   H     0.55482   0.93126   0.33263   0.00000  Uiso   1.00
H531   H     0.33775   0.91579   0.35704   0.00000  Uiso   1.00
H532   H     0.61225   0.86496   0.34509   0.00000  Uiso   1.00
H533   H     0.38216   0.89179   0.29479   0.00000  Uiso   1.00
H534   H     0.34548   0.93013   0.26987   0.00000  Uiso   1.00
C535   C     0.65969   0.77111   0.21361   0.00000  Uiso   1.00
C536   C     0.36811   0.75828   0.17058   0.00000  Uiso   1.00
C537   C     0.33645   0.71198   0.14326   0.00000  Uiso   1.00
H538   H     0.65528   0.67638   0.16145   0.00000  Uiso   1.00
H539   H     0.62928   0.72199   0.13457   0.00000  Uiso   1.00
H540   H     0.36842   0.70285   0.11274   0.00000  Uiso   1.00
H541   H     0.38036   0.79350   0.15202   0.00000  Uiso   1.00
H542   H     0.40960   0.74711   0.17606   0.00000  Uiso   1.00
H543   H     0.64995   0.73776   0.23398   0.00000  Uiso   1.00
H544   H     0.61945   0.77526   0.20280   0.00000  Uiso   1.00
C545   C     0.84796   0.93311   0.25164   0.00000  Uiso   1.00
C546   C     0.81872   0.73354   0.24828   0.00000  Uiso   1.00
C547   C     0.75674   0.81597   0.04036   0.00000  Uiso   1.00
C548   C     0.89584   0.87611   0.46669   0.00000  Uiso   1.00
C549   C     0.71433   0.80625   0.01315   0.00000  Uiso   1.00
C550   C     0.93580   0.89407   0.49524   0.00000  Uiso   1.00
C551   C     0.85535   0.98919   0.25363   0.00000  Uiso   1.00
C552   C     0.81119   0.67742   0.24642   0.00000  Uiso   1.00
C553   C     0.79605   0.82782   0.33249   0.00000  Uiso   1.00
C554   C     0.87034   0.83748   0.16753   0.00000  Uiso   1.00
C555   C     0.77399   0.82159   0.37929   0.00000  Uiso   1.00
C556   C     0.89120   0.84715   0.12170   0.00000  Uiso   1.00
C557   C     0.69120   0.80285   0.44094   0.00000  Uiso   1.00
C558   C     0.96182   0.89615   0.06600   0.00000  Uiso   1.00
C559   C     0.71129   0.81050   0.39691   0.00000  Uiso   1.00
C560   C     0.94631   0.88138   0.10826   0.00000  Uiso   1.00
C561   C     0.81544   0.82514   0.40672   0.00000  Uiso   1.00
C562   C     0.85252   0.82676   0.09232   0.00000  Uiso   1.00
C563   C     0.79604   0.82821   0.45187   0.00000  Uiso   1.00
C564   C     0.86342   0.84639   0.05158   0.00000  Uiso   1.00
C565   C     0.73336   0.81240   0.46885   0.00000  Uiso   1.00
C566   C     0.92065   0.87903   0.03749   0.00000  Uiso   1.00
C567   C     0.83791   0.84493   0.48030   0.00000  Uiso   1.00
C568   C     0.81941   0.83430   0.02434   0.00000  Uiso   1.00
Cu569  Cu    0.77404   0.82775   0.24517   0.00000  Uiso   1.00
Cu570  Cu    0.89263   0.83892   0.25484   0.00000  Uiso   1.00
H571   H     0.99989   0.79385   0.02696   0.00000  Uiso   1.00
H572   H     0.97917   0.91900   0.48378   0.00000  Uiso   1.00
H573   H     0.97694   0.89731   0.13062   0.00000  Uiso   1.00
H574   H     0.67784   0.80528   0.37635   0.00000  Uiso   1.00
H575   H     0.73873   0.81268   0.07450   0.00000  Uiso   1.00
H576   H     0.90963   0.88963   0.43459   0.00000  Uiso   1.00
H577   H     0.89735   0.67950   0.26158   0.00000  Uiso   1.00
H578   H     0.76904   0.98706   0.23866   0.00000  Uiso   1.00
N579   N     0.98173   0.84735   0.26212   0.00000  Uiso   1.00
N580   N     0.68494   0.81932   0.23788   0.00000  Uiso   1.00
O581   O     0.79482   0.90476   0.24686   0.00000  Uiso   1.00
O582   O     0.87185   0.76191   0.25314   0.00000  Uiso   1.00
O583   O     0.89496   0.91420   0.25503   0.00000  Uiso   1.00
O584   O     0.77171   0.75247   0.24498   0.00000  Uiso   1.00
O585   O     0.75518   0.82597   0.30855   0.00000  Uiso   1.00
O586   O     0.91149   0.84070   0.19146   0.00000  Uiso   1.00
O587   O     0.85532   0.83540   0.31671   0.00000  Uiso   1.00
O588   O     0.81134   0.83126   0.18329   0.00000  Uiso   1.00
F589   F     0.80845   0.78402   0.10202   0.00000  Uiso   1.00
F590   F     0.87247   0.81681   0.38984   0.00000  Uiso   1.00
F591   F     0.96418   0.78643   0.45615   0.00000  Uiso   1.00
F592   F     0.68284   0.92838   0.05346   0.00000  Uiso   1.00
C593   C     0.67294   0.89506   0.28778   0.00000  Uiso   1.00
C594   C     0.97119   0.90294   0.33473   0.00000  Uiso   1.00
C595   C     0.93227   0.94565   0.34301   0.00000  Uiso   1.00
H596   H     0.92177   0.95755   0.37846   0.00000  Uiso   1.00
H597   H     0.95704   0.98118   0.32650   0.00000  Uiso   1.00
H598   H     0.88815   0.93126   0.33263   0.00000  Uiso   1.00
H599   H     0.67108   0.91579   0.35704   0.00000  Uiso   1.00
H600   H     0.94558   0.86496   0.34509   0.00000  Uiso   1.00
H601   H     0.71550   0.89179   0.29479   0.00000  Uiso   1.00
H602   H     0.67882   0.93013   0.26987   0.00000  Uiso   1.00
C603   C     0.99302   0.77111   0.21361   0.00000  Uiso   1.00
C604   C     0.70144   0.75828   0.17058   0.00000  Uiso   1.00
C605   C     0.66978   0.71198   0.14326   0.00000  Uiso   1.00
H606   H     0.98861   0.67638   0.16145   0.00000  Uiso   1.00
H607   H     0.96261   0.72199   0.13457   0.00000  Uiso   1.00
H608   H     0.70175   0.70285   0.11274   0.00000  Uiso   1.00
H609   H     0.71370   0.79350   0.15202   0.00000  Uiso   1.00
H610   H     0.74293   0.74711   0.17606   0.00000  Uiso   1.00
H611   H     0.98328   0.73776   0.23398   0.00000  Uiso   1.00
H612   H     0.95278   0.77526   0.20280   0.00000  Uiso   1.00
C613   C     0.18129   0.26644   0.75164   0.00000  Uiso   1.00
C614   C     0.15205   0.06687   0.74828   0.00000  Uiso   1.00
C615   C     0.09007   0.14931   0.54036   0.00000  Uiso   1.00
C616   C     0.22917   0.20945   0.96669   0.00000  Uiso   1.00
C617   C     0.04767   0.13958   0.51315   0.00000  Uiso   1.00
C618   C     0.26913   0.22740   0.99524   0.00000  Uiso   1.00
C619   C     0.18868   0.32253   0.75363   0.00000  Uiso   1.00
C620   C     0.14452   0.01076   0.74642   0.00000  Uiso   1.00
C621   C     0.12938   0.16115   0.83249   0.00000  Uiso   1.00
C622   C     0.20368   0.17081   0.66753   0.00000  Uiso   1.00
C623   C     0.10733   0.15492   0.87929   0.00000  Uiso   1.00
C624   C     0.22453   0.18048   0.62170   0.00000  Uiso   1.00
C625   C     0.02453   0.13618   0.94094   0.00000  Uiso   1.00
C626   C     0.29515   0.22948   0.56600   0.00000  Uiso   1.00
C627   C     0.04462   0.14383   0.89691   0.00000  Uiso   1.00
C628   C     0.27964   0.21471   0.60826   0.00000  Uiso   1.00
C629   C     0.14878   0.15847   0.90672   0.00000  Uiso   1.00
C630   C     0.18586   0.16010   0.59232   0.00000  Uiso   1.00
C631   C     0.12937   0.16154   0.95187   0.00000  Uiso   1.00
C632   C     0.19675   0.17973   0.55158   0.00000  Uiso   1.00
C633   C     0.06669   0.14574   0.96885   0.00000  Uiso   1.00
C634   C     0.25399   0.21237   0.53749   0.00000  Uiso   1.00
C635   C     0.17124   0.17826   0.98030   0.00000  Uiso   1.00
C636   C     0.15274   0.16763   0.52434   0.00000  Uiso   1.00
Cu637  Cu    0.10737   0.16108   0.74517   0.00000  Uiso   1.00
Cu638  Cu    0.22596   0.17225   0.75484   0.00000  Uiso   1.00
H639   H     0.33323   0.12718   0.52696   0.00000  Uiso   1.00
H640   H     0.31250   0.25233   0.98378   0.00000  Uiso   1.00
H641   H     0.31027   0.23064   0.63062   0.00000  Uiso   1.00
H642   H     0.01117   0.13861   0.87635   0.00000  Uiso   1.00
H643   H     0.07206   0.14601   0.57450   0.00000  Uiso   1.00
H644   H     0.24297   0.22297   0.93459   0.00000  Uiso   1.00
H645   H     0.23068   0.01284   0.76158   0.00000  Uiso   1.00
H646   H     0.10237   0.32040   0.73866   0.00000  Uiso   1.00
N647   N     0.31506   0.18068   0.76212   0.00000  Uiso   1.00
N648   N     0.01827   0.15265   0.73788   0.00000  Uiso   1.00
O649   O     0.12815   0.23809   0.74686   0.00000  Uiso   1.00
O650   O     0.20518   0.09524   0.75314   0.00000  Uiso   1.00
O651   O     0.22829   0.24753   0.75503   0.00000  Uiso   1.00
O652   O     0.10504   0.08580   0.74498   0.00000  Uiso   1.00
O653   O     0.08851   0.15930   0.80855   0.00000  Uiso   1.00
O654   O     0.24482   0.17403   0.69146   0.00000  Uiso   1.00
O655   O     0.18866   0.16874   0.81671   0.00000  Uiso   1.00
O656   O     0.14468   0.16460   0.68329   0.00000  Uiso   1.00
F657   F     0.14178   0.11736   0.60202   0.00000  Uiso   1.00
F658   F     0.20580   0.15014   0.88984   0.00000  Uiso   1.00
F659   F     0.29751   0.11976   0.95615   0.00000  Uiso   1.00
F660   F     0.01618   0.26171   0.55346   0.00000  Uiso   1.00
C661   C     0.00628   0.22840   0.78778   0.00000  Uiso   1.00
C662   C     0.30452   0.23627   0.83473   0.00000  Uiso   1.00
C663   C     0.26560   0.27898   0.84301   0.00000  Uiso   1.00
H664   H     0.25510   0.29088   0.87846   0.00000  Uiso   1.00
H665   H     0.29037   0.31452   0.82650   0.00000  Uiso   1.00
H666   H     0.22149   0.26460   0.83263   0.00000  Uiso   1.00
H667   H     0.00441   0.24912   0.85704   0.00000  Uiso   1.00
H668   H     0.27892   0.19829   0.84509   0.00000  Uiso   1.00
H669   H     0.04883   0.22512   0.79479   0.00000  Uiso   1.00
H670   H     0.01215   0.26346   0.76987   0.00000  Uiso   1.00
C671   C     0.32636   0.10445   0.71361   0.00000  Uiso   1.00
C672   C     0.03478   0.09162   0.67058   0.00000  Uiso   1.00
C673   C     0.00311   0.04531   0.64326   0.00000  Uiso   1.00
H674   H     0.32195   0.00971   0.66145   0.00000  Uiso   1.00
H675   H     0.29595   0.05532   0.63457   0.00000  Uiso   1.00
H676   H     0.03508   0.03618   0.61274   0.00000  Uiso   1.00
H677   H     0.04703   0.12683   0.65202   0.00000  Uiso   1.00
H678   H     0.07626   0.08044   0.67606   0.00000  Uiso   1.00
H679   H     0.31662   0.07109   0.73398   0.00000  Uiso   1.00
H680   H     0.28612   0.10859   0.70280   0.00000  Uiso   1.00
C681   C     0.51462   0.26644   0.75164   0.00000  Uiso   1.00
C682   C     0.48539   0.06687   0.74828   0.00000  Uiso   1.00
C683   C     0.42341   0.14931   0.54036   0.00000  Uiso   1.00
C684   C     0.56251   0.20945   0.96669   0.00000  Uiso   1.00
C685   C     0.38100   0.13958   0.51315   0.00000  Uiso   1.00
C686   C     0.60246   0.22740   0.99524   0.00000  Uiso   1.00
C687   C     0.52202   0.32253   0.75363   0.00000  Uiso   1.00
C688   C     0.47786   0.01076   0.74642   0.00000  Uiso   1.00
C689   C     0.46272   0.16115   0.83249   0.00000  Uiso   1.00
C690   C     0.53701   0.17081   0.66753   0.00000  Uiso   1.00
C691   C     0.44066   0.15492   0.87929   0.00000  Uiso   1.00
C692   C     0.55786   0.18048   0.62170   0.00000  Uiso   1.00
C693   C     0.35787   0.13618   0.94094   0.00000  Uiso   1.00
C694   C     0.62848   0.22948   0.56600   0.00000  Uiso   1.00
C695   C     0.37796   0.14383   0.89691   0.00000  Uiso   1.00
C696   C     0.61297   0.21471   0.60826   0.00000  Uiso   1.00
C697   C     0.48211   0.15847   0.90672   0.00000  Uiso   1.00
C698   C     0.51919   0.16010   0.59232   0.00000  Uiso   1.00
C699   C     0.46271   0.16154   0.95187   0.00000  Uiso   1.00
C700   C     0.53008   0.17973   0.55158   0.00000  Uiso   1.00
C701   C     0.40002   0.14574   0.96885   0.00000  Uiso   1.00
C702   C     0.58732   0.21237   0.53749   0.00000  Uiso   1.00
C703   C     0.50458   0.17826   0.98030   0.00000  Uiso   1.00
C704   C     0.48608   0.16763   0.52434   0.00000  Uiso   1.00
Cu705  Cu    0.44071   0.16108   0.74517   0.00000  Uiso   1.00
Cu706  Cu    0.55929   0.17225   0.75484   0.00000  Uiso   1.00
H707   H     0.66656   0.12718   0.52696   0.00000  Uiso   1.00
H708   H     0.64583   0.25233   0.98378   0.00000  Uiso   1.00
H709   H     0.64360   0.23064   0.63062   0.00000  Uiso   1.00
H710   H     0.34451   0.13861   0.87635   0.00000  Uiso   1.00
H711   H     0.40539   0.14601   0.57450   0.00000  Uiso   1.00
H712   H     0.57630   0.22297   0.93459   0.00000  Uiso   1.00
H713   H     0.56401   0.01284   0.76158   0.00000  Uiso   1.00
H714   H     0.43571   0.32040   0.73866   0.00000  Uiso   1.00
N715   N     0.64839   0.18068   0.76212   0.00000  Uiso   1.00
N716   N     0.35161   0.15265   0.73788   0.00000  Uiso   1.00
O717   O     0.46148   0.23809   0.74686   0.00000  Uiso   1.00
O718   O     0.53852   0.09524   0.75314   0.00000  Uiso   1.00
O719   O     0.56163   0.24753   0.75503   0.00000  Uiso   1.00
O720   O     0.43837   0.08580   0.74498   0.00000  Uiso   1.00
O721   O     0.42185   0.15930   0.80855   0.00000  Uiso   1.00
O722   O     0.57815   0.17403   0.69146   0.00000  Uiso   1.00
O723   O     0.52199   0.16874   0.81671   0.00000  Uiso   1.00
O724   O     0.47801   0.16460   0.68329   0.00000  Uiso   1.00
F725   F     0.47512   0.11736   0.60202   0.00000  Uiso   1.00
F726   F     0.53913   0.15014   0.88984   0.00000  Uiso   1.00
F727   F     0.63085   0.11976   0.95615   0.00000  Uiso   1.00
F728   F     0.34951   0.26171   0.55346   0.00000  Uiso   1.00
C729   C     0.33961   0.22840   0.78778   0.00000  Uiso   1.00
C730   C     0.63785   0.23627   0.83473   0.00000  Uiso   1.00
C731   C     0.59893   0.27898   0.84301   0.00000  Uiso   1.00
H732   H     0.58843   0.29088   0.87846   0.00000  Uiso   1.00
H733   H     0.62371   0.31452   0.82650   0.00000  Uiso   1.00
H734   H     0.55482   0.26460   0.83263   0.00000  Uiso   1.00
H735   H     0.33775   0.24912   0.85704   0.00000  Uiso   1.00
H736   H     0.61225   0.19829   0.84509   0.00000  Uiso   1.00
H737   H     0.38216   0.22512   0.79479   0.00000  Uiso   1.00
H738   H     0.34548   0.26346   0.76987   0.00000  Uiso   1.00
C739   C     0.65969   0.10445   0.71361   0.00000  Uiso   1.00
C740   C     0.36811   0.09162   0.67058   0.00000  Uiso   1.00
C741   C     0.33645   0.04531   0.64326   0.00000  Uiso   1.00
H742   H     0.65528   0.00971   0.66145   0.00000  Uiso   1.00
H743   H     0.62928   0.05532   0.63457   0.00000  Uiso   1.00
H744   H     0.36842   0.03618   0.61274   0.00000  Uiso   1.00
H745   H     0.38036   0.12683   0.65202   0.00000  Uiso   1.00
H746   H     0.40960   0.08044   0.67606   0.00000  Uiso   1.00
H747   H     0.64995   0.07109   0.73398   0.00000  Uiso   1.00
H748   H     0.61945   0.10859   0.70280   0.00000  Uiso   1.00
C749   C     0.84796   0.26644   0.75164   0.00000  Uiso   1.00
C750   C     0.81872   0.06687   0.74828   0.00000  Uiso   1.00
C751   C     0.75674   0.14931   0.54036   0.00000  Uiso   1.00
C752   C     0.89584   0.20945   0.96669   0.00000  Uiso   1.00
C753   C     0.71433   0.13958   0.51315   0.00000  Uiso   1.00
C754   C     0.93580   0.22740   0.99524   0.00000  Uiso   1.00
C755   C     0.85535   0.32253   0.75363   0.00000  Uiso   1.00
C756   C     0.81119   0.01076   0.74642   0.00000  Uiso   1.00
C757   C     0.79605   0.16115   0.83249   0.00000  Uiso   1.00
C758   C     0.87034   0.17081   0.66753   0.00000  Uiso   1.00
C759   C     0.77399   0.15492   0.87929   0.00000  Uiso   1.00
C760   C     0.89120   0.18048   0.62170   0.00000  Uiso   1.00
C761   C     0.69120   0.13618   0.94094   0.00000  Uiso   1.00
C762   C     0.96182   0.22948   0.56600   0.00000  Uiso   1.00
C763   C     0.71129   0.14383   0.89691   0.00000  Uiso   1.00
C764   C     0.94631   0.21471   0.60826   0.00000  Uiso   1.00
C765   C     0.81544   0.15847   0.90672   0.00000  Uiso   1.00
C766   C     0.85252   0.16010   0.59232   0.00000  Uiso   1.00
C767   C     0.79604   0.16154   0.95187   0.00000  Uiso   1.00
C768   C     0.86342   0.17973   0.55158   0.00000  Uiso   1.00
C769   C     0.73336   0.14574   0.96885   0.00000  Uiso   1.00
C770   C     0.92065   0.21237   0.53749   0.00000  Uiso   1.00
C771   C     0.83791   0.17826   0.98030   0.00000  Uiso   1.00
C772   C     0.81941   0.16763   0.52434   0.00000  Uiso   1.00
Cu773  Cu    0.77404   0.16108   0.74517   0.00000  Uiso   1.00
Cu774  Cu    0.89263   0.17225   0.75484   0.00000  Uiso   1.00
H775   H     0.99989   0.12718   0.52696   0.00000  Uiso   1.00
H776   H     0.97917   0.25233   0.98378   0.00000  Uiso   1.00
H777   H     0.97694   0.23064   0.63062   0.00000  Uiso   1.00
H778   H     0.67784   0.13861   0.87635   0.00000  Uiso   1.00
H779   H     0.73873   0.14601   0.57450   0.00000  Uiso   1.00
H780   H     0.90963   0.22297   0.93459   0.00000  Uiso   1.00
H781   H     0.89735   0.01284   0.76158   0.00000  Uiso   1.00
H782   H     0.76904   0.32040   0.73866   0.00000  Uiso   1.00
N783   N     0.98173   0.18068   0.76212   0.00000  Uiso   1.00
N784   N     0.68494   0.15265   0.73788   0.00000  Uiso   1.00
O785   O     0.79482   0.23809   0.74686   0.00000  Uiso   1.00
O786   O     0.87185   0.09524   0.75314   0.00000  Uiso   1.00
O787   O     0.89496   0.24753   0.75503   0.00000  Uiso   1.00
O788   O     0.77171   0.08580   0.74498   0.00000  Uiso   1.00
O789   O     0.75518   0.15930   0.80855   0.00000  Uiso   1.00
O790   O     0.91149   0.17403   0.69146   0.00000  Uiso   1.00
O791   O     0.85532   0.16874   0.81671   0.00000  Uiso   1.00
O792   O     0.81134   0.16460   0.68329   0.00000  Uiso   1.00
F793   F     0.80845   0.11736   0.60202   0.00000  Uiso   1.00
F794   F     0.87247   0.15014   0.88984   0.00000  Uiso   1.00
F795   F     0.96418   0.11976   0.95615   0.00000  Uiso   1.00
F796   F     0.68284   0.26171   0.55346   0.00000  Uiso   1.00
C797   C     0.67294   0.22840   0.78778   0.00000  Uiso   1.00
C798   C     0.97119   0.23627   0.83473   0.00000  Uiso   1.00
C799   C     0.93227   0.27898   0.84301   0.00000  Uiso   1.00
H800   H     0.92177   0.29088   0.87846   0.00000  Uiso   1.00
H801   H     0.95704   0.31452   0.82650   0.00000  Uiso   1.00
H802   H     0.88815   0.26460   0.83263   0.00000  Uiso   1.00
H803   H     0.67108   0.24912   0.85704   0.00000  Uiso   1.00
H804   H     0.94558   0.19829   0.84509   0.00000  Uiso   1.00
H805   H     0.71550   0.22512   0.79479   0.00000  Uiso   1.00
H806   H     0.67882   0.26346   0.76987   0.00000  Uiso   1.00
C807   C     0.99302   0.10445   0.71361   0.00000  Uiso   1.00
C808   C     0.70144   0.09162   0.67058   0.00000  Uiso   1.00
C809   C     0.66978   0.04531   0.64326   0.00000  Uiso   1.00
H810   H     0.98861   0.00971   0.66145   0.00000  Uiso   1.00
H811   H     0.96261   0.05532   0.63457   0.00000  Uiso   1.00
H812   H     0.70175   0.03618   0.61274   0.00000  Uiso   1.00
H813   H     0.71370   0.12683   0.65202   0.00000  Uiso   1.00
H814   H     0.74293   0.08044   0.67606   0.00000  Uiso   1.00
H815   H     0.98328   0.07109   0.73398   0.00000  Uiso   1.00
H816   H     0.95278   0.10859   0.70280   0.00000  Uiso   1.00
C817   C     0.18129   0.59977   0.75164   0.00000  Uiso   1.00
C818   C     0.15205   0.40020   0.74828   0.00000  Uiso   1.00
C819   C     0.09007   0.48264   0.54036   0.00000  Uiso   1.00
C820   C     0.22917   0.54278   0.96669   0.00000  Uiso   1.00
C821   C     0.04767   0.47292   0.51315   0.00000  Uiso   1.00
C822   C     0.26913   0.56074   0.99524   0.00000  Uiso   1.00
C823   C     0.18868   0.65586   0.75363   0.00000  Uiso   1.00
C824   C     0.14452   0.34409   0.74642   0.00000  Uiso   1.00
C825   C     0.12938   0.49448   0.83249   0.00000  Uiso   1.00
C826   C     0.20368   0.50415   0.66753   0.00000  Uiso   1.00
C827   C     0.10733   0.48826   0.87929   0.00000  Uiso   1.00
C828   C     0.22453   0.51382   0.62170   0.00000  Uiso   1.00
C829   C     0.02453   0.46951   0.94094   0.00000  Uiso   1.00
C830   C     0.29515   0.56282   0.56600   0.00000  Uiso   1.00
C831   C     0.04462   0.47716   0.89691   0.00000  Uiso   1.00
C832   C     0.27964   0.54804   0.60826   0.00000  Uiso   1.00
C833   C     0.14878   0.49180   0.90672   0.00000  Uiso   1.00
C834   C     0.18586   0.49343   0.59232   0.00000  Uiso   1.00
C835   C     0.12937   0.49487   0.95187   0.00000  Uiso   1.00
C836   C     0.19675   0.51306   0.55158   0.00000  Uiso   1.00
C837   C     0.06669   0.47907   0.96885   0.00000  Uiso   1.00
C838   C     0.25399   0.54570   0.53749   0.00000  Uiso   1.00
C839   C     0.17124   0.51160   0.98030   0.00000  Uiso   1.00
C840   C     0.15274   0.50097   0.52434   0.00000  Uiso   1.00
Cu841  Cu    0.10737   0.49441   0.74517   0.00000  Uiso   1.00
Cu842  Cu    0.22596   0.50559   0.75484   0.00000  Uiso   1.00
H843   H     0.33323   0.46052   0.52696   0.00000  Uiso   1.00
H844   H     0.31250   0.58567   0.98378   0.00000  Uiso   1.00
H845   H     0.31027   0.56398   0.63062   0.00000  Uiso   1.00
H846   H     0.01117   0.47195   0.87635   0.00000  Uiso   1.00
H847   H     0.07206   0.47935   0.57450   0.00000  Uiso   1.00
H848   H     0.24297   0.55630   0.93459   0.00000  Uiso   1.00
H849   H     0.23068   0.34617   0.76158   0.00000  Uiso   1.00
H850   H     0.10237   0.65373   0.73866   0.00000  Uiso   1.00
N851   N     0.31506   0.51401   0.76212   0.00000  Uiso   1.00
N852   N     0.01827   0.48599   0.73788   0.00000  Uiso   1.00
O853   O     0.12815   0.57142   0.74686   0.00000  Uiso   1.00
O854   O     0.20518   0.42858   0.75314   0.00000  Uiso   1.00
O855   O     0.22829   0.58086   0.75503   0.00000  Uiso   1.00
O856   O     0.10504   0.41914   0.74498   0.00000  Uiso   1.00
O857   O     0.08851   0.49263   0.80855   0.00000  Uiso   1.00
O858   O     0.24482   0.50737   0.69146   0.00000  Uiso   1.00
O859   O     0.18866   0.50207   0.81671   0.00000  Uiso   1.00
O860   O     0.14468   0.49793   0.68329   0.00000  Uiso   1.00
F861   F     0.14178   0.45069   0.60202   0.00000  Uiso   1.00
F862   F     0.20580   0.48348   0.88984   0.00000  Uiso   1.00
F863   F     0.29751   0.45309   0.95615   0.00000  Uiso   1.00
F864   F     0.01618   0.59505   0.55346   0.00000  Uiso   1.00
C865   C     0.00628   0.56173   0.78778   0.00000  Uiso   1.00
C866   C     0.30452   0.56960   0.83473   0.00000  Uiso   1.00
C867   C     0.26560   0.61231   0.84301   0.00000  Uiso   1.00
H868   H     0.25510   0.62422   0.87846   0.00000  Uiso   1.00
H869   H     0.29037   0.64785   0.82650   0.00000  Uiso   1.00
H870   H     0.22149   0.59793   0.83263   0.00000  Uiso   1.00
H871   H     0.00441   0.58246   0.85704   0.00000  Uiso   1.00
H872   H     0.27892   0.53163   0.84509   0.00000  Uiso   1.00
H873   H     0.04883   0.55846   0.79479   0.00000  Uiso   1.00
H874   H     0.01215   0.59679   0.76987   0.00000  Uiso   1.00
C875   C     0.32636   0.43778   0.71361   0.00000  Uiso   1.00
C876   C     0.03478   0.42495   0.67058   0.00000  Uiso   1.00
C877   C     0.00311   0.37865   0.64326   0.00000  Uiso   1.00
H878   H     0.32195   0.34304   0.66145   0.00000  Uiso   1.00
H879   H     0.29595   0.38865   0.63457   0.00000  Uiso   1.00
H880   H     0.03508   0.36952   0.61274   0.00000  Uiso   1.00
H881   H     0.04703   0.46016   0.65202   0.00000  Uiso   1.00
H882   H     0.07626   0.41377   0.67606   0.00000  Uiso   1.00
H883   H     0.31662   0.40442   0.73398   0.00000  Uiso   1.00
H884   H     0.28612   0.44193   0.70280   0.00000  Uiso   1.00
C885   C     0.51462   0.59977   0.75164   0.00000  Uiso   1.00
C886   C     0.48539   0.40020   0.74828   0.00000  Uiso   1.00
C887   C     0.42341   0.48264   0.54036   0.00000  Uiso   1.00
C888   C     0.56251   0.54278   0.96669   0.00000  Uiso   1.00
C889   C     0.38100   0.47292   0.51315   0.00000  Uiso   1.00
C890   C     0.60246   0.56074   0.99524   0.00000  Uiso   1.00
C891   C     0.52202   0.65586   0.75363   0.00000  Uiso   1.00
C892   C     0.47786   0.34409   0.74642   0.00000  Uiso   1.00
C893   C     0.46272   0.49448   0.83249   0.00000  Uiso   1.00
C894   C     0.53701   0.50415   0.66753   0.00000  Uiso   1.00
C895   C     0.44066   0.48826   0.87929   0.00000  Uiso   1.00
C896   C     0.55786   0.51382   0.62170   0.00000  Uiso   1.00
C897   C     0.35787   0.46951   0.94094   0.00000  Uiso   1.00
C898   C     0.62848   0.56282   0.56600   0.00000  Uiso   1.00
C899   C     0.37796   0.47716   0.89691   0.00000  Uiso   1.00
C900   C     0.61297   0.54804   0.60826   0.00000  Uiso   1.00
C901   C     0.48211   0.49180   0.90672   0.00000  Uiso   1.00
C902   C     0.51919   0.49343   0.59232   0.00000  Uiso   1.00
C903   C     0.46271   0.49487   0.95187   0.00000  Uiso   1.00
C904   C     0.53008   0.51306   0.55158   0.00000  Uiso   1.00
C905   C     0.40002   0.47907   0.96885   0.00000  Uiso   1.00
C906   C     0.58732   0.54570   0.53749   0.00000  Uiso   1.00
C907   C     0.50458   0.51160   0.98030   0.00000  Uiso   1.00
C908   C     0.48608   0.50097   0.52434   0.00000  Uiso   1.00
Cu909  Cu    0.44071   0.49441   0.74517   0.00000  Uiso   1.00
Cu910  Cu    0.55929   0.50559   0.75484   0.00000  Uiso   1.00
H911   H     0.66656   0.46052   0.52696   0.00000  Uiso   1.00
H912   H     0.64583   0.58567   0.98378   0.00000  Uiso   1.00
H913   H     0.64360   0.56398   0.63062   0.00000  Uiso   1.00
H914   H     0.34451   0.47195   0.87635   0.00000  Uiso   1.00
H915   H     0.40539   0.47935   0.57450   0.00000  Uiso   1.00
H916   H     0.57630   0.55630   0.93459   0.00000  Uiso   1.00
H917   H     0.56401   0.34617   0.76158   0.00000  Uiso   1.00
H918   H     0.43571   0.65373   0.73866   0.00000  Uiso   1.00
N919   N     0.64839   0.51401   0.76212   0.00000  Uiso   1.00
N920   N     0.35161   0.48599   0.73788   0.00000  Uiso   1.00
O921   O     0.46148   0.57142   0.74686   0.00000  Uiso   1.00
O922   O     0.53852   0.42858   0.75314   0.00000  Uiso   1.00
O923   O     0.56163   0.58086   0.75503   0.00000  Uiso   1.00
O924   O     0.43837   0.41914   0.74498   0.00000  Uiso   1.00
O925   O     0.42185   0.49263   0.80855   0.00000  Uiso   1.00
O926   O     0.57815   0.50737   0.69146   0.00000  Uiso   1.00
O927   O     0.52199   0.50207   0.81671   0.00000  Uiso   1.00
O928   O     0.47801   0.49793   0.68329   0.00000  Uiso   1.00
F929   F     0.47512   0.45069   0.60202   0.00000  Uiso   1.00
F930   F     0.53913   0.48348   0.88984   0.00000  Uiso   1.00
F931   F     0.63085   0.45309   0.95615   0.00000  Uiso   1.00
F932   F     0.34951   0.59505   0.55346   0.00000  Uiso   1.00
C933   C     0.33961   0.56173   0.78778   0.00000  Uiso   1.00
C934   C     0.63785   0.56960   0.83473   0.00000  Uiso   1.00
C935   C     0.59893   0.61231   0.84301   0.00000  Uiso   1.00
H936   H     0.58843   0.62422   0.87846   0.00000  Uiso   1.00
H937   H     0.62371   0.64785   0.82650   0.00000  Uiso   1.00
H938   H     0.55482   0.59793   0.83263   0.00000  Uiso   1.00
H939   H     0.33775   0.58246   0.85704   0.00000  Uiso   1.00
H940   H     0.61225   0.53163   0.84509   0.00000  Uiso   1.00
H941   H     0.38216   0.55846   0.79479   0.00000  Uiso   1.00
H942   H     0.34548   0.59679   0.76987   0.00000  Uiso   1.00
C943   C     0.65969   0.43778   0.71361   0.00000  Uiso   1.00
C944   C     0.36811   0.42495   0.67058   0.00000  Uiso   1.00
C945   C     0.33645   0.37865   0.64326   0.00000  Uiso   1.00
H946   H     0.65528   0.34304   0.66145   0.00000  Uiso   1.00
H947   H     0.62928   0.38865   0.63457   0.00000  Uiso   1.00
H948   H     0.36842   0.36952   0.61274   0.00000  Uiso   1.00
H949   H     0.38036   0.46016   0.65202   0.00000  Uiso   1.00
H950   H     0.40960   0.41377   0.67606   0.00000  Uiso   1.00
H951   H     0.64995   0.40442   0.73398   0.00000  Uiso   1.00
H952   H     0.61945   0.44193   0.70280   0.00000  Uiso   1.00
C953   C     0.84796   0.59977   0.75164   0.00000  Uiso   1.00
C954   C     0.81872   0.40020   0.74828   0.00000  Uiso   1.00
C955   C     0.75674   0.48264   0.54036   0.00000  Uiso   1.00
C956   C     0.89584   0.54278   0.96669   0.00000  Uiso   1.00
C957   C     0.71433   0.47292   0.51315   0.00000  Uiso   1.00
C958   C     0.93580   0.56074   0.99524   0.00000  Uiso   1.00
C959   C     0.85535   0.65586   0.75363   0.00000  Uiso   1.00
C960   C     0.81119   0.34409   0.74642   0.00000  Uiso   1.00
C961   C     0.79605   0.49448   0.83249   0.00000  Uiso   1.00
C962   C     0.87034   0.50415   0.66753   0.00000  Uiso   1.00
C963   C     0.77399   0.48826   0.87929   0.00000  Uiso   1.00
C964   C     0.89120   0.51382   0.62170   0.00000  Uiso   1.00
C965   C     0.69120   0.46951   0.94094   0.00000  Uiso   1.00
C966   C     0.96182   0.56282   0.56600   0.00000  Uiso   1.00
C967   C     0.71129   0.47716   0.89691   0.00000  Uiso   1.00
C968   C     0.94631   0.54804   0.60826   0.00000  Uiso   1.00
C969   C     0.81544   0.49180   0.90672   0.00000  Uiso   1.00
C970   C     0.85252   0.49343   0.59232   0.00000  Uiso   1.00
C971   C     0.79604   0.49487   0.95187   0.00000  Uiso   1.00
C972   C     0.86342   0.51306   0.55158   0.00000  Uiso   1.00
C973   C     0.73336   0.47907   0.96885   0.00000  Uiso   1.00
C974   C     0.92065   0.54570   0.53749   0.00000  Uiso   1.00
C975   C     0.83791   0.51160   0.98030   0.00000  Uiso   1.00
C976   C     0.81941   0.50097   0.52434   0.00000  Uiso   1.00
Cu977  Cu    0.77404   0.49441   0.74517   0.00000  Uiso   1.00
Cu978  Cu    0.89263   0.50559   0.75484   0.00000  Uiso   1.00
H979   H     0.99989   0.46052   0.52696   0.00000  Uiso   1.00
H980   H     0.97917   0.58567   0.98378   0.00000  Uiso   1.00
H981   H     0.97694   0.56398   0.63062   0.00000  Uiso   1.00
H982   H     0.67784   0.47195   0.87635   0.00000  Uiso   1.00
H983   H     0.73873   0.47935   0.57450   0.00000  Uiso   1.00
H984   H     0.90963   0.55630   0.93459   0.00000  Uiso   1.00
H985   H     0.89735   0.34617   0.76158   0.00000  Uiso   1.00
H986   H     0.76904   0.65373   0.73866   0.00000  Uiso   1.00
N987   N     0.98173   0.51401   0.76212   0.00000  Uiso   1.00
N988   N     0.68494   0.48599   0.73788   0.00000  Uiso   1.00
O989   O     0.79482   0.57142   0.74686   0.00000  Uiso   1.00
O990   O     0.87185   0.42858   0.75314   0.00000  Uiso   1.00
O991   O     0.89496   0.58086   0.75503   0.00000  Uiso   1.00
O992   O     0.77171   0.41914   0.74498   0.00000  Uiso   1.00
O993   O     0.75518   0.49263   0.80855   0.00000  Uiso   1.00
O994   O     0.91149   0.50737   0.69146   0.00000  Uiso   1.00
O995   O     0.85532   0.50207   0.81671   0.00000  Uiso   1.00
O996   O     0.81134   0.49793   0.68329   0.00000  Uiso   1.00
F997   F     0.80845   0.45069   0.60202   0.00000  Uiso   1.00
F998   F     0.87247   0.48348   0.88984   0.00000  Uiso   1.00
F999   F     0.96418   0.45309   0.95615   0.00000  Uiso   1.00
F1000  F     0.68284   0.59505   0.55346   0.00000  Uiso   1.00
C1001  C     0.67294   0.56173   0.78778   0.00000  Uiso   1.00
C1002  C     0.97119   0.56960   0.83473   0.00000  Uiso   1.00
C1003  C     0.93227   0.61231   0.84301   0.00000  Uiso   1.00
H1004  H     0.92177   0.62422   0.87846   0.00000  Uiso   1.00
H1005  H     0.95704   0.64785   0.82650   0.00000  Uiso   1.00
H1006  H     0.88815   0.59793   0.83263   0.00000  Uiso   1.00
H1007  H     0.67108   0.58246   0.85704   0.00000  Uiso   1.00
H1008  H     0.94558   0.53163   0.84509   0.00000  Uiso   1.00
H1009  H     0.71550   0.55846   0.79479   0.00000  Uiso   1.00
H1010  H     0.67882   0.59679   0.76987   0.00000  Uiso   1.00
C1011  C     0.99302   0.43778   0.71361   0.00000  Uiso   1.00
C1012  C     0.70144   0.42495   0.67058   0.00000  Uiso   1.00
C1013  C     0.66978   0.37865   0.64326   0.00000  Uiso   1.00
H1014  H     0.98861   0.34304   0.66145   0.00000  Uiso   1.00
H1015  H     0.96261   0.38865   0.63457   0.00000  Uiso   1.00
H1016  H     0.70175   0.36952   0.61274   0.00000  Uiso   1.00
H1017  H     0.71370   0.46016   0.65202   0.00000  Uiso   1.00
H1018  H     0.74293   0.41377   0.67606   0.00000  Uiso   1.00
H1019  H     0.98328   0.40442   0.73398   0.00000  Uiso   1.00
H1020  H     0.95278   0.44193   0.70280   0.00000  Uiso   1.00
C1021  C     0.18129   0.93311   0.75164   0.00000  Uiso   1.00
C1022  C     0.15205   0.73354   0.74828   0.00000  Uiso   1.00
C1023  C     0.09007   0.81597   0.54036   0.00000  Uiso   1.00
C1024  C     0.22917   0.87611   0.96669   0.00000  Uiso   1.00
C1025  C     0.04767   0.80625   0.51315   0.00000  Uiso   1.00
C1026  C     0.26913   0.89407   0.99524   0.00000  Uiso   1.00
C1027  C     0.18868   0.98919   0.75363   0.00000  Uiso   1.00
C1028  C     0.14452   0.67742   0.74642   0.00000  Uiso   1.00
C1029  C     0.12938   0.82782   0.83249   0.00000  Uiso   1.00
C1030  C     0.20368   0.83748   0.66753   0.00000  Uiso   1.00
C1031  C     0.10733   0.82159   0.87929   0.00000  Uiso   1.00
C1032  C     0.22453   0.84715   0.62170   0.00000  Uiso   1.00
C1033  C     0.02453   0.80285   0.94094   0.00000  Uiso   1.00
C1034  C     0.29515   0.89615   0.56600   0.00000  Uiso   1.00
C1035  C     0.04462   0.81050   0.89691   0.00000  Uiso   1.00
C1036  C     0.27964   0.88138   0.60826   0.00000  Uiso   1.00
C1037  C     0.14878   0.82514   0.90672   0.00000  Uiso   1.00
C1038  C     0.18586   0.82676   0.59232   0.00000  Uiso   1.00
C1039  C     0.12937   0.82821   0.95187   0.00000  Uiso   1.00
C1040  C     0.19675   0.84639   0.55158   0.00000  Uiso   1.00
C1041  C     0.06669   0.81240   0.96885   0.00000  Uiso   1.00
C1042  C     0.25399   0.87903   0.53749   0.00000  Uiso   1.00
C1043  C     0.17124   0.84493   0.98030   0.00000  Uiso   1.00
C1044  C     0.15274   0.83430   0.52434   0.00000  Uiso   1.00
Cu1045 Cu    0.10737   0.82775   0.74517   0.00000  Uiso   1.00
Cu1046 Cu    0.22596   0.83892   0.75484   0.00000  Uiso   1.00
H1047  H     0.33323   0.79385   0.52696   0.00000  Uiso   1.00
H1048  H     0.31250   0.91900   0.98378   0.00000  Uiso   1.00
H1049  H     0.31027   0.89731   0.63062   0.00000  Uiso   1.00
H1050  H     0.01117   0.80528   0.87635   0.00000  Uiso   1.00
H1051  H     0.07206   0.81268   0.57450   0.00000  Uiso   1.00
H1052  H     0.24297   0.88963   0.93459   0.00000  Uiso   1.00
H1053  H     0.23068   0.67950   0.76158   0.00000  Uiso   1.00
H1054  H     0.10237   0.98706   0.73866   0.00000  Uiso   1.00
N1055  N     0.31506   0.84735   0.76212   0.00000  Uiso   1.00
N1056  N     0.01827   0.81932   0.73788   0.00000  Uiso   1.00
O1057  O     0.12815   0.90476   0.74686   0.00000  Uiso   1.00
O1058  O     0.20518   0.76191   0.75314   0.00000  Uiso   1.00
O1059  O     0.22829   0.91420   0.75503   0.00000  Uiso   1.00
O1060  O     0.10504   0.75247   0.74498   0.00000  Uiso   1.00
O1061  O     0.08851   0.82597   0.80855   0.00000  Uiso   1.00
O1062  O     0.24482   0.84070   0.69146   0.00000  Uiso   1.00
O1063  O     0.18866   0.83540   0.81671   0.00000  Uiso   1.00
O1064  O     0.14468   0.83126   0.68329   0.00000  Uiso   1.00
F1065  F     0.14178   0.78402   0.60202   0.00000  Uiso   1.00
F1066  F     0.20580   0.81681   0.88984   0.00000  Uiso   1.00
F1067  F     0.29751   0.78643   0.95615   0.00000  Uiso   1.00
F1068  F     0.01618   0.92838   0.55346   0.00000  Uiso   1.00
C1069  C     0.00628   0.89506   0.78778   0.00000  Uiso   1.00
C1070  C     0.30452   0.90294   0.83473   0.00000  Uiso   1.00
C1071  C     0.26560   0.94565   0.84301   0.00000  Uiso   1.00
H1072  H     0.25510   0.95755   0.87846   0.00000  Uiso   1.00
H1073  H     0.29037   0.98118   0.82650   0.00000  Uiso   1.00
H1074  H     0.22149   0.93126   0.83263   0.00000  Uiso   1.00
H1075  H     0.00441   0.91579   0.85704   0.00000  Uiso   1.00
H1076  H     0.27892   0.86496   0.84509   0.00000  Uiso   1.00
H1077  H     0.04883   0.89179   0.79479   0.00000  Uiso   1.00
H1078  H     0.01215   0.93013   0.76987   0.00000  Uiso   1.00
C1079  C     0.32636   0.77111   0.71361   0.00000  Uiso   1.00
C1080  C     0.03478   0.75828   0.67058   0.00000  Uiso   1.00
C1081  C     0.00311   0.71198   0.64326   0.00000  Uiso   1.00
H1082  H     0.32195   0.67638   0.66145   0.00000  Uiso   1.00
H1083  H     0.29595   0.72199   0.63457   0.00000  Uiso   1.00
H1084  H     0.03508   0.70285   0.61274   0.00000  Uiso   1.00
H1085  H     0.04703   0.79350   0.65202   0.00000  Uiso   1.00
H1086  H     0.07626   0.74711   0.67606   0.00000  Uiso   1.00
H1087  H     0.31662   0.73776   0.73398   0.00000  Uiso   1.00
H1088  H     0.28612   0.77526   0.70280   0.00000  Uiso   1.00
C1089  C     0.51462   0.93311   0.75164   0.00000  Uiso   1.00
C1090  C     0.48539   0.73354   0.74828   0.00000  Uiso   1.00
C1091  C     0.42341   0.81597   0.54036   0.00000  Uiso   1.00
C1092  C     0.56251   0.87611   0.96669   0.00000  Uiso   1.00
C1093  C     0.38100   0.80625   0.51315   0.00000  Uiso   1.00
C1094  C     0.60246   0.89407   0.99524   0.00000  Uiso   1.00
C1095  C     0.52202   0.98919   0.75363   0.00000  Uiso   1.00
C1096  C     0.47786   0.67742   0.74642   0.00000  Uiso   1.00
C1097  C     0.46272   0.82782   0.83249   0.00000  Uiso   1.00
C1098  C     0.53701   0.83748   0.66753   0.00000  Uiso   1.00
C1099  C     0.44066   0.82159   0.87929   0.00000  Uiso   1.00
C1100  C     0.55786   0.84715   0.62170   0.00000  Uiso   1.00
C1101  C     0.35787   0.80285   0.94094   0.00000  Uiso   1.00
C1102  C     0.62848   0.89615   0.56600   0.00000  Uiso   1.00
C1103  C     0.37796   0.81050   0.89691   0.00000  Uiso   1.00
C1104  C     0.61297   0.88138   0.60826   0.00000  Uiso   1.00
C1105  C     0.48211   0.82514   0.90672   0.00000  Uiso   1.00
C1106  C     0.51919   0.82676   0.59232   0.00000  Uiso   1.00
C1107  C     0.46271   0.82821   0.95187   0.00000  Uiso   1.00
C1108  C     0.53008   0.84639   0.55158   0.00000  Uiso   1.00
C1109  C     0.40002   0.81240   0.96885   0.00000  Uiso   1.00
C1110  C     0.58732   0.87903   0.53749   0.00000  Uiso   1.00
C1111  C     0.50458   0.84493   0.98030   0.00000  Uiso   1.00
C1112  C     0.48608   0.83430   0.52434   0.00000  Uiso   1.00
Cu1113 Cu    0.44071   0.82775   0.74517   0.00000  Uiso   1.00
Cu1114 Cu    0.55929   0.83892   0.75484   0.00000  Uiso   1.00
H1115  H     0.66656   0.79385   0.52696   0.00000  Uiso   1.00
H1116  H     0.64583   0.91900   0.98378   0.00000  Uiso   1.00
H1117  H     0.64360   0.89731   0.63062   0.00000  Uiso   1.00
H1118  H     0.34451   0.80528   0.87635   0.00000  Uiso   1.00
H1119  H     0.40539   0.81268   0.57450   0.00000  Uiso   1.00
H1120  H     0.57630   0.88963   0.93459   0.00000  Uiso   1.00
H1121  H     0.56401   0.67950   0.76158   0.00000  Uiso   1.00
H1122  H     0.43571   0.98706   0.73866   0.00000  Uiso   1.00
N1123  N     0.64839   0.84735   0.76212   0.00000  Uiso   1.00
N1124  N     0.35161   0.81932   0.73788   0.00000  Uiso   1.00
O1125  O     0.46148   0.90476   0.74686   0.00000  Uiso   1.00
O1126  O     0.53852   0.76191   0.75314   0.00000  Uiso   1.00
O1127  O     0.56163   0.91420   0.75503   0.00000  Uiso   1.00
O1128  O     0.43837   0.75247   0.74498   0.00000  Uiso   1.00
O1129  O     0.42185   0.82597   0.80855   0.00000  Uiso   1.00
O1130  O     0.57815   0.84070   0.69146   0.00000  Uiso   1.00
O1131  O     0.52199   0.83540   0.81671   0.00000  Uiso   1.00
O1132  O     0.47801   0.83126   0.68329   0.00000  Uiso   1.00
F1133  F     0.47512   0.78402   0.60202   0.00000  Uiso   1.00
F1134  F     0.53913   0.81681   0.88984   0.00000  Uiso   1.00
F1135  F     0.63085   0.78643   0.95615   0.00000  Uiso   1.00
F1136  F     0.34951   0.92838   0.55346   0.00000  Uiso   1.00
C1137  C     0.33961   0.89506   0.78778   0.00000  Uiso   1.00
C1138  C     0.63785   0.90294   0.83473   0.00000  Uiso   1.00
C1139  C     0.59893   0.94565   0.84301   0.00000  Uiso   1.00
H1140  H     0.58843   0.95755   0.87846   0.00000  Uiso   1.00
H1141  H     0.62371   0.98118   0.82650   0.00000  Uiso   1.00
H1142  H     0.55482   0.93126   0.83263   0.00000  Uiso   1.00
H1143  H     0.33775   0.91579   0.85704   0.00000  Uiso   1.00
H1144  H     0.61225   0.86496   0.84509   0.00000  Uiso   1.00
H1145  H     0.38216   0.89179   0.79479   0.00000  Uiso   1.00
H1146  H     0.34548   0.93013   0.76987   0.00000  Uiso   1.00
C1147  C     0.65969   0.77111   0.71361   0.00000  Uiso   1.00
C1148  C     0.36811   0.75828   0.67058   0.00000  Uiso   1.00
C1149  C     0.33645   0.71198   0.64326   0.00000  Uiso   1.00
H1150  H     0.65528   0.67638   0.66145   0.00000  Uiso   1.00
H1151  H     0.62928   0.72199   0.63457   0.00000  Uiso   1.00
H1152  H     0.36842   0.70285   0.61274   0.00000  Uiso   1.00
H1153  H     0.38036   0.79350   0.65202   0.00000  Uiso   1.00
H1154  H     0.40960   0.74711   0.67606   0.00000  Uiso   1.00
H1155  H     0.64995   0.73776   0.73398   0.00000  Uiso   1.00
H1156  H     0.61945   0.77526   0.70280   0.00000  Uiso   1.00
C1157  C     0.84796   0.93311   0.75164   0.00000  Uiso   1.00
C1158  C     0.81872   0.73354   0.74828   0.00000  Uiso   1.00
C1159  C     0.75674   0.81597   0.54036   0.00000  Uiso   1.00
C1160  C     0.89584   0.87611   0.96669   0.00000  Uiso   1.00
C1161  C     0.71433   0.80625   0.51315   0.00000  Uiso   1.00
C1162  C     0.93580   0.89407   0.99524   0.00000  Uiso   1.00
C1163  C     0.85535   0.98919   0.75363   0.00000  Uiso   1.00
C1164  C     0.81119   0.67742   0.74642   0.00000  Uiso   1.00
C1165  C     0.79605   0.82782   0.83249   0.00000  Uiso   1.00
C1166  C     0.87034   0.83748   0.66753   0.00000  Uiso   1.00
C1167  C     0.77399   0.82159   0.87929   0.00000  Uiso   1.00
C1168  C     0.89120   0.84715   0.62170   0.00000  Uiso   1.00
C1169  C     0.69120   0.80285   0.94094   0.00000  Uiso   1.00
C1170  C     0.96182   0.89615   0.56600   0.00000  Uiso   1.00
C1171  C     0.71129   0.81050   0.89691   0.00000  Uiso   1.00
C1172  C     0.94631   0.88138   0.60826   0.00000  Uiso   1.00
C1173  C     0.81544   0.82514   0.90672   0.00000  Uiso   1.00
C1174  C     0.85252   0.82676   0.59232   0.00000  Uiso   1.00
C1175  C     0.79604   0.82821   0.95187   0.00000  Uiso   1.00
C1176  C     0.86342   0.84639   0.55158   0.00000  Uiso   1.00
C1177  C     0.73336   0.81240   0.96885   0.00000  Uiso   1.00
C1178  C     0.92065   0.87903   0.53749   0.00000  Uiso   1.00
C1179  C     0.83791   0.84493   0.98030   0.00000  Uiso   1.00
C1180  C     0.81941   0.83430   0.52434   0.00000  Uiso   1.00
Cu1181 Cu    0.77404   0.82775   0.74517   0.00000  Uiso   1.00
Cu1182 Cu    0.89263   0.83892   0.75484   0.00000  Uiso   1.00
H1183  H     0.99989   0.79385   0.52696   0.00000  Uiso   1.00
H1184  H     0.97917   0.91900   0.98378   0.00000  Uiso   1.00
H1185  H     0.97694   0.89731   0.63062   0.00000  Uiso   1.00
H1186  H     0.67784   0.80528   0.87635   0.00000  Uiso   1.00
H1187  H     0.73873   0.81268   0.57450   0.00000  Uiso   1.00
H1188  H     0.90963   0.88963   0.93459   0.00000  Uiso   1.00
H1189  H     0.89735   0.67950   0.76158   0.00000  Uiso   1.00
H1190  H     0.76904   0.98706   0.73866   0.00000  Uiso   1.00
N1191  N     0.98173   0.84735   0.76212   0.00000  Uiso   1.00
N1192  N     0.68494   0.81932   0.73788   0.00000  Uiso   1.00
O1193  O     0.79482   0.90476   0.74686   0.00000  Uiso   1.00
O1194  O     0.87185   0.76191   0.75314   0.00000  Uiso   1.00
O1195  O     0.89496   0.91420   0.75503   0.00000  Uiso   1.00
O1196  O     0.77171   0.75247   0.74498   0.00000  Uiso   1.00
O1197  O     0.75518   0.82597   0.80855   0.00000  Uiso   1.00
O1198  O     0.91149   0.84070   0.69146   0.00000  Uiso   1.00
O1199  O     0.85532   0.83540   0.81671   0.00000  Uiso   1.00
O1200  O     0.81134   0.83126   0.68329   0.00000  Uiso   1.00
F1201  F     0.80845   0.78402   0.60202   0.00000  Uiso   1.00
F1202  F     0.87247   0.81681   0.88984   0.00000  Uiso   1.00
F1203  F     0.96418   0.78643   0.95615   0.00000  Uiso   1.00
F1204  F     0.68284   0.92838   0.55346   0.00000  Uiso   1.00
C1205  C     0.67294   0.89506   0.78778   0.00000  Uiso   1.00
C1206  C     0.97119   0.90294   0.83473   0.00000  Uiso   1.00
C1207  C     0.93227   0.94565   0.84301   0.00000  Uiso   1.00
H1208  H     0.92177   0.95755   0.87846   0.00000  Uiso   1.00
H1209  H     0.95704   0.98118   0.82650   0.00000  Uiso   1.00
H1210  H     0.88815   0.93126   0.83263   0.00000  Uiso   1.00
H1211  H     0.67108   0.91579   0.85704   0.00000  Uiso   1.00
H1212  H     0.94558   0.86496   0.84509   0.00000  Uiso   1.00
H1213  H     0.71550   0.89179   0.79479   0.00000  Uiso   1.00
H1214  H     0.67882   0.93013   0.76987   0.00000  Uiso   1.00
C1215  C     0.99302   0.77111   0.71361   0.00000  Uiso   1.00
C1216  C     0.70144   0.75828   0.67058   0.00000  Uiso   1.00
C1217  C     0.66978   0.71198   0.64326   0.00000  Uiso   1.00
H1218  H     0.98861   0.67638   0.66145   0.00000  Uiso   1.00
H1219  H     0.96261   0.72199   0.63457   0.00000  Uiso   1.00
H1220  H     0.70175   0.70285   0.61274   0.00000  Uiso   1.00
H1221  H     0.71370   0.79350   0.65202   0.00000  Uiso   1.00
H1222  H     0.74293   0.74711   0.67606   0.00000  Uiso   1.00
H1223  H     0.98328   0.73776   0.73398   0.00000  Uiso   1.00
H1224  H     0.95278   0.77526   0.70280   0.00000  Uiso   1.00
loop_
_geom_bond_atom_site_label_1
_geom_bond_atom_site_label_2
_geom_bond_distance
_geom_bond_site_symmetry_2
_ccdc_geom_bond_type
C1     O37     1.309   .     A
C1     O39     1.305   .     A
C1     C7      1.430   .     S
C2     O40     1.304   .     A
C2     O38     1.310   .     A
C2     C8      1.431   .     S
C3     C5      1.394   .     A
C3     H31     1.079   .     S
C3     C24     1.416   .     A
C4     H32     1.081   .     S
C4     C6      1.389   .     A
C4     C23     1.413   .     A
C5     C633    1.396   1_554 S
C5     H163    1.084   1_455 S
C6     H28     1.084   .     S
C6     C634    1.395   .     S
C7     C212    1.329   .     S
C7     H237    1.085   .     S
C8     C415    1.329   1_545 S
C8     H442    1.086   1_545 S
C9     O41     1.314   .     A
C9     C11     1.478   .     S
C9     O43     1.323   .     A
C10    O42     1.312   .     A
C10    C12     1.465   .     S
C10    O44     1.319   .     A
C11    C15     1.407   .     A
C11    C17     1.398   .     A
C12    C16     1.401   .     A
C12    C18     1.396   .     A
C13    C21     1.406   .     A
C13    C15     1.398   .     A
C13    F183    1.357   1_455 S
C14    C22     1.406   .     A
C14    C16     1.393   .     A
C14    F116    1.358   .     S
C15    H30     1.083   .     S
C16    H29     1.083   .     S
C17    C19     1.399   .     A
C17    F46     1.351   .     S
C18    F45     1.354   .     S
C18    C20     1.404   .     A
C19    C23     1.415   .     A
C19    C21     1.412   .     A
C20    C22     1.420   .     A
C20    C24     1.421   .     A
C21    C617    1.396   .     S
C22    C618    1.395   1_554 S
C23    C636    1.414   .     S
C24    C635    1.414   1_554 S
Cu25   O37     1.958   .     S
Cu25   Cu26    2.746   .     S
Cu25   O41     1.963   .     S
Cu25   O44     1.967   .     S
Cu25   O40     1.951   .     S
Cu25   N36     2.064   .     S
Cu26   O43     1.967   .     S
Cu26   O39     1.951   .     S
Cu26   N35     2.064   .     S
Cu26   O42     1.963   .     S
Cu26   O38     1.958   .     S
H27    C73     1.084   .     S
H33    C415    1.085   1_545 S
H34    C212    1.086   .     S
N35    N104    1.286   .     S
N35    C117    1.465   .     S
N36    N171    1.286   1_455 S
N36    C195    1.457   1_455 S
F47    C81     1.357   .     S
F48    C150    1.358   1_455 S
C49    H57     1.067   .     S
C49    H58     1.109   .     S
C49    N171    1.465   1_455 S
C49    C186    1.539   1_455 S
C50    C51     1.531   .     S
C50    H56     1.091   .     S
C50    C117    1.539   .     S
C50    H123    1.116   .     S
C51    H54     1.102   .     S
C51    H52     1.111   .     S
C51    H53     1.110   .     S
H55    C186    1.116   1_455 S
C59    H68     1.079   .     S
C59    H67     1.109   .     S
C59    N104    1.457   .     S
C59    C128    1.527   .     S
C60    H66     1.104   .     S
C60    H65     1.110   .     S
C60    C61     1.530   .     S
C60    C195    1.527   1_455 S
C61    H64     1.110   .     S
C61    H198    1.111   1_455 S
C61    H199    1.111   1_455 S
H62    C129    1.111   .     S
H63    C129    1.111   .     S
C69    O105    1.309   .     A
C69    O107    1.305   .     A
C69    C75     1.430   .     S
C70    O108    1.304   .     A
C70    O106    1.310   .     A
C70    C76     1.431   .     S
C71    C73     1.394   .     A
C71    H99     1.079   .     S
C71    C92     1.416   .     A
C72    H100    1.081   .     S
C72    C74     1.389   .     A
C72    C91     1.413   .     A
C73    C701    1.396   1_554 S
C74    H96     1.084   .     S
C74    C702    1.395   .     S
C75    C280    1.329   .     S
C75    H305    1.085   .     S
C76    C483    1.329   1_545 S
C76    H510    1.086   1_545 S
C77    O109    1.314   .     A
C77    C79     1.478   .     S
C77    O111    1.323   .     A
C78    O110    1.312   .     A
C78    C80     1.465   .     S
C78    O112    1.319   .     A
C79    C83     1.407   .     A
C79    C85     1.398   .     A
C80    C84     1.401   .     A
C80    C86     1.396   .     A
C81    C89     1.406   .     A
C81    C83     1.398   .     A
C82    C90     1.406   .     A
C82    C84     1.393   .     A
C82    F184    1.358   .     S
C83    H98     1.083   .     S
C84    H97     1.083   .     S
C85    C87     1.399   .     A
C85    F114    1.351   .     S
C86    F113    1.354   .     S
C86    C88     1.404   .     A
C87    C91     1.415   .     A
C87    C89     1.412   .     A
C88    C90     1.420   .     A
C88    C92     1.421   .     A
C89    C685    1.396   .     S
C90    C686    1.395   1_554 S
C91    C704    1.414   .     S
C92    C703    1.414   1_554 S
Cu93   O105    1.958   .     S
Cu93   Cu94    2.746   .     S
Cu93   O109    1.963   .     S
Cu93   O112    1.967   .     S
Cu93   O108    1.951   .     S
Cu93   N104    2.064   .     S
Cu94   O111    1.967   .     S
Cu94   O107    1.951   .     S
Cu94   N103    2.064   .     S
Cu94   O110    1.963   .     S
Cu94   O106    1.958   .     S
H95    C141    1.084   .     S
H101   C483    1.085   1_545 S
H102   C280    1.086   .     S
N103   N172    1.286   .     S
N103   C185    1.465   .     S
F115   C149    1.357   .     S
C117   H125    1.067   .     S
C117   H126    1.109   .     S
C118   C119    1.531   .     S
C118   H124    1.091   .     S
C118   C185    1.539   .     S
C118   H191    1.116   .     S
C119   H122    1.102   .     S
C119   H120    1.111   .     S
C119   H121    1.110   .     S
C127   H136    1.079   .     S
C127   H135    1.109   .     S
C127   N172    1.457   .     S
C127   C196    1.527   .     S
C128   H134    1.104   .     S
C128   H133    1.110   .     S
C128   C129    1.530   .     S
C129   H132    1.110   .     S
H130   C197    1.111   .     S
H131   C197    1.111   .     S
C137   O173    1.309   .     A
C137   O175    1.305   .     A
C137   C143    1.430   .     S
C138   O176    1.304   .     A
C138   O174    1.310   .     A
C138   C144    1.431   .     S
C139   C141    1.394   .     A
C139   H167    1.079   .     S
C139   C160    1.416   .     A
C140   H168    1.081   .     S
C140   C142    1.389   .     A
C140   C159    1.413   .     A
C141   C769    1.396   1_554 S
C142   H164    1.084   .     S
C142   C770    1.395   .     S
C143   C348    1.329   .     S
C143   H373    1.085   .     S
C144   C551    1.329   1_545 S
C144   H578    1.086   1_545 S
C145   O177    1.314   .     A
C145   C147    1.478   .     S
C145   O179    1.323   .     A
C146   O178    1.312   .     A
C146   C148    1.465   .     S
C146   O180    1.319   .     A
C147   C151    1.407   .     A
C147   C153    1.398   .     A
C148   C152    1.401   .     A
C148   C154    1.396   .     A
C149   C157    1.406   .     A
C149   C151    1.398   .     A
C150   C158    1.406   .     A
C150   C152    1.393   .     A
C150   F48     1.358   1_655 S
C151   H166    1.083   .     S
C152   H165    1.083   .     S
C153   C155    1.399   .     A
C153   F182    1.351   .     S
C154   F181    1.354   .     S
C154   C156    1.404   .     A
C155   C159    1.415   .     A
C155   C157    1.412   .     A
C156   C158    1.420   .     A
C156   C160    1.421   .     A
C157   C753    1.396   .     S
C158   C754    1.395   1_554 S
C159   C772    1.414   .     S
C160   C771    1.414   1_554 S
Cu161  O173    1.958   .     S
Cu161  Cu162   2.746   .     S
Cu161  O177    1.963   .     S
Cu161  O180    1.967   .     S
Cu161  O176    1.951   .     S
Cu161  N172    2.064   .     S
Cu162  O179    1.967   .     S
Cu162  O175    1.951   .     S
Cu162  N171    2.064   .     S
Cu162  O178    1.963   .     S
Cu162  O174    1.958   .     S
H163   C5      1.084   1_655 S
H169   C551    1.085   1_545 S
H170   C348    1.086   .     S
N171   N36     1.286   1_655 S
N171   C49     1.465   1_655 S
F183   C13     1.357   1_655 S
C185   H193    1.067   .     S
C185   H194    1.109   .     S
C186   C187    1.531   .     S
C186   H192    1.091   .     S
C186   C49     1.539   1_655 S
C186   H55     1.116   1_655 S
C187   H190    1.102   .     S
C187   H188    1.111   .     S
C187   H189    1.110   .     S
C195   H204    1.079   .     S
C195   H203    1.109   .     S
C195   N36     1.457   1_655 S
C195   C60     1.527   1_655 S
C196   H202    1.104   .     S
C196   H201    1.110   .     S
C196   C197    1.530   .     S
C197   H200    1.110   .     S
H198   C61     1.111   1_655 S
H199   C61     1.111   1_655 S
C205   O241    1.309   .     A
C205   O243    1.305   .     A
C205   C211    1.430   .     S
C206   O244    1.304   .     A
C206   O242    1.310   .     A
C206   C212    1.431   .     S
C207   C209    1.394   .     A
C207   H235    1.079   .     S
C207   C228    1.416   .     A
C208   H236    1.081   .     S
C208   C210    1.389   .     A
C208   C227    1.413   .     A
C209   C837    1.396   1_554 S
C209   H367    1.084   1_455 S
C210   H232    1.084   .     S
C210   C838    1.395   .     S
C211   C416    1.329   .     S
C211   H441    1.085   .     S
C213   O245    1.314   .     A
C213   C215    1.478   .     S
C213   O247    1.323   .     A
C214   O246    1.312   .     A
C214   C216    1.465   .     S
C214   O248    1.319   .     A
C215   C219    1.407   .     A
C215   C221    1.398   .     A
C216   C220    1.401   .     A
C216   C222    1.396   .     A
C217   C225    1.406   .     A
C217   C219    1.398   .     A
C217   F387    1.357   1_455 S
C218   C226    1.406   .     A
C218   C220    1.393   .     A
C218   F320    1.358   .     S
C219   H234    1.083   .     S
C220   H233    1.083   .     S
C221   C223    1.399   .     A
C221   F250    1.351   .     S
C222   F249    1.354   .     S
C222   C224    1.404   .     A
C223   C227    1.415   .     A
C223   C225    1.412   .     A
C224   C226    1.420   .     A
C224   C228    1.421   .     A
C225   C821    1.396   .     S
C226   C822    1.395   1_554 S
C227   C840    1.414   .     S
C228   C839    1.414   1_554 S
Cu229  O241    1.958   .     S
Cu229  Cu230   2.746   .     S
Cu229  O245    1.963   .     S
Cu229  O248    1.967   .     S
Cu229  O244    1.951   .     S
Cu229  N240    2.064   .     S
Cu230  O247    1.967   .     S
Cu230  O243    1.951   .     S
Cu230  N239    2.064   .     S
Cu230  O246    1.963   .     S
Cu230  O242    1.958   .     S
H231   C277    1.084   .     S
H238   C416    1.086   .     S
N239   N308    1.286   .     S
N239   C321    1.465   .     S
N240   N375    1.286   1_455 S
N240   C399    1.457   1_455 S
F251   C285    1.357   .     S
F252   C354    1.358   1_455 S
C253   H261    1.067   .     S
C253   H262    1.109   .     S
C253   N375    1.465   1_455 S
C253   C390    1.539   1_455 S
C254   C255    1.531   .     S
C254   H260    1.091   .     S
C254   C321    1.539   .     S
C254   H327    1.116   .     S
C255   H258    1.102   .     S
C255   H256    1.111   .     S
C255   H257    1.110   .     S
H259   C390    1.116   1_455 S
C263   H272    1.079   .     S
C263   H271    1.109   .     S
C263   N308    1.457   .     S
C263   C332    1.527   .     S
C264   H270    1.104   .     S
C264   H269    1.110   .     S
C264   C265    1.530   .     S
C264   C399    1.527   1_455 S
C265   H268    1.110   .     S
C265   H402    1.111   1_455 S
C265   H403    1.111   1_455 S
H266   C333    1.111   .     S
H267   C333    1.111   .     S
C273   O309    1.309   .     A
C273   O311    1.305   .     A
C273   C279    1.430   .     S
C274   O312    1.304   .     A
C274   O310    1.310   .     A
C274   C280    1.431   .     S
C275   C277    1.394   .     A
C275   H303    1.079   .     S
C275   C296    1.416   .     A
C276   H304    1.081   .     S
C276   C278    1.389   .     A
C276   C295    1.413   .     A
C277   C905    1.396   1_554 S
C278   H300    1.084   .     S
C278   C906    1.395   .     S
C279   C484    1.329   .     S
C279   H509    1.085   .     S
C281   O313    1.314   .     A
C281   C283    1.478   .     S
C281   O315    1.323   .     A
C282   O314    1.312   .     A
C282   C284    1.465   .     S
C282   O316    1.319   .     A
C283   C287    1.407   .     A
C283   C289    1.398   .     A
C284   C288    1.401   .     A
C284   C290    1.396   .     A
C285   C293    1.406   .     A
C285   C287    1.398   .     A
C286   C294    1.406   .     A
C286   C288    1.393   .     A
C286   F388    1.358   .     S
C287   H302    1.083   .     S
C288   H301    1.083   .     S
C289   C291    1.399   .     A
C289   F318    1.351   .     S
C290   F317    1.354   .     S
C290   C292    1.404   .     A
C291   C295    1.415   .     A
C291   C293    1.412   .     A
C292   C294    1.420   .     A
C292   C296    1.421   .     A
C293   C889    1.396   .     S
C294   C890    1.395   1_554 S
C295   C908    1.414   .     S
C296   C907    1.414   1_554 S
Cu297  O309    1.958   .     S
Cu297  Cu298   2.746   .     S
Cu297  O313    1.963   .     S
Cu297  O316    1.967   .     S
Cu297  O312    1.951   .     S
Cu297  N308    2.064   .     S
Cu298  O315    1.967   .     S
Cu298  O311    1.951   .     S
Cu298  N307    2.064   .     S
Cu298  O314    1.963   .     S
Cu298  O310    1.958   .     S
H299   C345    1.084   .     S
H306   C484    1.086   .     S
N307   N376    1.286   .     S
N307   C389    1.465   .     S
F319   C353    1.357   .     S
C321   H329    1.067   .     S
C321   H330    1.109   .     S
C322   C323    1.531   .     S
C322   H328    1.091   .     S
C322   C389    1.539   .     S
C322   H395    1.116   .     S
C323   H326    1.102   .     S
C323   H324    1.111   .     S
C323   H325    1.110   .     S
C331   H340    1.079   .     S
C331   H339    1.109   .     S
C331   N376    1.457   .     S
C331   C400    1.527   .     S
C332   H338    1.104   .     S
C332   H337    1.110   .     S
C332   C333    1.530   .     S
C333   H336    1.110   .     S
H334   C401    1.111   .     S
H335   C401    1.111   .     S
C341   O377    1.309   .     A
C341   O379    1.305   .     A
C341   C347    1.430   .     S
C342   O380    1.304   .     A
C342   O378    1.310   .     A
C342   C348    1.431   .     S
C343   C345    1.394   .     A
C343   H371    1.079   .     S
C343   C364    1.416   .     A
C344   H372    1.081   .     S
C344   C346    1.389   .     A
C344   C363    1.413   .     A
C345   C973    1.396   1_554 S
C346   H368    1.084   .     S
C346   C974    1.395   .     S
C347   C552    1.329   .     S
C347   H577    1.085   .     S
C349   O381    1.314   .     A
C349   C351    1.478   .     S
C349   O383    1.323   .     A
C350   O382    1.312   .     A
C350   C352    1.465   .     S
C350   O384    1.319   .     A
C351   C355    1.407   .     A
C351   C357    1.398   .     A
C352   C356    1.401   .     A
C352   C358    1.396   .     A
C353   C361    1.406   .     A
C353   C355    1.398   .     A
C354   C362    1.406   .     A
C354   C356    1.393   .     A
C354   F252    1.358   1_655 S
C355   H370    1.083   .     S
C356   H369    1.083   .     S
C357   C359    1.399   .     A
C357   F386    1.351   .     S
C358   F385    1.354   .     S
C358   C360    1.404   .     A
C359   C363    1.415   .     A
C359   C361    1.412   .     A
C360   C362    1.420   .     A
C360   C364    1.421   .     A
C361   C957    1.396   .     S
C362   C958    1.395   1_554 S
C363   C976    1.414   .     S
C364   C975    1.414   1_554 S
Cu365  O377    1.958   .     S
Cu365  Cu366   2.746   .     S
Cu365  O381    1.963   .     S
Cu365  O384    1.967   .     S
Cu365  O380    1.951   .     S
Cu365  N376    2.064   .     S
Cu366  O383    1.967   .     S
Cu366  O379    1.951   .     S
Cu366  N375    2.064   .     S
Cu366  O382    1.963   .     S
Cu366  O378    1.958   .     S
H367   C209    1.084   1_655 S
H374   C552    1.086   .     S
N375   N240    1.286   1_655 S
N375   C253    1.465   1_655 S
F387   C217    1.357   1_655 S
C389   H397    1.067   .     S
C389   H398    1.109   .     S
C390   C391    1.531   .     S
C390   H396    1.091   .     S
C390   C253    1.539   1_655 S
C390   H259    1.116   1_655 S
C391   H394    1.102   .     S
C391   H392    1.111   .     S
C391   H393    1.110   .     S
C399   H408    1.079   .     S
C399   H407    1.109   .     S
C399   N240    1.457   1_655 S
C399   C264    1.527   1_655 S
C400   H406    1.104   .     S
C400   H405    1.110   .     S
C400   C401    1.530   .     S
C401   H404    1.110   .     S
H402   C265    1.111   1_655 S
H403   C265    1.111   1_655 S
C409   O445    1.309   .     A
C409   O447    1.305   .     A
C409   C415    1.430   .     S
C410   O448    1.304   .     A
C410   O446    1.310   .     A
C410   C416    1.431   .     S
C411   C413    1.394   .     A
C411   H439    1.079   .     S
C411   C432    1.416   .     A
C412   H440    1.081   .     S
C412   C414    1.389   .     A
C412   C431    1.413   .     A
C413   C1041   1.396   1_554 S
C413   H571    1.084   1_455 S
C414   H436    1.084   .     S
C414   C1042   1.395   .     S
C415   C8      1.329   1_565 S
C415   H33     1.085   1_565 S
C417   O449    1.314   .     A
C417   C419    1.478   .     S
C417   O451    1.323   .     A
C418   O450    1.312   .     A
C418   C420    1.465   .     S
C418   O452    1.319   .     A
C419   C423    1.407   .     A
C419   C425    1.398   .     A
C420   C424    1.401   .     A
C420   C426    1.396   .     A
C421   C429    1.406   .     A
C421   C423    1.398   .     A
C421   F591    1.357   1_455 S
C422   C430    1.406   .     A
C422   C424    1.393   .     A
C422   F524    1.358   .     S
C423   H438    1.083   .     S
C424   H437    1.083   .     S
C425   C427    1.399   .     A
C425   F454    1.351   .     S
C426   F453    1.354   .     S
C426   C428    1.404   .     A
C427   C431    1.415   .     A
C427   C429    1.412   .     A
C428   C430    1.420   .     A
C428   C432    1.421   .     A
C429   C1025   1.396   .     S
C430   C1026   1.395   1_554 S
C431   C1044   1.414   .     S
C432   C1043   1.414   1_554 S
Cu433  O445    1.958   .     S
Cu433  Cu434   2.746   .     S
Cu433  O449    1.963   .     S
Cu433  O452    1.967   .     S
Cu433  O448    1.951   .     S
Cu433  N444    2.064   .     S
Cu434  O451    1.967   .     S
Cu434  O447    1.951   .     S
Cu434  N443    2.064   .     S
Cu434  O450    1.963   .     S
Cu434  O446    1.958   .     S
H435   C481    1.084   .     S
H442   C8      1.086   1_565 S
N443   N512    1.286   .     S
N443   C525    1.465   .     S
N444   N579    1.286   1_455 S
N444   C603    1.457   1_455 S
F455   C489    1.357   .     S
F456   C558    1.358   1_455 S
C457   H465    1.067   .     S
C457   H466    1.109   .     S
C457   N579    1.465   1_455 S
C457   C594    1.539   1_455 S
C458   C459    1.531   .     S
C458   H464    1.091   .     S
C458   C525    1.539   .     S
C458   H531    1.116   .     S
C459   H462    1.102   .     S
C459   H460    1.111   .     S
C459   H461    1.110   .     S
H463   C594    1.116   1_455 S
C467   H476    1.079   .     S
C467   H475    1.109   .     S
C467   N512    1.457   .     S
C467   C536    1.527   .     S
C468   H474    1.104   .     S
C468   H473    1.110   .     S
C468   C469    1.530   .     S
C468   C603    1.527   1_455 S
C469   H472    1.110   .     S
C469   H606    1.111   1_455 S
C469   H607    1.111   1_455 S
H470   C537    1.111   .     S
H471   C537    1.111   .     S
C477   O513    1.309   .     A
C477   O515    1.305   .     A
C477   C483    1.430   .     S
C478   O516    1.304   .     A
C478   O514    1.310   .     A
C478   C484    1.431   .     S
C479   C481    1.394   .     A
C479   H507    1.079   .     S
C479   C500    1.416   .     A
C480   H508    1.081   .     S
C480   C482    1.389   .     A
C480   C499    1.413   .     A
C481   C1109   1.396   1_554 S
C482   H504    1.084   .     S
C482   C1110   1.395   .     S
C483   C76     1.329   1_565 S
C483   H101    1.085   1_565 S
C485   O517    1.314   .     A
C485   C487    1.478   .     S
C485   O519    1.323   .     A
C486   O518    1.312   .     A
C486   C488    1.465   .     S
C486   O520    1.319   .     A
C487   C491    1.407   .     A
C487   C493    1.398   .     A
C488   C492    1.401   .     A
C488   C494    1.396   .     A
C489   C497    1.406   .     A
C489   C491    1.398   .     A
C490   C498    1.406   .     A
C490   C492    1.393   .     A
C490   F592    1.358   .     S
C491   H506    1.083   .     S
C492   H505    1.083   .     S
C493   C495    1.399   .     A
C493   F522    1.351   .     S
C494   F521    1.354   .     S
C494   C496    1.404   .     A
C495   C499    1.415   .     A
C495   C497    1.412   .     A
C496   C498    1.420   .     A
C496   C500    1.421   .     A
C497   C1093   1.396   .     S
C498   C1094   1.395   1_554 S
C499   C1112   1.414   .     S
C500   C1111   1.414   1_554 S
Cu501  O513    1.958   .     S
Cu501  Cu502   2.746   .     S
Cu501  O517    1.963   .     S
Cu501  O520    1.967   .     S
Cu501  O516    1.951   .     S
Cu501  N512    2.064   .     S
Cu502  O519    1.967   .     S
Cu502  O515    1.951   .     S
Cu502  N511    2.064   .     S
Cu502  O518    1.963   .     S
Cu502  O514    1.958   .     S
H503   C549    1.084   .     S
H510   C76     1.086   1_565 S
N511   N580    1.286   .     S
N511   C593    1.465   .     S
F523   C557    1.357   .     S
C525   H533    1.067   .     S
C525   H534    1.109   .     S
C526   C527    1.531   .     S
C526   H532    1.091   .     S
C526   C593    1.539   .     S
C526   H599    1.116   .     S
C527   H530    1.102   .     S
C527   H528    1.111   .     S
C527   H529    1.110   .     S
C535   H544    1.079   .     S
C535   H543    1.109   .     S
C535   N580    1.457   .     S
C535   C604    1.527   .     S
C536   H542    1.104   .     S
C536   H541    1.110   .     S
C536   C537    1.530   .     S
C537   H540    1.110   .     S
H538   C605    1.111   .     S
H539   C605    1.111   .     S
C545   O581    1.309   .     A
C545   O583    1.305   .     A
C545   C551    1.430   .     S
C546   O584    1.304   .     A
C546   O582    1.310   .     A
C546   C552    1.431   .     S
C547   C549    1.394   .     A
C547   H575    1.079   .     S
C547   C568    1.416   .     A
C548   H576    1.081   .     S
C548   C550    1.389   .     A
C548   C567    1.413   .     A
C549   C1177   1.396   1_554 S
C550   H572    1.084   .     S
C550   C1178   1.395   .     S
C551   C144    1.329   1_565 S
C551   H169    1.085   1_565 S
C553   O585    1.314   .     A
C553   C555    1.478   .     S
C553   O587    1.323   .     A
C554   O586    1.312   .     A
C554   C556    1.465   .     S
C554   O588    1.319   .     A
C555   C559    1.407   .     A
C555   C561    1.398   .     A
C556   C560    1.401   .     A
C556   C562    1.396   .     A
C557   C565    1.406   .     A
C557   C559    1.398   .     A
C558   C566    1.406   .     A
C558   C560    1.393   .     A
C558   F456    1.358   1_655 S
C559   H574    1.083   .     S
C560   H573    1.083   .     S
C561   C563    1.399   .     A
C561   F590    1.351   .     S
C562   F589    1.354   .     S
C562   C564    1.404   .     A
C563   C567    1.415   .     A
C563   C565    1.412   .     A
C564   C566    1.420   .     A
C564   C568    1.421   .     A
C565   C1161   1.396   .     S
C566   C1162   1.395   1_554 S
C567   C1180   1.414   .     S
C568   C1179   1.414   1_554 S
Cu569  O581    1.958   .     S
Cu569  Cu570   2.746   .     S
Cu569  O585    1.963   .     S
Cu569  O588    1.967   .     S
Cu569  O584    1.951   .     S
Cu569  N580    2.064   .     S
Cu570  O587    1.967   .     S
Cu570  O583    1.951   .     S
Cu570  N579    2.064   .     S
Cu570  O586    1.963   .     S
Cu570  O582    1.958   .     S
H571   C413    1.084   1_655 S
H578   C144    1.086   1_565 S
N579   N444    1.286   1_655 S
N579   C457    1.465   1_655 S
F591   C421    1.357   1_655 S
C593   H601    1.067   .     S
C593   H602    1.109   .     S
C594   C595    1.531   .     S
C594   H600    1.091   .     S
C594   C457    1.539   1_655 S
C594   H463    1.116   1_655 S
C595   H598    1.102   .     S
C595   H596    1.111   .     S
C595   H597    1.110   .     S
C603   H612    1.079   .     S
C603   H611    1.109   .     S
C603   N444    1.457   1_655 S
C603   C468    1.527   1_655 S
C604   H610    1.104   .     S
C604   H609    1.110   .     S
C604   C605    1.530   .     S
C605   H608    1.110   .     S
H606   C469    1.111   1_655 S
H607   C469    1.111   1_655 S
C613   O649    1.309   .     A
C613   O651    1.305   .     A
C613   C619    1.430   .     S
C614   O652    1.304   .     A
C614   O650    1.310   .     A
C614   C620    1.431   .     S
C615   C617    1.394   .     A
C615   H643    1.079   .     S
C615   C636    1.416   .     A
C616   H644    1.081   .     S
C616   C618    1.389   .     A
C616   C635    1.413   .     A
C617   H775    1.084   1_455 S
C618   H640    1.084   .     S
C618   C22     1.395   1_556 S
C619   C824    1.329   .     S
C619   H849    1.085   .     S
C620   C1027   1.329   1_545 S
C620   H1054   1.086   1_545 S
C621   O653    1.314   .     A
C621   C623    1.478   .     S
C621   O655    1.323   .     A
C622   O654    1.312   .     A
C622   C624    1.465   .     S
C622   O656    1.319   .     A
C623   C627    1.407   .     A
C623   C629    1.398   .     A
C624   C628    1.401   .     A
C624   C630    1.396   .     A
C625   C633    1.406   .     A
C625   C627    1.398   .     A
C625   F795    1.357   1_455 S
C626   C634    1.406   .     A
C626   C628    1.393   .     A
C626   F728    1.358   .     S
C627   H642    1.083   .     S
C628   H641    1.083   .     S
C629   C631    1.399   .     A
C629   F658    1.351   .     S
C630   F657    1.354   .     S
C630   C632    1.404   .     A
C631   C635    1.415   .     A
C631   C633    1.412   .     A
C632   C634    1.420   .     A
C632   C636    1.421   .     A
C633   C5      1.396   1_556 S
C635   C24     1.414   1_556 S
Cu637  O649    1.958   .     S
Cu637  Cu638   2.746   .     S
Cu637  O653    1.963   .     S
Cu637  O656    1.967   .     S
Cu637  O652    1.951   .     S
Cu637  N648    2.064   .     S
Cu638  O655    1.967   .     S
Cu638  O651    1.951   .     S
Cu638  N647    2.064   .     S
Cu638  O654    1.963   .     S
Cu638  O650    1.958   .     S
H639   C685    1.084   .     S
H645   C1027   1.085   1_545 S
H646   C824    1.086   .     S
N647   N716    1.286   .     S
N647   C729    1.465   .     S
N648   N783    1.286   1_455 S
N648   C807    1.457   1_455 S
F659   C693    1.357   .     S
F660   C762    1.358   1_455 S
C661   H669    1.067   .     S
C661   H670    1.109   .     S
C661   N783    1.465   1_455 S
C661   C798    1.539   1_455 S
C662   C663    1.531   .     S
C662   H668    1.091   .     S
C662   C729    1.539   .     S
C662   H735    1.116   .     S
C663   H666    1.102   .     S
C663   H664    1.111   .     S
C663   H665    1.110   .     S
H667   C798    1.116   1_455 S
C671   H680    1.079   .     S
C671   H679    1.109   .     S
C671   N716    1.457   .     S
C671   C740    1.527   .     S
C672   H678    1.104   .     S
C672   H677    1.110   .     S
C672   C673    1.530   .     S
C672   C807    1.527   1_455 S
C673   H676    1.110   .     S
C673   H810    1.111   1_455 S
C673   H811    1.111   1_455 S
H674   C741    1.111   .     S
H675   C741    1.111   .     S
C681   O717    1.309   .     A
C681   O719    1.305   .     A
C681   C687    1.430   .     S
C682   O720    1.304   .     A
C682   O718    1.310   .     A
C682   C688    1.431   .     S
C683   C685    1.394   .     A
C683   H711    1.079   .     S
C683   C704    1.416   .     A
C684   H712    1.081   .     S
C684   C686    1.389   .     A
C684   C703    1.413   .     A
C686   H708    1.084   .     S
C686   C90     1.395   1_556 S
C687   C892    1.329   .     S
C687   H917    1.085   .     S
C688   C1095   1.329   1_545 S
C688   H1122   1.086   1_545 S
C689   O721    1.314   .     A
C689   C691    1.478   .     S
C689   O723    1.323   .     A
C690   O722    1.312   .     A
C690   C692    1.465   .     S
C690   O724    1.319   .     A
C691   C695    1.407   .     A
C691   C697    1.398   .     A
C692   C696    1.401   .     A
C692   C698    1.396   .     A
C693   C701    1.406   .     A
C693   C695    1.398   .     A
C694   C702    1.406   .     A
C694   C696    1.393   .     A
C694   F796    1.358   .     S
C695   H710    1.083   .     S
C696   H709    1.083   .     S
C697   C699    1.399   .     A
C697   F726    1.351   .     S
C698   F725    1.354   .     S
C698   C700    1.404   .     A
C699   C703    1.415   .     A
C699   C701    1.412   .     A
C700   C702    1.420   .     A
C700   C704    1.421   .     A
C701   C73     1.396   1_556 S
C703   C92     1.414   1_556 S
Cu705  O717    1.958   .     S
Cu705  Cu706   2.746   .     S
Cu705  O721    1.963   .     S
Cu705  O724    1.967   .     S
Cu705  O720    1.951   .     S
Cu705  N716    2.064   .     S
Cu706  O723    1.967   .     S
Cu706  O719    1.951   .     S
Cu706  N715    2.064   .     S
Cu706  O722    1.963   .     S
Cu706  O718    1.958   .     S
H707   C753    1.084   .     S
H713   C1095   1.085   1_545 S
H714   C892    1.086   .     S
N715   N784    1.286   .     S
N715   C797    1.465   .     S
F727   C761    1.357   .     S
C729   H737    1.067   .     S
C729   H738    1.109   .     S
C730   C731    1.531   .     S
C730   H736    1.091   .     S
C730   C797    1.539   .     S
C730   H803    1.116   .     S
C731   H734    1.102   .     S
C731   H732    1.111   .     S
C731   H733    1.110   .     S
C739   H748    1.079   .     S
C739   H747    1.109   .     S
C739   N784    1.457   .     S
C739   C808    1.527   .     S
C740   H746    1.104   .     S
C740   H745    1.110   .     S
C740   C741    1.530   .     S
C741   H744    1.110   .     S
H742   C809    1.111   .     S
H743   C809    1.111   .     S
C749   O785    1.309   .     A
C749   O787    1.305   .     A
C749   C755    1.430   .     S
C750   O788    1.304   .     A
C750   O786    1.310   .     A
C750   C756    1.431   .     S
C751   C753    1.394   .     A
C751   H779    1.079   .     S
C751   C772    1.416   .     A
C752   H780    1.081   .     S
C752   C754    1.389   .     A
C752   C771    1.413   .     A
C754   H776    1.084   .     S
C754   C158    1.395   1_556 S
C755   C960    1.329   .     S
C755   H985    1.085   .     S
C756   C1163   1.329   1_545 S
C756   H1190   1.086   1_545 S
C757   O789    1.314   .     A
C757   C759    1.478   .     S
C757   O791    1.323   .     A
C758   O790    1.312   .     A
C758   C760    1.465   .     S
C758   O792    1.319   .     A
C759   C763    1.407   .     A
C759   C765    1.398   .     A
C760   C764    1.401   .     A
C760   C766    1.396   .     A
C761   C769    1.406   .     A
C761   C763    1.398   .     A
C762   C770    1.406   .     A
C762   C764    1.393   .     A
C762   F660    1.358   1_655 S
C763   H778    1.083   .     S
C764   H777    1.083   .     S
C765   C767    1.399   .     A
C765   F794    1.351   .     S
C766   F793    1.354   .     S
C766   C768    1.404   .     A
C767   C771    1.415   .     A
C767   C769    1.412   .     A
C768   C770    1.420   .     A
C768   C772    1.421   .     A
C769   C141    1.396   1_556 S
C771   C160    1.414   1_556 S
Cu773  O785    1.958   .     S
Cu773  Cu774   2.746   .     S
Cu773  O789    1.963   .     S
Cu773  O792    1.967   .     S
Cu773  O788    1.951   .     S
Cu773  N784    2.064   .     S
Cu774  O791    1.967   .     S
Cu774  O787    1.951   .     S
Cu774  N783    2.064   .     S
Cu774  O790    1.963   .     S
Cu774  O786    1.958   .     S
H775   C617    1.084   1_655 S
H781   C1163   1.085   1_545 S
H782   C960    1.086   .     S
N783   N648    1.286   1_655 S
N783   C661    1.465   1_655 S
F795   C625    1.357   1_655 S
C797   H805    1.067   .     S
C797   H806    1.109   .     S
C798   C799    1.531   .     S
C798   H804    1.091   .     S
C798   C661    1.539   1_655 S
C798   H667    1.116   1_655 S
C799   H802    1.102   .     S
C799   H800    1.111   .     S
C799   H801    1.110   .     S
C807   H816    1.079   .     S
C807   H815    1.109   .     S
C807   N648    1.457   1_655 S
C807   C672    1.527   1_655 S
C808   H814    1.104   .     S
C808   H813    1.110   .     S
C808   C809    1.530   .     S
C809   H812    1.110   .     S
H810   C673    1.111   1_655 S
H811   C673    1.111   1_655 S
C817   O853    1.309   .     A
C817   O855    1.305   .     A
C817   C823    1.430   .     S
C818   O856    1.304   .     A
C818   O854    1.310   .     A
C818   C824    1.431   .     S
C819   C821    1.394   .     A
C819   H847    1.079   .     S
C819   C840    1.416   .     A
C820   H848    1.081   .     S
C820   C822    1.389   .     A
C820   C839    1.413   .     A
C821   H979    1.084   1_455 S
C822   H844    1.084   .     S
C822   C226    1.395   1_556 S
C823   C1028   1.329   .     S
C823   H1053   1.085   .     S
C825   O857    1.314   .     A
C825   C827    1.478   .     S
C825   O859    1.323   .     A
C826   O858    1.312   .     A
C826   C828    1.465   .     S
C826   O860    1.319   .     A
C827   C831    1.407   .     A
C827   C833    1.398   .     A
C828   C832    1.401   .     A
C828   C834    1.396   .     A
C829   C837    1.406   .     A
C829   C831    1.398   .     A
C829   F999    1.357   1_455 S
C830   C838    1.406   .     A
C830   C832    1.393   .     A
C830   F932    1.358   .     S
C831   H846    1.083   .     S
C832   H845    1.083   .     S
C833   C835    1.399   .     A
C833   F862    1.351   .     S
C834   F861    1.354   .     S
C834   C836    1.404   .     A
C835   C839    1.415   .     A
C835   C837    1.412   .     A
C836   C838    1.420   .     A
C836   C840    1.421   .     A
C837   C209    1.396   1_556 S
C839   C228    1.414   1_556 S
Cu841  O853    1.958   .     S
Cu841  Cu842   2.746   .     S
Cu841  O857    1.963   .     S
Cu841  O860    1.967   .     S
Cu841  O856    1.951   .     S
Cu841  N852    2.064   .     S
Cu842  O859    1.967   .     S
Cu842  O855    1.951   .     S
Cu842  N851    2.064   .     S
Cu842  O858    1.963   .     S
Cu842  O854    1.958   .     S
H843   C889    1.084   .     S
H850   C1028   1.086   .     S
N851   N920    1.286   .     S
N851   C933    1.465   .     S
N852   N987    1.286   1_455 S
N852   C1011   1.457   1_455 S
F863   C897    1.357   .     S
F864   C966    1.358   1_455 S
C865   H873    1.067   .     S
C865   H874    1.109   .     S
C865   N987    1.465   1_455 S
C865   C1002   1.539   1_455 S
C866   C867    1.531   .     S
C866   H872    1.091   .     S
C866   C933    1.539   .     S
C866   H939    1.116   .     S
C867   H870    1.102   .     S
C867   H868    1.111   .     S
C867   H869    1.110   .     S
H871   C1002   1.116   1_455 S
C875   H884    1.079   .     S
C875   H883    1.109   .     S
C875   N920    1.457   .     S
C875   C944    1.527   .     S
C876   H882    1.104   .     S
C876   H881    1.110   .     S
C876   C877    1.530   .     S
C876   C1011   1.527   1_455 S
C877   H880    1.110   .     S
C877   H1014   1.111   1_455 S
C877   H1015   1.111   1_455 S
H878   C945    1.111   .     S
H879   C945    1.111   .     S
C885   O921    1.309   .     A
C885   O923    1.305   .     A
C885   C891    1.430   .     S
C886   O924    1.304   .     A
C886   O922    1.310   .     A
C886   C892    1.431   .     S
C887   C889    1.394   .     A
C887   H915    1.079   .     S
C887   C908    1.416   .     A
C888   H916    1.081   .     S
C888   C890    1.389   .     A
C888   C907    1.413   .     A
C890   H912    1.084   .     S
C890   C294    1.395   1_556 S
C891   C1096   1.329   .     S
C891   H1121   1.085   .     S
C893   O925    1.314   .     A
C893   C895    1.478   .     S
C893   O927    1.323   .     A
C894   O926    1.312   .     A
C894   C896    1.465   .     S
C894   O928    1.319   .     A
C895   C899    1.407   .     A
C895   C901    1.398   .     A
C896   C900    1.401   .     A
C896   C902    1.396   .     A
C897   C905    1.406   .     A
C897   C899    1.398   .     A
C898   C906    1.406   .     A
C898   C900    1.393   .     A
C898   F1000   1.358   .     S
C899   H914    1.083   .     S
C900   H913    1.083   .     S
C901   C903    1.399   .     A
C901   F930    1.351   .     S
C902   F929    1.354   .     S
C902   C904    1.404   .     A
C903   C907    1.415   .     A
C903   C905    1.412   .     A
C904   C906    1.420   .     A
C904   C908    1.421   .     A
C905   C277    1.396   1_556 S
C907   C296    1.414   1_556 S
Cu909  O921    1.958   .     S
Cu909  Cu910   2.746   .     S
Cu909  O925    1.963   .     S
Cu909  O928    1.967   .     S
Cu909  O924    1.951   .     S
Cu909  N920    2.064   .     S
Cu910  O927    1.967   .     S
Cu910  O923    1.951   .     S
Cu910  N919    2.064   .     S
Cu910  O926    1.963   .     S
Cu910  O922    1.958   .     S
H911   C957    1.084   .     S
H918   C1096   1.086   .     S
N919   N988    1.286   .     S
N919   C1001   1.465   .     S
F931   C965    1.357   .     S
C933   H941    1.067   .     S
C933   H942    1.109   .     S
C934   C935    1.531   .     S
C934   H940    1.091   .     S
C934   C1001   1.539   .     S
C934   H1007   1.116   .     S
C935   H938    1.102   .     S
C935   H936    1.111   .     S
C935   H937    1.110   .     S
C943   H952    1.079   .     S
C943   H951    1.109   .     S
C943   N988    1.457   .     S
C943   C1012   1.527   .     S
C944   H950    1.104   .     S
C944   H949    1.110   .     S
C944   C945    1.530   .     S
C945   H948    1.110   .     S
H946   C1013   1.111   .     S
H947   C1013   1.111   .     S
C953   O989    1.309   .     A
C953   O991    1.305   .     A
C953   C959    1.430   .     S
C954   O992    1.304   .     A
C954   O990    1.310   .     A
C954   C960    1.431   .     S
C955   C957    1.394   .     A
C955   H983    1.079   .     S
C955   C976    1.416   .     A
C956   H984    1.081   .     S
C956   C958    1.389   .     A
C956   C975    1.413   .     A
C958   H980    1.084   .     S
C958   C362    1.395   1_556 S
C959   C1164   1.329   .     S
C959   H1189   1.085   .     S
C961   O993    1.314   .     A
C961   C963    1.478   .     S
C961   O995    1.323   .     A
C962   O994    1.312   .     A
C962   C964    1.465   .     S
C962   O996    1.319   .     A
C963   C967    1.407   .     A
C963   C969    1.398   .     A
C964   C968    1.401   .     A
C964   C970    1.396   .     A
C965   C973    1.406   .     A
C965   C967    1.398   .     A
C966   C974    1.406   .     A
C966   C968    1.393   .     A
C966   F864    1.358   1_655 S
C967   H982    1.083   .     S
C968   H981    1.083   .     S
C969   C971    1.399   .     A
C969   F998    1.351   .     S
C970   F997    1.354   .     S
C970   C972    1.404   .     A
C971   C975    1.415   .     A
C971   C973    1.412   .     A
C972   C974    1.420   .     A
C972   C976    1.421   .     A
C973   C345    1.396   1_556 S
C975   C364    1.414   1_556 S
Cu977  O989    1.958   .     S
Cu977  Cu978   2.746   .     S
Cu977  O993    1.963   .     S
Cu977  O996    1.967   .     S
Cu977  O992    1.951   .     S
Cu977  N988    2.064   .     S
Cu978  O995    1.967   .     S
Cu978  O991    1.951   .     S
Cu978  N987    2.064   .     S
Cu978  O994    1.963   .     S
Cu978  O990    1.958   .     S
H979   C821    1.084   1_655 S
H986   C1164   1.086   .     S
N987   N852    1.286   1_655 S
N987   C865    1.465   1_655 S
F999   C829    1.357   1_655 S
C1001  H1009   1.067   .     S
C1001  H1010   1.109   .     S
C1002  C1003   1.531   .     S
C1002  H1008   1.091   .     S
C1002  C865    1.539   1_655 S
C1002  H871    1.116   1_655 S
C1003  H1006   1.102   .     S
C1003  H1004   1.111   .     S
C1003  H1005   1.110   .     S
C1011  H1020   1.079   .     S
C1011  H1019   1.109   .     S
C1011  N852    1.457   1_655 S
C1011  C876    1.527   1_655 S
C1012  H1018   1.104   .     S
C1012  H1017   1.110   .     S
C1012  C1013   1.530   .     S
C1013  H1016   1.110   .     S
H1014  C877    1.111   1_655 S
H1015  C877    1.111   1_655 S
C1021  O1057   1.309   .     A
C1021  O1059   1.305   .     A
C1021  C1027   1.430   .     S
C1022  O1060   1.304   .     A
C1022  O1058   1.310   .     A
C1022  C1028   1.431   .     S
C1023  C1025   1.394   .     A
C1023  H1051   1.079   .     S
C1023  C1044   1.416   .     A
C1024  H1052   1.081   .     S
C1024  C1026   1.389   .     A
C1024  C1043   1.413   .     A
C1025  H1183   1.084   1_455 S
C1026  H1048   1.084   .     S
C1026  C430    1.395   1_556 S
C1027  C620    1.329   1_565 S
C1027  H645    1.085   1_565 S
C1029  O1061   1.314   .     A
C1029  C1031   1.478   .     S
C1029  O1063   1.323   .     A
C1030  O1062   1.312   .     A
C1030  C1032   1.465   .     S
C1030  O1064   1.319   .     A
C1031  C1035   1.407   .     A
C1031  C1037   1.398   .     A
C1032  C1036   1.401   .     A
C1032  C1038   1.396   .     A
C1033  C1041   1.406   .     A
C1033  C1035   1.398   .     A
C1033  F1203   1.357   1_455 S
C1034  C1042   1.406   .     A
C1034  C1036   1.393   .     A
C1034  F1136   1.358   .     S
C1035  H1050   1.083   .     S
C1036  H1049   1.083   .     S
C1037  C1039   1.399   .     A
C1037  F1066   1.351   .     S
C1038  F1065   1.354   .     S
C1038  C1040   1.404   .     A
C1039  C1043   1.415   .     A
C1039  C1041   1.412   .     A
C1040  C1042   1.420   .     A
C1040  C1044   1.421   .     A
C1041  C413    1.396   1_556 S
C1043  C432    1.414   1_556 S
Cu1045 O1057   1.958   .     S
Cu1045 Cu1046  2.746   .     S
Cu1045 O1061   1.963   .     S
Cu1045 O1064   1.967   .     S
Cu1045 O1060   1.951   .     S
Cu1045 N1056   2.064   .     S
Cu1046 O1063   1.967   .     S
Cu1046 O1059   1.951   .     S
Cu1046 N1055   2.064   .     S
Cu1046 O1062   1.963   .     S
Cu1046 O1058   1.958   .     S
H1047  C1093   1.084   .     S
H1054  C620    1.086   1_565 S
N1055  N1124   1.286   .     S
N1055  C1137   1.465   .     S
N1056  N1191   1.286   1_455 S
N1056  C1215   1.457   1_455 S
F1067  C1101   1.357   .     S
F1068  C1170   1.358   1_455 S
C1069  H1077   1.067   .     S
C1069  H1078   1.109   .     S
C1069  N1191   1.465   1_455 S
C1069  C1206   1.539   1_455 S
C1070  C1071   1.531   .     S
C1070  H1076   1.091   .     S
C1070  C1137   1.539   .     S
C1070  H1143   1.116   .     S
C1071  H1074   1.102   .     S
C1071  H1072   1.111   .     S
C1071  H1073   1.110   .     S
H1075  C1206   1.116   1_455 S
C1079  H1088   1.079   .     S
C1079  H1087   1.109   .     S
C1079  N1124   1.457   .     S
C1079  C1148   1.527   .     S
C1080  H1086   1.104   .     S
C1080  H1085   1.110   .     S
C1080  C1081   1.530   .     S
C1080  C1215   1.527   1_455 S
C1081  H1084   1.110   .     S
C1081  H1218   1.111   1_455 S
C1081  H1219   1.111   1_455 S
H1082  C1149   1.111   .     S
H1083  C1149   1.111   .     S
C1089  O1125   1.309   .     A
C1089  O1127   1.305   .     A
C1089  C1095   1.430   .     S
C1090  O1128   1.304   .     A
C1090  O1126   1.310   .     A
C1090  C1096   1.431   .     S
C1091  C1093   1.394   .     A
C1091  H1119   1.079   .     S
C1091  C1112   1.416   .     A
C1092  H1120   1.081   .     S
C1092  C1094   1.389   .     A
C1092  C1111   1.413   .     A
C1094  H1116   1.084   .     S
C1094  C498    1.395   1_556 S
C1095  C688    1.329   1_565 S
C1095  H713    1.085   1_565 S
C1097  O1129   1.314   .     A
C1097  C1099   1.478   .     S
C1097  O1131   1.323   .     A
C1098  O1130   1.312   .     A
C1098  C1100   1.465   .     S
C1098  O1132   1.319   .     A
C1099  C1103   1.407   .     A
C1099  C1105   1.398   .     A
C1100  C1104   1.401   .     A
C1100  C1106   1.396   .     A
C1101  C1109   1.406   .     A
C1101  C1103   1.398   .     A
C1102  C1110   1.406   .     A
C1102  C1104   1.393   .     A
C1102  F1204   1.358   .     S
C1103  H1118   1.083   .     S
C1104  H1117   1.083   .     S
C1105  C1107   1.399   .     A
C1105  F1134   1.351   .     S
C1106  F1133   1.354   .     S
C1106  C1108   1.404   .     A
C1107  C1111   1.415   .     A
C1107  C1109   1.412   .     A
C1108  C1110   1.420   .     A
C1108  C1112   1.421   .     A
C1109  C481    1.396   1_556 S
C1111  C500    1.414   1_556 S
Cu1113 O1125   1.958   .     S
Cu1113 Cu1114  2.746   .     S
Cu1113 O1129   1.963   .     S
Cu1113 O1132   1.967   .     S
Cu1113 O1128   1.951   .     S
Cu1113 N1124   2.064   .     S
Cu1114 O1131   1.967   .     S
Cu1114 O1127   1.951   .     S
Cu1114 N1123   2.064   .     S
Cu1114 O1130   1.963   .     S
Cu1114 O1126   1.958   .     S
H1115  C1161   1.084   .     S
H1122  C688    1.086   1_565 S
N1123  N1192   1.286   .     S
N1123  C1205   1.465   .     S
F1135  C1169   1.357   .     S
C1137  H1145   1.067   .     S
C1137  H1146   1.109   .     S
C1138  C1139   1.531   .     S
C1138  H1144   1.091   .     S
C1138  C1205   1.539   .     S
C1138  H1211   1.116   .     S
C1139  H1142   1.102   .     S
C1139  H1140   1.111   .     S
C1139  H1141   1.110   .     S
C1147  H1156   1.079   .     S
C1147  H1155   1.109   .     S
C1147  N1192   1.457   .     S
C1147  C1216   1.527   .     S
C1148  H1154   1.104   .     S
C1148  H1153   1.110   .     S
C1148  C1149   1.530   .     S
C1149  H1152   1.110   .     S
H1150  C1217   1.111   .     S
H1151  C1217   1.111   .     S
C1157  O1193   1.309   .     A
C1157  O1195   1.305   .     A
C1157  C1163   1.430   .     S
C1158  O1196   1.304   .     A
C1158  O1194   1.310   .     A
C1158  C1164   1.431   .     S
C1159  C1161   1.394   .     A
C1159  H1187   1.079   .     S
C1159  C1180   1.416   .     A
C1160  H1188   1.081   .     S
C1160  C1162   1.389   .     A
C1160  C1179   1.413   .     A
C1162  H1184   1.084   .     S
C1162  C566    1.395   1_556 S
C1163  C756    1.329   1_565 S
C1163  H781    1.085   1_565 S
C1165  O1197   1.314   .     A
C1165  C1167   1.478   .     S
C1165  O1199   1.323   .     A
C1166  O1198   1.312   .     A
C1166  C1168   1.465   .     S
C1166  O1200   1.319   .     A
C1167  C1171   1.407   .     A
C1167  C1173   1.398   .     A
C1168  C1172   1.401   .     A
C1168  C1174   1.396   .     A
C1169  C1177   1.406   .     A
C1169  C1171   1.398   .     A
C1170  C1178   1.406   .     A
C1170  C1172   1.393   .     A
C1170  F1068   1.358   1_655 S
C1171  H1186   1.083   .     S
C1172  H1185   1.083   .     S
C1173  C1175   1.399   .     A
C1173  F1202   1.351   .     S
C1174  F1201   1.354   .     S
C1174  C1176   1.404   .     A
C1175  C1179   1.415   .     A
C1175  C1177   1.412   .     A
C1176  C1178   1.420   .     A
C1176  C1180   1.421   .     A
C1177  C549    1.396   1_556 S
C1179  C568    1.414   1_556 S
Cu1181 O1193   1.958   .     S
Cu1181 Cu1182  2.746   .     S
Cu1181 O1197   1.963   .     S
Cu1181 O1200   1.967   .     S
Cu1181 O1196   1.951   .     S
Cu1181 N1192   2.064   .     S
Cu1182 O1199   1.967   .     S
Cu1182 O1195   1.951   .     S
Cu1182 N1191   2.064   .     S
Cu1182 O1198   1.963   .     S
Cu1182 O1194   1.958   .     S
H1183  C1025   1.084   1_655 S
H1190  C756    1.086   1_565 S
N1191  N1056   1.286   1_655 S
N1191  C1069   1.465   1_655 S
F1203  C1033   1.357   1_655 S
C1205  H1213   1.067   .     S
C1205  H1214   1.109   .     S
C1206  C1207   1.531   .     S
C1206  H1212   1.091   .     S
C1206  C1069   1.539   1_655 S
C1206  H1075   1.116   1_655 S
C1207  H1210   1.102   .     S
C1207  H1208   1.111   .     S
C1207  H1209   1.110   .     S
C1215  H1224   1.079   .     S
C1215  H1223   1.109   .     S
C1215  N1056   1.457   1_655 S
C1215  C1080   1.527   1_655 S
C1216  H1222   1.104   .     S
C1216  H1221   1.110   .     S
C1216  C1217   1.530   .     S
C1217  H1220   1.110   .     S
H1218  C1081   1.111   1_655 S
H1219  C1081   1.111   1_655 S
