data_str_m2_o10_o17_pcu_sym.141
_audit_creation_date              2020-01-03
_audit_creation_method            'Materials Studio'
_symmetry_space_group_name_H-M    'P1'
_symmetry_Int_Tables_number       1
_symmetry_cell_setting            triclinic
loop_
_symmetry_equiv_pos_as_xyz
  x,y,z
_cell_length_a                    30.0722
_cell_length_b                    26.2735
_cell_length_c                    22.4775
_cell_angle_alpha                 103.0152
_cell_angle_beta                  95.0116
_cell_angle_gamma                 93.6496
loop_
_atom_site_label
_atom_site_type_symbol
_atom_site_fract_x
_atom_site_fract_y
_atom_site_fract_z
_atom_site_U_iso_or_equiv
_atom_site_adp_type
_atom_site_occupancy
C1     C     0.24790   0.06681   0.15135   0.00000  Uiso   1.00
C2     C     0.25210   0.26653   0.18198   0.00000  Uiso   1.00
C3     C     0.01449   0.12528   0.05757   0.00000  Uiso   1.00
C4     C     0.48551   0.20804   0.27577   0.00000  Uiso   1.00
C5     C     0.24163   0.01123   0.14419   0.00000  Uiso   1.00
C6     C     0.25837   0.32210   0.18914   0.00000  Uiso   1.00
C7     C     0.16442   0.16632   0.16697   0.00000  Uiso   1.00
C8     C     0.33557   0.16701   0.16637   0.00000  Uiso   1.00
C9     C     0.41170   0.18762   0.22046   0.00000  Uiso   1.00
C10    C     0.08830   0.14571   0.11287   0.00000  Uiso   1.00
C11    C     0.38393   0.16743   0.16590   0.00000  Uiso   1.00
C12    C     0.11607   0.16590   0.16743   0.00000  Uiso   1.00
C13    C     0.40230   0.14725   0.11127   0.00000  Uiso   1.00
C14    C     0.09770   0.18607   0.22207   0.00000  Uiso   1.00
C15    C     0.44875   0.14632   0.11064   0.00000  Uiso   1.00
C16    C     0.05125   0.18699   0.22269   0.00000  Uiso   1.00
C17    C     0.47667   0.16683   0.16621   0.00000  Uiso   1.00
C18    C     0.02333   0.16649   0.16712   0.00000  Uiso   1.00
C19    C     0.45794   0.18761   0.22102   0.00000  Uiso   1.00
C20    C     0.04206   0.14572   0.11232   0.00000  Uiso   1.00
C21    C     0.46805   0.12526   0.05626   0.00000  Uiso   1.00
C22    C     0.03195   0.20806   0.27708   0.00000  Uiso   1.00
Cu23   Cu    0.25500   0.17246   0.22813   0.00000  Uiso   1.00
Cu24   Cu    0.24499   0.16087   0.10521   0.00000  Uiso   1.00
H25    H     0.39733   0.20357   0.26264   0.00000  Uiso   1.00
H26    H     0.10267   0.12977   0.07069   0.00000  Uiso   1.00
H27    H     0.02922   0.10929   0.01567   0.00000  Uiso   1.00
H28    H     0.47077   0.22404   0.31767   0.00000  Uiso   1.00
N29    N     0.23744   0.15214   0.01284   0.00000  Uiso   1.00
N30    N     0.26255   0.18119   0.32049   0.00000  Uiso   1.00
O31    O     0.25325   0.09538   0.20659   0.00000  Uiso   1.00
O32    O     0.24674   0.23796   0.12674   0.00000  Uiso   1.00
O33    O     0.24480   0.08559   0.10279   0.00000  Uiso   1.00
O34    O     0.25520   0.24774   0.23055   0.00000  Uiso   1.00
O35    O     0.18935   0.17155   0.21857   0.00000  Uiso   1.00
O36    O     0.31064   0.16179   0.11476   0.00000  Uiso   1.00
O37    O     0.18090   0.16176   0.11477   0.00000  Uiso   1.00
O38    O     0.31910   0.17157   0.21857   0.00000  Uiso   1.00
H39    H     0.38013   0.13164   0.06958   0.00000  Uiso   1.00
H40    H     0.11986   0.20168   0.26376   0.00000  Uiso   1.00
C41    C     0.44120   0.10282   0.33194   0.00000  Uiso   1.00
N42    N     0.41974   0.08477   0.28581   0.00000  Uiso   1.00
C43    C     0.05880   0.23049   0.00140   0.00000  Uiso   1.00
N44    N     0.08026   0.24855   0.04754   0.00000  Uiso   1.00
C45    C     0.21279   0.31619   0.08984   0.00000  Uiso   1.00
N46    N     0.18988   0.29381   0.04658   0.00000  Uiso   1.00
C47    C     0.28721   0.01714   0.24348   0.00000  Uiso   1.00
N48    N     0.31013   0.03952   0.28674   0.00000  Uiso   1.00
C49    C     0.20531   0.11587   0.30911   0.00000  Uiso   1.00
N50    N     0.17828   0.08534   0.27887   0.00000  Uiso   1.00
C51    C     0.29469   0.21747   0.02422   0.00000  Uiso   1.00
N52    N     0.32171   0.24799   0.05446   0.00000  Uiso   1.00
C53    C     0.74790   0.06681   0.15135   0.00000  Uiso   1.00
C54    C     0.75210   0.26653   0.18198   0.00000  Uiso   1.00
C55    C     0.51449   0.12528   0.05757   0.00000  Uiso   1.00
C56    C     0.98551   0.20804   0.27577   0.00000  Uiso   1.00
C57    C     0.74163   0.01123   0.14419   0.00000  Uiso   1.00
C58    C     0.75837   0.32210   0.18914   0.00000  Uiso   1.00
C59    C     0.66442   0.16632   0.16697   0.00000  Uiso   1.00
C60    C     0.83557   0.16701   0.16637   0.00000  Uiso   1.00
C61    C     0.91170   0.18762   0.22046   0.00000  Uiso   1.00
C62    C     0.58830   0.14571   0.11287   0.00000  Uiso   1.00
C63    C     0.88393   0.16743   0.16590   0.00000  Uiso   1.00
C64    C     0.61607   0.16590   0.16743   0.00000  Uiso   1.00
C65    C     0.90230   0.14725   0.11127   0.00000  Uiso   1.00
C66    C     0.59770   0.18607   0.22207   0.00000  Uiso   1.00
C67    C     0.94875   0.14632   0.11064   0.00000  Uiso   1.00
C68    C     0.55125   0.18699   0.22269   0.00000  Uiso   1.00
C69    C     0.97667   0.16683   0.16621   0.00000  Uiso   1.00
C70    C     0.52333   0.16649   0.16712   0.00000  Uiso   1.00
C71    C     0.95794   0.18761   0.22102   0.00000  Uiso   1.00
C72    C     0.54206   0.14572   0.11232   0.00000  Uiso   1.00
C73    C     0.96805   0.12526   0.05626   0.00000  Uiso   1.00
C74    C     0.53195   0.20806   0.27708   0.00000  Uiso   1.00
Cu75   Cu    0.75500   0.17246   0.22813   0.00000  Uiso   1.00
Cu76   Cu    0.74499   0.16087   0.10521   0.00000  Uiso   1.00
H77    H     0.89733   0.20357   0.26264   0.00000  Uiso   1.00
H78    H     0.60267   0.12977   0.07069   0.00000  Uiso   1.00
H79    H     0.52922   0.10929   0.01567   0.00000  Uiso   1.00
H80    H     0.97077   0.22404   0.31767   0.00000  Uiso   1.00
N81    N     0.73744   0.15214   0.01284   0.00000  Uiso   1.00
N82    N     0.76255   0.18119   0.32049   0.00000  Uiso   1.00
O83    O     0.75325   0.09538   0.20659   0.00000  Uiso   1.00
O84    O     0.74674   0.23796   0.12674   0.00000  Uiso   1.00
O85    O     0.74480   0.08559   0.10279   0.00000  Uiso   1.00
O86    O     0.75520   0.24774   0.23055   0.00000  Uiso   1.00
O87    O     0.68935   0.17155   0.21857   0.00000  Uiso   1.00
O88    O     0.81064   0.16179   0.11476   0.00000  Uiso   1.00
O89    O     0.68090   0.16176   0.11477   0.00000  Uiso   1.00
O90    O     0.81910   0.17157   0.21857   0.00000  Uiso   1.00
H91    H     0.88013   0.13164   0.06958   0.00000  Uiso   1.00
H92    H     0.61986   0.20168   0.26376   0.00000  Uiso   1.00
C93    C     0.94120   0.10282   0.33194   0.00000  Uiso   1.00
N94    N     0.91974   0.08477   0.28581   0.00000  Uiso   1.00
C95    C     0.55880   0.23049   0.00140   0.00000  Uiso   1.00
N96    N     0.58026   0.24855   0.04754   0.00000  Uiso   1.00
C97    C     0.71279   0.31619   0.08984   0.00000  Uiso   1.00
N98    N     0.68988   0.29381   0.04658   0.00000  Uiso   1.00
C99    C     0.78721   0.01714   0.24348   0.00000  Uiso   1.00
N100   N     0.81013   0.03952   0.28674   0.00000  Uiso   1.00
C101   C     0.70531   0.11587   0.30911   0.00000  Uiso   1.00
N102   N     0.67828   0.08534   0.27887   0.00000  Uiso   1.00
C103   C     0.79469   0.21747   0.02422   0.00000  Uiso   1.00
N104   N     0.82171   0.24799   0.05446   0.00000  Uiso   1.00
C105   C     0.24790   0.40014   0.15135   0.00000  Uiso   1.00
C106   C     0.25210   0.59986   0.18198   0.00000  Uiso   1.00
C107   C     0.01449   0.45861   0.05757   0.00000  Uiso   1.00
C108   C     0.48551   0.54138   0.27577   0.00000  Uiso   1.00
C109   C     0.24163   0.34457   0.14419   0.00000  Uiso   1.00
C110   C     0.25837   0.65543   0.18914   0.00000  Uiso   1.00
C111   C     0.16442   0.49965   0.16697   0.00000  Uiso   1.00
C112   C     0.33557   0.50035   0.16637   0.00000  Uiso   1.00
C113   C     0.41170   0.52095   0.22046   0.00000  Uiso   1.00
C114   C     0.08830   0.47905   0.11287   0.00000  Uiso   1.00
C115   C     0.38393   0.50076   0.16590   0.00000  Uiso   1.00
C116   C     0.11607   0.49924   0.16743   0.00000  Uiso   1.00
C117   C     0.40230   0.48058   0.11127   0.00000  Uiso   1.00
C118   C     0.09770   0.51941   0.22207   0.00000  Uiso   1.00
C119   C     0.44875   0.47966   0.11064   0.00000  Uiso   1.00
C120   C     0.05125   0.52033   0.22269   0.00000  Uiso   1.00
C121   C     0.47667   0.50016   0.16621   0.00000  Uiso   1.00
C122   C     0.02333   0.49983   0.16712   0.00000  Uiso   1.00
C123   C     0.45794   0.52094   0.22102   0.00000  Uiso   1.00
C124   C     0.04206   0.47905   0.11232   0.00000  Uiso   1.00
C125   C     0.46805   0.45859   0.05626   0.00000  Uiso   1.00
C126   C     0.03195   0.54139   0.27708   0.00000  Uiso   1.00
Cu127  Cu    0.25500   0.50579   0.22813   0.00000  Uiso   1.00
Cu128  Cu    0.24499   0.49421   0.10521   0.00000  Uiso   1.00
H129   H     0.39733   0.53690   0.26264   0.00000  Uiso   1.00
H130   H     0.10267   0.46310   0.07069   0.00000  Uiso   1.00
H131   H     0.02922   0.44262   0.01567   0.00000  Uiso   1.00
H132   H     0.47077   0.55737   0.31767   0.00000  Uiso   1.00
N133   N     0.23744   0.48547   0.01284   0.00000  Uiso   1.00
N134   N     0.26255   0.51453   0.32049   0.00000  Uiso   1.00
O135   O     0.25325   0.42871   0.20659   0.00000  Uiso   1.00
O136   O     0.24674   0.57129   0.12674   0.00000  Uiso   1.00
O137   O     0.24480   0.41892   0.10279   0.00000  Uiso   1.00
O138   O     0.25520   0.58108   0.23055   0.00000  Uiso   1.00
O139   O     0.18935   0.50488   0.21857   0.00000  Uiso   1.00
O140   O     0.31064   0.49512   0.11476   0.00000  Uiso   1.00
O141   O     0.18090   0.49510   0.11477   0.00000  Uiso   1.00
O142   O     0.31910   0.50490   0.21857   0.00000  Uiso   1.00
H143   H     0.38013   0.46498   0.06958   0.00000  Uiso   1.00
H144   H     0.11986   0.53501   0.26376   0.00000  Uiso   1.00
C145   C     0.44120   0.43615   0.33194   0.00000  Uiso   1.00
N146   N     0.41974   0.41810   0.28581   0.00000  Uiso   1.00
C147   C     0.05880   0.56383   0.00140   0.00000  Uiso   1.00
N148   N     0.08026   0.58188   0.04754   0.00000  Uiso   1.00
C149   C     0.21279   0.64952   0.08984   0.00000  Uiso   1.00
N150   N     0.18988   0.62714   0.04658   0.00000  Uiso   1.00
C151   C     0.28721   0.35047   0.24348   0.00000  Uiso   1.00
N152   N     0.31013   0.37285   0.28674   0.00000  Uiso   1.00
C153   C     0.20531   0.44920   0.30911   0.00000  Uiso   1.00
N154   N     0.17828   0.41868   0.27887   0.00000  Uiso   1.00
C155   C     0.29469   0.55080   0.02422   0.00000  Uiso   1.00
N156   N     0.32171   0.58132   0.05446   0.00000  Uiso   1.00
C157   C     0.74790   0.40014   0.15135   0.00000  Uiso   1.00
C158   C     0.75210   0.59986   0.18198   0.00000  Uiso   1.00
C159   C     0.51449   0.45861   0.05757   0.00000  Uiso   1.00
C160   C     0.98551   0.54138   0.27577   0.00000  Uiso   1.00
C161   C     0.74163   0.34457   0.14419   0.00000  Uiso   1.00
C162   C     0.75837   0.65543   0.18914   0.00000  Uiso   1.00
C163   C     0.66442   0.49965   0.16697   0.00000  Uiso   1.00
C164   C     0.83557   0.50035   0.16637   0.00000  Uiso   1.00
C165   C     0.91170   0.52095   0.22046   0.00000  Uiso   1.00
C166   C     0.58830   0.47905   0.11287   0.00000  Uiso   1.00
C167   C     0.88393   0.50076   0.16590   0.00000  Uiso   1.00
C168   C     0.61607   0.49924   0.16743   0.00000  Uiso   1.00
C169   C     0.90230   0.48058   0.11127   0.00000  Uiso   1.00
C170   C     0.59770   0.51941   0.22207   0.00000  Uiso   1.00
C171   C     0.94875   0.47966   0.11064   0.00000  Uiso   1.00
C172   C     0.55125   0.52033   0.22269   0.00000  Uiso   1.00
C173   C     0.97667   0.50016   0.16621   0.00000  Uiso   1.00
C174   C     0.52333   0.49983   0.16712   0.00000  Uiso   1.00
C175   C     0.95794   0.52094   0.22102   0.00000  Uiso   1.00
C176   C     0.54206   0.47905   0.11232   0.00000  Uiso   1.00
C177   C     0.96805   0.45859   0.05626   0.00000  Uiso   1.00
C178   C     0.53195   0.54139   0.27708   0.00000  Uiso   1.00
Cu179  Cu    0.75500   0.50579   0.22813   0.00000  Uiso   1.00
Cu180  Cu    0.74499   0.49421   0.10521   0.00000  Uiso   1.00
H181   H     0.89733   0.53690   0.26264   0.00000  Uiso   1.00
H182   H     0.60267   0.46310   0.07069   0.00000  Uiso   1.00
H183   H     0.52922   0.44262   0.01567   0.00000  Uiso   1.00
H184   H     0.97077   0.55737   0.31767   0.00000  Uiso   1.00
N185   N     0.73744   0.48547   0.01284   0.00000  Uiso   1.00
N186   N     0.76255   0.51453   0.32049   0.00000  Uiso   1.00
O187   O     0.75325   0.42871   0.20659   0.00000  Uiso   1.00
O188   O     0.74674   0.57129   0.12674   0.00000  Uiso   1.00
O189   O     0.74480   0.41892   0.10279   0.00000  Uiso   1.00
O190   O     0.75520   0.58108   0.23055   0.00000  Uiso   1.00
O191   O     0.68935   0.50488   0.21857   0.00000  Uiso   1.00
O192   O     0.81064   0.49512   0.11476   0.00000  Uiso   1.00
O193   O     0.68090   0.49510   0.11477   0.00000  Uiso   1.00
O194   O     0.81910   0.50490   0.21857   0.00000  Uiso   1.00
H195   H     0.88013   0.46498   0.06958   0.00000  Uiso   1.00
H196   H     0.61986   0.53501   0.26376   0.00000  Uiso   1.00
C197   C     0.94120   0.43615   0.33194   0.00000  Uiso   1.00
N198   N     0.91974   0.41810   0.28581   0.00000  Uiso   1.00
C199   C     0.55880   0.56383   0.00140   0.00000  Uiso   1.00
N200   N     0.58026   0.58188   0.04754   0.00000  Uiso   1.00
C201   C     0.71279   0.64952   0.08984   0.00000  Uiso   1.00
N202   N     0.68988   0.62714   0.04658   0.00000  Uiso   1.00
C203   C     0.78721   0.35047   0.24348   0.00000  Uiso   1.00
N204   N     0.81013   0.37285   0.28674   0.00000  Uiso   1.00
C205   C     0.70531   0.44920   0.30911   0.00000  Uiso   1.00
N206   N     0.67828   0.41868   0.27887   0.00000  Uiso   1.00
C207   C     0.79469   0.55080   0.02422   0.00000  Uiso   1.00
N208   N     0.82171   0.58132   0.05446   0.00000  Uiso   1.00
C209   C     0.24790   0.73347   0.15135   0.00000  Uiso   1.00
C210   C     0.25210   0.93319   0.18198   0.00000  Uiso   1.00
C211   C     0.01449   0.79194   0.05757   0.00000  Uiso   1.00
C212   C     0.48551   0.87471   0.27577   0.00000  Uiso   1.00
C213   C     0.24163   0.67790   0.14419   0.00000  Uiso   1.00
C214   C     0.25837   0.98877   0.18914   0.00000  Uiso   1.00
C215   C     0.16442   0.83299   0.16697   0.00000  Uiso   1.00
C216   C     0.33557   0.83368   0.16637   0.00000  Uiso   1.00
C217   C     0.41170   0.85429   0.22046   0.00000  Uiso   1.00
C218   C     0.08830   0.81238   0.11287   0.00000  Uiso   1.00
C219   C     0.38393   0.83409   0.16590   0.00000  Uiso   1.00
C220   C     0.11607   0.83257   0.16743   0.00000  Uiso   1.00
C221   C     0.40230   0.81392   0.11127   0.00000  Uiso   1.00
C222   C     0.09770   0.85274   0.22207   0.00000  Uiso   1.00
C223   C     0.44875   0.81299   0.11064   0.00000  Uiso   1.00
C224   C     0.05125   0.85366   0.22269   0.00000  Uiso   1.00
C225   C     0.47667   0.83350   0.16621   0.00000  Uiso   1.00
C226   C     0.02333   0.83316   0.16712   0.00000  Uiso   1.00
C227   C     0.45794   0.85427   0.22102   0.00000  Uiso   1.00
C228   C     0.04206   0.81238   0.11232   0.00000  Uiso   1.00
C229   C     0.46805   0.79192   0.05626   0.00000  Uiso   1.00
C230   C     0.03195   0.87472   0.27708   0.00000  Uiso   1.00
Cu231  Cu    0.25500   0.83913   0.22813   0.00000  Uiso   1.00
Cu232  Cu    0.24499   0.82754   0.10521   0.00000  Uiso   1.00
H233   H     0.39733   0.87023   0.26264   0.00000  Uiso   1.00
H234   H     0.10267   0.79644   0.07069   0.00000  Uiso   1.00
H235   H     0.02922   0.77595   0.01567   0.00000  Uiso   1.00
H236   H     0.47077   0.89070   0.31767   0.00000  Uiso   1.00
N237   N     0.23744   0.81881   0.01284   0.00000  Uiso   1.00
N238   N     0.26255   0.84786   0.32049   0.00000  Uiso   1.00
O239   O     0.25325   0.76204   0.20659   0.00000  Uiso   1.00
O240   O     0.24674   0.90462   0.12674   0.00000  Uiso   1.00
O241   O     0.24480   0.75226   0.10279   0.00000  Uiso   1.00
O242   O     0.25520   0.91441   0.23055   0.00000  Uiso   1.00
O243   O     0.18935   0.83821   0.21857   0.00000  Uiso   1.00
O244   O     0.31064   0.82845   0.11476   0.00000  Uiso   1.00
O245   O     0.18090   0.82843   0.11477   0.00000  Uiso   1.00
O246   O     0.31910   0.83824   0.21857   0.00000  Uiso   1.00
H247   H     0.38013   0.79831   0.06958   0.00000  Uiso   1.00
H248   H     0.11986   0.86835   0.26376   0.00000  Uiso   1.00
C249   C     0.44120   0.76948   0.33194   0.00000  Uiso   1.00
N250   N     0.41974   0.75143   0.28581   0.00000  Uiso   1.00
C251   C     0.05880   0.89716   0.00140   0.00000  Uiso   1.00
N252   N     0.08026   0.91521   0.04754   0.00000  Uiso   1.00
C253   C     0.21279   0.98286   0.08984   0.00000  Uiso   1.00
N254   N     0.18988   0.96048   0.04658   0.00000  Uiso   1.00
C255   C     0.28721   0.68381   0.24348   0.00000  Uiso   1.00
N256   N     0.31013   0.70619   0.28674   0.00000  Uiso   1.00
C257   C     0.20531   0.78253   0.30911   0.00000  Uiso   1.00
N258   N     0.17828   0.75201   0.27887   0.00000  Uiso   1.00
C259   C     0.29469   0.88413   0.02422   0.00000  Uiso   1.00
N260   N     0.32171   0.91466   0.05446   0.00000  Uiso   1.00
C261   C     0.74790   0.73347   0.15135   0.00000  Uiso   1.00
C262   C     0.75210   0.93319   0.18198   0.00000  Uiso   1.00
C263   C     0.51449   0.79194   0.05757   0.00000  Uiso   1.00
C264   C     0.98551   0.87471   0.27577   0.00000  Uiso   1.00
C265   C     0.74163   0.67790   0.14419   0.00000  Uiso   1.00
C266   C     0.75837   0.98877   0.18914   0.00000  Uiso   1.00
C267   C     0.66442   0.83299   0.16697   0.00000  Uiso   1.00
C268   C     0.83557   0.83368   0.16637   0.00000  Uiso   1.00
C269   C     0.91170   0.85429   0.22046   0.00000  Uiso   1.00
C270   C     0.58830   0.81238   0.11287   0.00000  Uiso   1.00
C271   C     0.88393   0.83409   0.16590   0.00000  Uiso   1.00
C272   C     0.61607   0.83257   0.16743   0.00000  Uiso   1.00
C273   C     0.90230   0.81392   0.11127   0.00000  Uiso   1.00
C274   C     0.59770   0.85274   0.22207   0.00000  Uiso   1.00
C275   C     0.94875   0.81299   0.11064   0.00000  Uiso   1.00
C276   C     0.55125   0.85366   0.22269   0.00000  Uiso   1.00
C277   C     0.97667   0.83350   0.16621   0.00000  Uiso   1.00
C278   C     0.52333   0.83316   0.16712   0.00000  Uiso   1.00
C279   C     0.95794   0.85427   0.22102   0.00000  Uiso   1.00
C280   C     0.54206   0.81238   0.11232   0.00000  Uiso   1.00
C281   C     0.96805   0.79192   0.05626   0.00000  Uiso   1.00
C282   C     0.53195   0.87472   0.27708   0.00000  Uiso   1.00
Cu283  Cu    0.75500   0.83913   0.22813   0.00000  Uiso   1.00
Cu284  Cu    0.74499   0.82754   0.10521   0.00000  Uiso   1.00
H285   H     0.89733   0.87023   0.26264   0.00000  Uiso   1.00
H286   H     0.60267   0.79644   0.07069   0.00000  Uiso   1.00
H287   H     0.52922   0.77595   0.01567   0.00000  Uiso   1.00
H288   H     0.97077   0.89070   0.31767   0.00000  Uiso   1.00
N289   N     0.73744   0.81881   0.01284   0.00000  Uiso   1.00
N290   N     0.76255   0.84786   0.32049   0.00000  Uiso   1.00
O291   O     0.75325   0.76204   0.20659   0.00000  Uiso   1.00
O292   O     0.74674   0.90462   0.12674   0.00000  Uiso   1.00
O293   O     0.74480   0.75226   0.10279   0.00000  Uiso   1.00
O294   O     0.75520   0.91441   0.23055   0.00000  Uiso   1.00
O295   O     0.68935   0.83821   0.21857   0.00000  Uiso   1.00
O296   O     0.81064   0.82845   0.11476   0.00000  Uiso   1.00
O297   O     0.68090   0.82843   0.11477   0.00000  Uiso   1.00
O298   O     0.81910   0.83824   0.21857   0.00000  Uiso   1.00
H299   H     0.88013   0.79831   0.06958   0.00000  Uiso   1.00
H300   H     0.61986   0.86835   0.26376   0.00000  Uiso   1.00
C301   C     0.94120   0.76948   0.33194   0.00000  Uiso   1.00
N302   N     0.91974   0.75143   0.28581   0.00000  Uiso   1.00
C303   C     0.55880   0.89716   0.00140   0.00000  Uiso   1.00
N304   N     0.58026   0.91521   0.04754   0.00000  Uiso   1.00
C305   C     0.71279   0.98286   0.08984   0.00000  Uiso   1.00
N306   N     0.68988   0.96048   0.04658   0.00000  Uiso   1.00
C307   C     0.78721   0.68381   0.24348   0.00000  Uiso   1.00
N308   N     0.81013   0.70619   0.28674   0.00000  Uiso   1.00
C309   C     0.70531   0.78253   0.30911   0.00000  Uiso   1.00
N310   N     0.67828   0.75201   0.27887   0.00000  Uiso   1.00
C311   C     0.79469   0.88413   0.02422   0.00000  Uiso   1.00
N312   N     0.82171   0.91466   0.05446   0.00000  Uiso   1.00
C313   C     0.24790   0.06681   0.48468   0.00000  Uiso   1.00
C314   C     0.25210   0.26653   0.51532   0.00000  Uiso   1.00
C315   C     0.01449   0.12528   0.39090   0.00000  Uiso   1.00
C316   C     0.48551   0.20804   0.60910   0.00000  Uiso   1.00
C317   C     0.24163   0.01123   0.47753   0.00000  Uiso   1.00
C318   C     0.25837   0.32210   0.52247   0.00000  Uiso   1.00
C319   C     0.16442   0.16632   0.50030   0.00000  Uiso   1.00
C320   C     0.33557   0.16701   0.49970   0.00000  Uiso   1.00
C321   C     0.41170   0.18762   0.55380   0.00000  Uiso   1.00
C322   C     0.08830   0.14571   0.44620   0.00000  Uiso   1.00
C323   C     0.38393   0.16743   0.49923   0.00000  Uiso   1.00
C324   C     0.11607   0.16590   0.50077   0.00000  Uiso   1.00
C325   C     0.40230   0.14725   0.44460   0.00000  Uiso   1.00
C326   C     0.09770   0.18607   0.55540   0.00000  Uiso   1.00
C327   C     0.44875   0.14632   0.44398   0.00000  Uiso   1.00
C328   C     0.05125   0.18699   0.55603   0.00000  Uiso   1.00
C329   C     0.47667   0.16683   0.49955   0.00000  Uiso   1.00
C330   C     0.02333   0.16649   0.50045   0.00000  Uiso   1.00
C331   C     0.45794   0.18761   0.55435   0.00000  Uiso   1.00
C332   C     0.04206   0.14572   0.44565   0.00000  Uiso   1.00
C333   C     0.46805   0.12526   0.38959   0.00000  Uiso   1.00
C334   C     0.03195   0.20806   0.61041   0.00000  Uiso   1.00
Cu335  Cu    0.25500   0.17246   0.56146   0.00000  Uiso   1.00
Cu336  Cu    0.24499   0.16087   0.43854   0.00000  Uiso   1.00
H337   H     0.39733   0.20357   0.59598   0.00000  Uiso   1.00
H338   H     0.10267   0.12977   0.40402   0.00000  Uiso   1.00
H339   H     0.02922   0.10929   0.34900   0.00000  Uiso   1.00
H340   H     0.47077   0.22404   0.65100   0.00000  Uiso   1.00
N341   N     0.23744   0.15214   0.34617   0.00000  Uiso   1.00
N342   N     0.26255   0.18119   0.65383   0.00000  Uiso   1.00
O343   O     0.25325   0.09538   0.53992   0.00000  Uiso   1.00
O344   O     0.24674   0.23796   0.46008   0.00000  Uiso   1.00
O345   O     0.24480   0.08559   0.43612   0.00000  Uiso   1.00
O346   O     0.25520   0.24774   0.56388   0.00000  Uiso   1.00
O347   O     0.18935   0.17155   0.55191   0.00000  Uiso   1.00
O348   O     0.31064   0.16179   0.44809   0.00000  Uiso   1.00
O349   O     0.18090   0.16176   0.44810   0.00000  Uiso   1.00
O350   O     0.31910   0.17157   0.55190   0.00000  Uiso   1.00
H351   H     0.38013   0.13164   0.40291   0.00000  Uiso   1.00
H352   H     0.11986   0.20168   0.59709   0.00000  Uiso   1.00
C353   C     0.44120   0.10282   0.66528   0.00000  Uiso   1.00
N354   N     0.41974   0.08477   0.61914   0.00000  Uiso   1.00
C355   C     0.05880   0.23049   0.33473   0.00000  Uiso   1.00
N356   N     0.08026   0.24855   0.38088   0.00000  Uiso   1.00
C357   C     0.21279   0.31619   0.42318   0.00000  Uiso   1.00
N358   N     0.18988   0.29381   0.37991   0.00000  Uiso   1.00
C359   C     0.28721   0.01714   0.57681   0.00000  Uiso   1.00
N360   N     0.31013   0.03952   0.62007   0.00000  Uiso   1.00
C361   C     0.20531   0.11587   0.64245   0.00000  Uiso   1.00
N362   N     0.17828   0.08534   0.61221   0.00000  Uiso   1.00
C363   C     0.29469   0.21747   0.35755   0.00000  Uiso   1.00
N364   N     0.32171   0.24799   0.38779   0.00000  Uiso   1.00
C365   C     0.74790   0.06681   0.48468   0.00000  Uiso   1.00
C366   C     0.75210   0.26653   0.51532   0.00000  Uiso   1.00
C367   C     0.51449   0.12528   0.39090   0.00000  Uiso   1.00
C368   C     0.98551   0.20804   0.60910   0.00000  Uiso   1.00
C369   C     0.74163   0.01123   0.47753   0.00000  Uiso   1.00
C370   C     0.75837   0.32210   0.52247   0.00000  Uiso   1.00
C371   C     0.66442   0.16632   0.50030   0.00000  Uiso   1.00
C372   C     0.83557   0.16701   0.49970   0.00000  Uiso   1.00
C373   C     0.91170   0.18762   0.55380   0.00000  Uiso   1.00
C374   C     0.58830   0.14571   0.44620   0.00000  Uiso   1.00
C375   C     0.88393   0.16743   0.49923   0.00000  Uiso   1.00
C376   C     0.61607   0.16590   0.50077   0.00000  Uiso   1.00
C377   C     0.90230   0.14725   0.44460   0.00000  Uiso   1.00
C378   C     0.59770   0.18607   0.55540   0.00000  Uiso   1.00
C379   C     0.94875   0.14632   0.44398   0.00000  Uiso   1.00
C380   C     0.55125   0.18699   0.55603   0.00000  Uiso   1.00
C381   C     0.97667   0.16683   0.49955   0.00000  Uiso   1.00
C382   C     0.52333   0.16649   0.50045   0.00000  Uiso   1.00
C383   C     0.95794   0.18761   0.55435   0.00000  Uiso   1.00
C384   C     0.54206   0.14572   0.44565   0.00000  Uiso   1.00
C385   C     0.96805   0.12526   0.38959   0.00000  Uiso   1.00
C386   C     0.53195   0.20806   0.61041   0.00000  Uiso   1.00
Cu387  Cu    0.75500   0.17246   0.56146   0.00000  Uiso   1.00
Cu388  Cu    0.74499   0.16087   0.43854   0.00000  Uiso   1.00
H389   H     0.89733   0.20357   0.59598   0.00000  Uiso   1.00
H390   H     0.60267   0.12977   0.40402   0.00000  Uiso   1.00
H391   H     0.52922   0.10929   0.34900   0.00000  Uiso   1.00
H392   H     0.97077   0.22404   0.65100   0.00000  Uiso   1.00
N393   N     0.73744   0.15214   0.34617   0.00000  Uiso   1.00
N394   N     0.76255   0.18119   0.65383   0.00000  Uiso   1.00
O395   O     0.75325   0.09538   0.53992   0.00000  Uiso   1.00
O396   O     0.74674   0.23796   0.46008   0.00000  Uiso   1.00
O397   O     0.74480   0.08559   0.43612   0.00000  Uiso   1.00
O398   O     0.75520   0.24774   0.56388   0.00000  Uiso   1.00
O399   O     0.68935   0.17155   0.55191   0.00000  Uiso   1.00
O400   O     0.81064   0.16179   0.44809   0.00000  Uiso   1.00
O401   O     0.68090   0.16176   0.44810   0.00000  Uiso   1.00
O402   O     0.81910   0.17157   0.55190   0.00000  Uiso   1.00
H403   H     0.88013   0.13164   0.40291   0.00000  Uiso   1.00
H404   H     0.61986   0.20168   0.59709   0.00000  Uiso   1.00
C405   C     0.94120   0.10282   0.66528   0.00000  Uiso   1.00
N406   N     0.91974   0.08477   0.61914   0.00000  Uiso   1.00
C407   C     0.55880   0.23049   0.33473   0.00000  Uiso   1.00
N408   N     0.58026   0.24855   0.38088   0.00000  Uiso   1.00
C409   C     0.71279   0.31619   0.42318   0.00000  Uiso   1.00
N410   N     0.68988   0.29381   0.37991   0.00000  Uiso   1.00
C411   C     0.78721   0.01714   0.57681   0.00000  Uiso   1.00
N412   N     0.81013   0.03952   0.62007   0.00000  Uiso   1.00
C413   C     0.70531   0.11587   0.64245   0.00000  Uiso   1.00
N414   N     0.67828   0.08534   0.61221   0.00000  Uiso   1.00
C415   C     0.79469   0.21747   0.35755   0.00000  Uiso   1.00
N416   N     0.82171   0.24799   0.38779   0.00000  Uiso   1.00
C417   C     0.24790   0.40014   0.48468   0.00000  Uiso   1.00
C418   C     0.25210   0.59986   0.51532   0.00000  Uiso   1.00
C419   C     0.01449   0.45861   0.39090   0.00000  Uiso   1.00
C420   C     0.48551   0.54138   0.60910   0.00000  Uiso   1.00
C421   C     0.24163   0.34457   0.47753   0.00000  Uiso   1.00
C422   C     0.25837   0.65543   0.52247   0.00000  Uiso   1.00
C423   C     0.16442   0.49965   0.50030   0.00000  Uiso   1.00
C424   C     0.33557   0.50035   0.49970   0.00000  Uiso   1.00
C425   C     0.41170   0.52095   0.55380   0.00000  Uiso   1.00
C426   C     0.08830   0.47905   0.44620   0.00000  Uiso   1.00
C427   C     0.38393   0.50076   0.49923   0.00000  Uiso   1.00
C428   C     0.11607   0.49924   0.50077   0.00000  Uiso   1.00
C429   C     0.40230   0.48058   0.44460   0.00000  Uiso   1.00
C430   C     0.09770   0.51941   0.55540   0.00000  Uiso   1.00
C431   C     0.44875   0.47966   0.44398   0.00000  Uiso   1.00
C432   C     0.05125   0.52033   0.55603   0.00000  Uiso   1.00
C433   C     0.47667   0.50016   0.49955   0.00000  Uiso   1.00
C434   C     0.02333   0.49983   0.50045   0.00000  Uiso   1.00
C435   C     0.45794   0.52094   0.55435   0.00000  Uiso   1.00
C436   C     0.04206   0.47905   0.44565   0.00000  Uiso   1.00
C437   C     0.46805   0.45859   0.38959   0.00000  Uiso   1.00
C438   C     0.03195   0.54139   0.61041   0.00000  Uiso   1.00
Cu439  Cu    0.25500   0.50579   0.56146   0.00000  Uiso   1.00
Cu440  Cu    0.24499   0.49421   0.43854   0.00000  Uiso   1.00
H441   H     0.39733   0.53690   0.59598   0.00000  Uiso   1.00
H442   H     0.10267   0.46310   0.40402   0.00000  Uiso   1.00
H443   H     0.02922   0.44262   0.34900   0.00000  Uiso   1.00
H444   H     0.47077   0.55737   0.65100   0.00000  Uiso   1.00
N445   N     0.23744   0.48547   0.34617   0.00000  Uiso   1.00
N446   N     0.26255   0.51453   0.65383   0.00000  Uiso   1.00
O447   O     0.25325   0.42871   0.53992   0.00000  Uiso   1.00
O448   O     0.24674   0.57129   0.46008   0.00000  Uiso   1.00
O449   O     0.24480   0.41892   0.43612   0.00000  Uiso   1.00
O450   O     0.25520   0.58108   0.56388   0.00000  Uiso   1.00
O451   O     0.18935   0.50488   0.55191   0.00000  Uiso   1.00
O452   O     0.31064   0.49512   0.44809   0.00000  Uiso   1.00
O453   O     0.18090   0.49510   0.44810   0.00000  Uiso   1.00
O454   O     0.31910   0.50490   0.55190   0.00000  Uiso   1.00
H455   H     0.38013   0.46498   0.40291   0.00000  Uiso   1.00
H456   H     0.11986   0.53501   0.59709   0.00000  Uiso   1.00
C457   C     0.44120   0.43615   0.66528   0.00000  Uiso   1.00
N458   N     0.41974   0.41810   0.61914   0.00000  Uiso   1.00
C459   C     0.05880   0.56383   0.33473   0.00000  Uiso   1.00
N460   N     0.08026   0.58188   0.38088   0.00000  Uiso   1.00
C461   C     0.21279   0.64952   0.42318   0.00000  Uiso   1.00
N462   N     0.18988   0.62714   0.37991   0.00000  Uiso   1.00
C463   C     0.28721   0.35047   0.57681   0.00000  Uiso   1.00
N464   N     0.31013   0.37285   0.62007   0.00000  Uiso   1.00
C465   C     0.20531   0.44920   0.64245   0.00000  Uiso   1.00
N466   N     0.17828   0.41868   0.61221   0.00000  Uiso   1.00
C467   C     0.29469   0.55080   0.35755   0.00000  Uiso   1.00
N468   N     0.32171   0.58132   0.38779   0.00000  Uiso   1.00
C469   C     0.74790   0.40014   0.48468   0.00000  Uiso   1.00
C470   C     0.75210   0.59986   0.51532   0.00000  Uiso   1.00
C471   C     0.51449   0.45861   0.39090   0.00000  Uiso   1.00
C472   C     0.98551   0.54138   0.60910   0.00000  Uiso   1.00
C473   C     0.74163   0.34457   0.47753   0.00000  Uiso   1.00
C474   C     0.75837   0.65543   0.52247   0.00000  Uiso   1.00
C475   C     0.66442   0.49965   0.50030   0.00000  Uiso   1.00
C476   C     0.83557   0.50035   0.49970   0.00000  Uiso   1.00
C477   C     0.91170   0.52095   0.55380   0.00000  Uiso   1.00
C478   C     0.58830   0.47905   0.44620   0.00000  Uiso   1.00
C479   C     0.88393   0.50076   0.49923   0.00000  Uiso   1.00
C480   C     0.61607   0.49924   0.50077   0.00000  Uiso   1.00
C481   C     0.90230   0.48058   0.44460   0.00000  Uiso   1.00
C482   C     0.59770   0.51941   0.55540   0.00000  Uiso   1.00
C483   C     0.94875   0.47966   0.44398   0.00000  Uiso   1.00
C484   C     0.55125   0.52033   0.55603   0.00000  Uiso   1.00
C485   C     0.97667   0.50016   0.49955   0.00000  Uiso   1.00
C486   C     0.52333   0.49983   0.50045   0.00000  Uiso   1.00
C487   C     0.95794   0.52094   0.55435   0.00000  Uiso   1.00
C488   C     0.54206   0.47905   0.44565   0.00000  Uiso   1.00
C489   C     0.96805   0.45859   0.38959   0.00000  Uiso   1.00
C490   C     0.53195   0.54139   0.61041   0.00000  Uiso   1.00
Cu491  Cu    0.75500   0.50579   0.56146   0.00000  Uiso   1.00
Cu492  Cu    0.74499   0.49421   0.43854   0.00000  Uiso   1.00
H493   H     0.89733   0.53690   0.59598   0.00000  Uiso   1.00
H494   H     0.60267   0.46310   0.40402   0.00000  Uiso   1.00
H495   H     0.52922   0.44262   0.34900   0.00000  Uiso   1.00
H496   H     0.97077   0.55737   0.65100   0.00000  Uiso   1.00
N497   N     0.73744   0.48547   0.34617   0.00000  Uiso   1.00
N498   N     0.76255   0.51453   0.65383   0.00000  Uiso   1.00
O499   O     0.75325   0.42871   0.53992   0.00000  Uiso   1.00
O500   O     0.74674   0.57129   0.46008   0.00000  Uiso   1.00
O501   O     0.74480   0.41892   0.43612   0.00000  Uiso   1.00
O502   O     0.75520   0.58108   0.56388   0.00000  Uiso   1.00
O503   O     0.68935   0.50488   0.55191   0.00000  Uiso   1.00
O504   O     0.81064   0.49512   0.44809   0.00000  Uiso   1.00
O505   O     0.68090   0.49510   0.44810   0.00000  Uiso   1.00
O506   O     0.81910   0.50490   0.55190   0.00000  Uiso   1.00
H507   H     0.88013   0.46498   0.40291   0.00000  Uiso   1.00
H508   H     0.61986   0.53501   0.59709   0.00000  Uiso   1.00
C509   C     0.94120   0.43615   0.66528   0.00000  Uiso   1.00
N510   N     0.91974   0.41810   0.61914   0.00000  Uiso   1.00
C511   C     0.55880   0.56383   0.33473   0.00000  Uiso   1.00
N512   N     0.58026   0.58188   0.38088   0.00000  Uiso   1.00
C513   C     0.71279   0.64952   0.42318   0.00000  Uiso   1.00
N514   N     0.68988   0.62714   0.37991   0.00000  Uiso   1.00
C515   C     0.78721   0.35047   0.57681   0.00000  Uiso   1.00
N516   N     0.81013   0.37285   0.62007   0.00000  Uiso   1.00
C517   C     0.70531   0.44920   0.64245   0.00000  Uiso   1.00
N518   N     0.67828   0.41868   0.61221   0.00000  Uiso   1.00
C519   C     0.79469   0.55080   0.35755   0.00000  Uiso   1.00
N520   N     0.82171   0.58132   0.38779   0.00000  Uiso   1.00
C521   C     0.24790   0.73347   0.48468   0.00000  Uiso   1.00
C522   C     0.25210   0.93319   0.51532   0.00000  Uiso   1.00
C523   C     0.01449   0.79194   0.39090   0.00000  Uiso   1.00
C524   C     0.48551   0.87471   0.60910   0.00000  Uiso   1.00
C525   C     0.24163   0.67790   0.47753   0.00000  Uiso   1.00
C526   C     0.25837   0.98877   0.52247   0.00000  Uiso   1.00
C527   C     0.16442   0.83299   0.50030   0.00000  Uiso   1.00
C528   C     0.33557   0.83368   0.49970   0.00000  Uiso   1.00
C529   C     0.41170   0.85429   0.55380   0.00000  Uiso   1.00
C530   C     0.08830   0.81238   0.44620   0.00000  Uiso   1.00
C531   C     0.38393   0.83409   0.49923   0.00000  Uiso   1.00
C532   C     0.11607   0.83257   0.50077   0.00000  Uiso   1.00
C533   C     0.40230   0.81392   0.44460   0.00000  Uiso   1.00
C534   C     0.09770   0.85274   0.55540   0.00000  Uiso   1.00
C535   C     0.44875   0.81299   0.44398   0.00000  Uiso   1.00
C536   C     0.05125   0.85366   0.55603   0.00000  Uiso   1.00
C537   C     0.47667   0.83350   0.49955   0.00000  Uiso   1.00
C538   C     0.02333   0.83316   0.50045   0.00000  Uiso   1.00
C539   C     0.45794   0.85427   0.55435   0.00000  Uiso   1.00
C540   C     0.04206   0.81238   0.44565   0.00000  Uiso   1.00
C541   C     0.46805   0.79192   0.38959   0.00000  Uiso   1.00
C542   C     0.03195   0.87472   0.61041   0.00000  Uiso   1.00
Cu543  Cu    0.25500   0.83913   0.56146   0.00000  Uiso   1.00
Cu544  Cu    0.24499   0.82754   0.43854   0.00000  Uiso   1.00
H545   H     0.39733   0.87023   0.59598   0.00000  Uiso   1.00
H546   H     0.10267   0.79644   0.40402   0.00000  Uiso   1.00
H547   H     0.02922   0.77595   0.34900   0.00000  Uiso   1.00
H548   H     0.47077   0.89070   0.65100   0.00000  Uiso   1.00
N549   N     0.23744   0.81881   0.34617   0.00000  Uiso   1.00
N550   N     0.26255   0.84786   0.65383   0.00000  Uiso   1.00
O551   O     0.25325   0.76204   0.53992   0.00000  Uiso   1.00
O552   O     0.24674   0.90462   0.46008   0.00000  Uiso   1.00
O553   O     0.24480   0.75226   0.43612   0.00000  Uiso   1.00
O554   O     0.25520   0.91441   0.56388   0.00000  Uiso   1.00
O555   O     0.18935   0.83821   0.55191   0.00000  Uiso   1.00
O556   O     0.31064   0.82845   0.44809   0.00000  Uiso   1.00
O557   O     0.18090   0.82843   0.44810   0.00000  Uiso   1.00
O558   O     0.31910   0.83824   0.55190   0.00000  Uiso   1.00
H559   H     0.38013   0.79831   0.40291   0.00000  Uiso   1.00
H560   H     0.11986   0.86835   0.59709   0.00000  Uiso   1.00
C561   C     0.44120   0.76948   0.66528   0.00000  Uiso   1.00
N562   N     0.41974   0.75143   0.61914   0.00000  Uiso   1.00
C563   C     0.05880   0.89716   0.33473   0.00000  Uiso   1.00
N564   N     0.08026   0.91521   0.38088   0.00000  Uiso   1.00
C565   C     0.21279   0.98286   0.42318   0.00000  Uiso   1.00
N566   N     0.18988   0.96048   0.37991   0.00000  Uiso   1.00
C567   C     0.28721   0.68381   0.57681   0.00000  Uiso   1.00
N568   N     0.31013   0.70619   0.62007   0.00000  Uiso   1.00
C569   C     0.20531   0.78253   0.64245   0.00000  Uiso   1.00
N570   N     0.17828   0.75201   0.61221   0.00000  Uiso   1.00
C571   C     0.29469   0.88413   0.35755   0.00000  Uiso   1.00
N572   N     0.32171   0.91466   0.38779   0.00000  Uiso   1.00
C573   C     0.74790   0.73347   0.48468   0.00000  Uiso   1.00
C574   C     0.75210   0.93319   0.51532   0.00000  Uiso   1.00
C575   C     0.51449   0.79194   0.39090   0.00000  Uiso   1.00
C576   C     0.98551   0.87471   0.60910   0.00000  Uiso   1.00
C577   C     0.74163   0.67790   0.47753   0.00000  Uiso   1.00
C578   C     0.75837   0.98877   0.52247   0.00000  Uiso   1.00
C579   C     0.66442   0.83299   0.50030   0.00000  Uiso   1.00
C580   C     0.83557   0.83368   0.49970   0.00000  Uiso   1.00
C581   C     0.91170   0.85429   0.55380   0.00000  Uiso   1.00
C582   C     0.58830   0.81238   0.44620   0.00000  Uiso   1.00
C583   C     0.88393   0.83409   0.49923   0.00000  Uiso   1.00
C584   C     0.61607   0.83257   0.50077   0.00000  Uiso   1.00
C585   C     0.90230   0.81392   0.44460   0.00000  Uiso   1.00
C586   C     0.59770   0.85274   0.55540   0.00000  Uiso   1.00
C587   C     0.94875   0.81299   0.44398   0.00000  Uiso   1.00
C588   C     0.55125   0.85366   0.55603   0.00000  Uiso   1.00
C589   C     0.97667   0.83350   0.49955   0.00000  Uiso   1.00
C590   C     0.52333   0.83316   0.50045   0.00000  Uiso   1.00
C591   C     0.95794   0.85427   0.55435   0.00000  Uiso   1.00
C592   C     0.54206   0.81238   0.44565   0.00000  Uiso   1.00
C593   C     0.96805   0.79192   0.38959   0.00000  Uiso   1.00
C594   C     0.53195   0.87472   0.61041   0.00000  Uiso   1.00
Cu595  Cu    0.75500   0.83913   0.56146   0.00000  Uiso   1.00
Cu596  Cu    0.74499   0.82754   0.43854   0.00000  Uiso   1.00
H597   H     0.89733   0.87023   0.59598   0.00000  Uiso   1.00
H598   H     0.60267   0.79644   0.40402   0.00000  Uiso   1.00
H599   H     0.52922   0.77595   0.34900   0.00000  Uiso   1.00
H600   H     0.97077   0.89070   0.65100   0.00000  Uiso   1.00
N601   N     0.73744   0.81881   0.34617   0.00000  Uiso   1.00
N602   N     0.76255   0.84786   0.65383   0.00000  Uiso   1.00
O603   O     0.75325   0.76204   0.53992   0.00000  Uiso   1.00
O604   O     0.74674   0.90462   0.46008   0.00000  Uiso   1.00
O605   O     0.74480   0.75226   0.43612   0.00000  Uiso   1.00
O606   O     0.75520   0.91441   0.56388   0.00000  Uiso   1.00
O607   O     0.68935   0.83821   0.55191   0.00000  Uiso   1.00
O608   O     0.81064   0.82845   0.44809   0.00000  Uiso   1.00
O609   O     0.68090   0.82843   0.44810   0.00000  Uiso   1.00
O610   O     0.81910   0.83824   0.55190   0.00000  Uiso   1.00
H611   H     0.88013   0.79831   0.40291   0.00000  Uiso   1.00
H612   H     0.61986   0.86835   0.59709   0.00000  Uiso   1.00
C613   C     0.94120   0.76948   0.66528   0.00000  Uiso   1.00
N614   N     0.91974   0.75143   0.61914   0.00000  Uiso   1.00
C615   C     0.55880   0.89716   0.33473   0.00000  Uiso   1.00
N616   N     0.58026   0.91521   0.38088   0.00000  Uiso   1.00
C617   C     0.71279   0.98286   0.42318   0.00000  Uiso   1.00
N618   N     0.68988   0.96048   0.37991   0.00000  Uiso   1.00
C619   C     0.78721   0.68381   0.57681   0.00000  Uiso   1.00
N620   N     0.81013   0.70619   0.62007   0.00000  Uiso   1.00
C621   C     0.70531   0.78253   0.64245   0.00000  Uiso   1.00
N622   N     0.67828   0.75201   0.61221   0.00000  Uiso   1.00
C623   C     0.79469   0.88413   0.35755   0.00000  Uiso   1.00
N624   N     0.82171   0.91466   0.38779   0.00000  Uiso   1.00
C625   C     0.24790   0.06681   0.81802   0.00000  Uiso   1.00
C626   C     0.25210   0.26653   0.84865   0.00000  Uiso   1.00
C627   C     0.01449   0.12528   0.72424   0.00000  Uiso   1.00
C628   C     0.48551   0.20804   0.94243   0.00000  Uiso   1.00
C629   C     0.24163   0.01123   0.81086   0.00000  Uiso   1.00
C630   C     0.25837   0.32210   0.85581   0.00000  Uiso   1.00
C631   C     0.16442   0.16632   0.83363   0.00000  Uiso   1.00
C632   C     0.33557   0.16701   0.83303   0.00000  Uiso   1.00
C633   C     0.41170   0.18762   0.88713   0.00000  Uiso   1.00
C634   C     0.08830   0.14571   0.77954   0.00000  Uiso   1.00
C635   C     0.38393   0.16743   0.83257   0.00000  Uiso   1.00
C636   C     0.11607   0.16590   0.83410   0.00000  Uiso   1.00
C637   C     0.40230   0.14725   0.77793   0.00000  Uiso   1.00
C638   C     0.09770   0.18607   0.88873   0.00000  Uiso   1.00
C639   C     0.44875   0.14632   0.77731   0.00000  Uiso   1.00
C640   C     0.05125   0.18699   0.88936   0.00000  Uiso   1.00
C641   C     0.47667   0.16683   0.83288   0.00000  Uiso   1.00
C642   C     0.02333   0.16649   0.83379   0.00000  Uiso   1.00
C643   C     0.45794   0.18761   0.88768   0.00000  Uiso   1.00
C644   C     0.04206   0.14572   0.77898   0.00000  Uiso   1.00
C645   C     0.46805   0.12526   0.72292   0.00000  Uiso   1.00
C646   C     0.03195   0.20806   0.94375   0.00000  Uiso   1.00
Cu647  Cu    0.25500   0.17246   0.89479   0.00000  Uiso   1.00
Cu648  Cu    0.24499   0.16087   0.77187   0.00000  Uiso   1.00
H649   H     0.39733   0.20357   0.92931   0.00000  Uiso   1.00
H650   H     0.10267   0.12977   0.73736   0.00000  Uiso   1.00
H651   H     0.02922   0.10929   0.68233   0.00000  Uiso   1.00
H652   H     0.47077   0.22404   0.98434   0.00000  Uiso   1.00
N653   N     0.23744   0.15214   0.67951   0.00000  Uiso   1.00
N654   N     0.26255   0.18119   0.98716   0.00000  Uiso   1.00
O655   O     0.25325   0.09538   0.87326   0.00000  Uiso   1.00
O656   O     0.24674   0.23796   0.79341   0.00000  Uiso   1.00
O657   O     0.24480   0.08559   0.76945   0.00000  Uiso   1.00
O658   O     0.25520   0.24774   0.89721   0.00000  Uiso   1.00
O659   O     0.18935   0.17155   0.88524   0.00000  Uiso   1.00
O660   O     0.31064   0.16179   0.78143   0.00000  Uiso   1.00
O661   O     0.18090   0.16176   0.78143   0.00000  Uiso   1.00
O662   O     0.31910   0.17157   0.88523   0.00000  Uiso   1.00
H663   H     0.38013   0.13164   0.73624   0.00000  Uiso   1.00
H664   H     0.11986   0.20168   0.93042   0.00000  Uiso   1.00
C665   C     0.44120   0.10282   0.99861   0.00000  Uiso   1.00
N666   N     0.41974   0.08477   0.95247   0.00000  Uiso   1.00
C667   C     0.05880   0.23049   0.66807   0.00000  Uiso   1.00
N668   N     0.08026   0.24855   0.71421   0.00000  Uiso   1.00
C669   C     0.21279   0.31619   0.75651   0.00000  Uiso   1.00
N670   N     0.18988   0.29381   0.71324   0.00000  Uiso   1.00
C671   C     0.28721   0.01714   0.91015   0.00000  Uiso   1.00
N672   N     0.31013   0.03952   0.95340   0.00000  Uiso   1.00
C673   C     0.20531   0.11587   0.97578   0.00000  Uiso   1.00
N674   N     0.17828   0.08534   0.94554   0.00000  Uiso   1.00
C675   C     0.29469   0.21747   0.69089   0.00000  Uiso   1.00
N676   N     0.32171   0.24799   0.72113   0.00000  Uiso   1.00
C677   C     0.74790   0.06681   0.81802   0.00000  Uiso   1.00
C678   C     0.75210   0.26653   0.84865   0.00000  Uiso   1.00
C679   C     0.51449   0.12528   0.72424   0.00000  Uiso   1.00
C680   C     0.98551   0.20804   0.94243   0.00000  Uiso   1.00
C681   C     0.74163   0.01123   0.81086   0.00000  Uiso   1.00
C682   C     0.75837   0.32210   0.85581   0.00000  Uiso   1.00
C683   C     0.66442   0.16632   0.83363   0.00000  Uiso   1.00
C684   C     0.83557   0.16701   0.83303   0.00000  Uiso   1.00
C685   C     0.91170   0.18762   0.88713   0.00000  Uiso   1.00
C686   C     0.58830   0.14571   0.77954   0.00000  Uiso   1.00
C687   C     0.88393   0.16743   0.83257   0.00000  Uiso   1.00
C688   C     0.61607   0.16590   0.83410   0.00000  Uiso   1.00
C689   C     0.90230   0.14725   0.77793   0.00000  Uiso   1.00
C690   C     0.59770   0.18607   0.88873   0.00000  Uiso   1.00
C691   C     0.94875   0.14632   0.77731   0.00000  Uiso   1.00
C692   C     0.55125   0.18699   0.88936   0.00000  Uiso   1.00
C693   C     0.97667   0.16683   0.83288   0.00000  Uiso   1.00
C694   C     0.52333   0.16649   0.83379   0.00000  Uiso   1.00
C695   C     0.95794   0.18761   0.88768   0.00000  Uiso   1.00
C696   C     0.54206   0.14572   0.77898   0.00000  Uiso   1.00
C697   C     0.96805   0.12526   0.72292   0.00000  Uiso   1.00
C698   C     0.53195   0.20806   0.94375   0.00000  Uiso   1.00
Cu699  Cu    0.75500   0.17246   0.89479   0.00000  Uiso   1.00
Cu700  Cu    0.74499   0.16087   0.77187   0.00000  Uiso   1.00
H701   H     0.89733   0.20357   0.92931   0.00000  Uiso   1.00
H702   H     0.60267   0.12977   0.73736   0.00000  Uiso   1.00
H703   H     0.52922   0.10929   0.68233   0.00000  Uiso   1.00
H704   H     0.97077   0.22404   0.98434   0.00000  Uiso   1.00
N705   N     0.73744   0.15214   0.67951   0.00000  Uiso   1.00
N706   N     0.76255   0.18119   0.98716   0.00000  Uiso   1.00
O707   O     0.75325   0.09538   0.87326   0.00000  Uiso   1.00
O708   O     0.74674   0.23796   0.79341   0.00000  Uiso   1.00
O709   O     0.74480   0.08559   0.76945   0.00000  Uiso   1.00
O710   O     0.75520   0.24774   0.89721   0.00000  Uiso   1.00
O711   O     0.68935   0.17155   0.88524   0.00000  Uiso   1.00
O712   O     0.81064   0.16179   0.78143   0.00000  Uiso   1.00
O713   O     0.68090   0.16176   0.78143   0.00000  Uiso   1.00
O714   O     0.81910   0.17157   0.88523   0.00000  Uiso   1.00
H715   H     0.88013   0.13164   0.73624   0.00000  Uiso   1.00
H716   H     0.61986   0.20168   0.93042   0.00000  Uiso   1.00
C717   C     0.94120   0.10282   0.99861   0.00000  Uiso   1.00
N718   N     0.91974   0.08477   0.95247   0.00000  Uiso   1.00
C719   C     0.55880   0.23049   0.66807   0.00000  Uiso   1.00
N720   N     0.58026   0.24855   0.71421   0.00000  Uiso   1.00
C721   C     0.71279   0.31619   0.75651   0.00000  Uiso   1.00
N722   N     0.68988   0.29381   0.71324   0.00000  Uiso   1.00
C723   C     0.78721   0.01714   0.91015   0.00000  Uiso   1.00
N724   N     0.81013   0.03952   0.95340   0.00000  Uiso   1.00
C725   C     0.70531   0.11587   0.97578   0.00000  Uiso   1.00
N726   N     0.67828   0.08534   0.94554   0.00000  Uiso   1.00
C727   C     0.79469   0.21747   0.69089   0.00000  Uiso   1.00
N728   N     0.82171   0.24799   0.72113   0.00000  Uiso   1.00
C729   C     0.24790   0.40014   0.81802   0.00000  Uiso   1.00
C730   C     0.25210   0.59986   0.84865   0.00000  Uiso   1.00
C731   C     0.01449   0.45861   0.72424   0.00000  Uiso   1.00
C732   C     0.48551   0.54138   0.94243   0.00000  Uiso   1.00
C733   C     0.24163   0.34457   0.81086   0.00000  Uiso   1.00
C734   C     0.25837   0.65543   0.85581   0.00000  Uiso   1.00
C735   C     0.16442   0.49965   0.83363   0.00000  Uiso   1.00
C736   C     0.33557   0.50035   0.83303   0.00000  Uiso   1.00
C737   C     0.41170   0.52095   0.88713   0.00000  Uiso   1.00
C738   C     0.08830   0.47905   0.77954   0.00000  Uiso   1.00
C739   C     0.38393   0.50076   0.83257   0.00000  Uiso   1.00
C740   C     0.11607   0.49924   0.83410   0.00000  Uiso   1.00
C741   C     0.40230   0.48058   0.77793   0.00000  Uiso   1.00
C742   C     0.09770   0.51941   0.88873   0.00000  Uiso   1.00
C743   C     0.44875   0.47966   0.77731   0.00000  Uiso   1.00
C744   C     0.05125   0.52033   0.88936   0.00000  Uiso   1.00
C745   C     0.47667   0.50016   0.83288   0.00000  Uiso   1.00
C746   C     0.02333   0.49983   0.83379   0.00000  Uiso   1.00
C747   C     0.45794   0.52094   0.88768   0.00000  Uiso   1.00
C748   C     0.04206   0.47905   0.77898   0.00000  Uiso   1.00
C749   C     0.46805   0.45859   0.72292   0.00000  Uiso   1.00
C750   C     0.03195   0.54139   0.94375   0.00000  Uiso   1.00
Cu751  Cu    0.25500   0.50579   0.89479   0.00000  Uiso   1.00
Cu752  Cu    0.24499   0.49421   0.77187   0.00000  Uiso   1.00
H753   H     0.39733   0.53690   0.92931   0.00000  Uiso   1.00
H754   H     0.10267   0.46310   0.73736   0.00000  Uiso   1.00
H755   H     0.02922   0.44262   0.68233   0.00000  Uiso   1.00
H756   H     0.47077   0.55737   0.98434   0.00000  Uiso   1.00
N757   N     0.23744   0.48547   0.67951   0.00000  Uiso   1.00
N758   N     0.26255   0.51453   0.98716   0.00000  Uiso   1.00
O759   O     0.25325   0.42871   0.87326   0.00000  Uiso   1.00
O760   O     0.24674   0.57129   0.79341   0.00000  Uiso   1.00
O761   O     0.24480   0.41892   0.76945   0.00000  Uiso   1.00
O762   O     0.25520   0.58108   0.89721   0.00000  Uiso   1.00
O763   O     0.18935   0.50488   0.88524   0.00000  Uiso   1.00
O764   O     0.31064   0.49512   0.78143   0.00000  Uiso   1.00
O765   O     0.18090   0.49510   0.78143   0.00000  Uiso   1.00
O766   O     0.31910   0.50490   0.88523   0.00000  Uiso   1.00
H767   H     0.38013   0.46498   0.73624   0.00000  Uiso   1.00
H768   H     0.11986   0.53501   0.93042   0.00000  Uiso   1.00
C769   C     0.44120   0.43615   0.99861   0.00000  Uiso   1.00
N770   N     0.41974   0.41810   0.95247   0.00000  Uiso   1.00
C771   C     0.05880   0.56383   0.66807   0.00000  Uiso   1.00
N772   N     0.08026   0.58188   0.71421   0.00000  Uiso   1.00
C773   C     0.21279   0.64952   0.75651   0.00000  Uiso   1.00
N774   N     0.18988   0.62714   0.71324   0.00000  Uiso   1.00
C775   C     0.28721   0.35047   0.91015   0.00000  Uiso   1.00
N776   N     0.31013   0.37285   0.95340   0.00000  Uiso   1.00
C777   C     0.20531   0.44920   0.97578   0.00000  Uiso   1.00
N778   N     0.17828   0.41868   0.94554   0.00000  Uiso   1.00
C779   C     0.29469   0.55080   0.69089   0.00000  Uiso   1.00
N780   N     0.32171   0.58132   0.72113   0.00000  Uiso   1.00
C781   C     0.74790   0.40014   0.81802   0.00000  Uiso   1.00
C782   C     0.75210   0.59986   0.84865   0.00000  Uiso   1.00
C783   C     0.51449   0.45861   0.72424   0.00000  Uiso   1.00
C784   C     0.98551   0.54138   0.94243   0.00000  Uiso   1.00
C785   C     0.74163   0.34457   0.81086   0.00000  Uiso   1.00
C786   C     0.75837   0.65543   0.85581   0.00000  Uiso   1.00
C787   C     0.66442   0.49965   0.83363   0.00000  Uiso   1.00
C788   C     0.83557   0.50035   0.83303   0.00000  Uiso   1.00
C789   C     0.91170   0.52095   0.88713   0.00000  Uiso   1.00
C790   C     0.58830   0.47905   0.77954   0.00000  Uiso   1.00
C791   C     0.88393   0.50076   0.83257   0.00000  Uiso   1.00
C792   C     0.61607   0.49924   0.83410   0.00000  Uiso   1.00
C793   C     0.90230   0.48058   0.77793   0.00000  Uiso   1.00
C794   C     0.59770   0.51941   0.88873   0.00000  Uiso   1.00
C795   C     0.94875   0.47966   0.77731   0.00000  Uiso   1.00
C796   C     0.55125   0.52033   0.88936   0.00000  Uiso   1.00
C797   C     0.97667   0.50016   0.83288   0.00000  Uiso   1.00
C798   C     0.52333   0.49983   0.83379   0.00000  Uiso   1.00
C799   C     0.95794   0.52094   0.88768   0.00000  Uiso   1.00
C800   C     0.54206   0.47905   0.77898   0.00000  Uiso   1.00
C801   C     0.96805   0.45859   0.72292   0.00000  Uiso   1.00
C802   C     0.53195   0.54139   0.94375   0.00000  Uiso   1.00
Cu803  Cu    0.75500   0.50579   0.89479   0.00000  Uiso   1.00
Cu804  Cu    0.74499   0.49421   0.77187   0.00000  Uiso   1.00
H805   H     0.89733   0.53690   0.92931   0.00000  Uiso   1.00
H806   H     0.60267   0.46310   0.73736   0.00000  Uiso   1.00
H807   H     0.52922   0.44262   0.68233   0.00000  Uiso   1.00
H808   H     0.97077   0.55737   0.98434   0.00000  Uiso   1.00
N809   N     0.73744   0.48547   0.67951   0.00000  Uiso   1.00
N810   N     0.76255   0.51453   0.98716   0.00000  Uiso   1.00
O811   O     0.75325   0.42871   0.87326   0.00000  Uiso   1.00
O812   O     0.74674   0.57129   0.79341   0.00000  Uiso   1.00
O813   O     0.74480   0.41892   0.76945   0.00000  Uiso   1.00
O814   O     0.75520   0.58108   0.89721   0.00000  Uiso   1.00
O815   O     0.68935   0.50488   0.88524   0.00000  Uiso   1.00
O816   O     0.81064   0.49512   0.78143   0.00000  Uiso   1.00
O817   O     0.68090   0.49510   0.78143   0.00000  Uiso   1.00
O818   O     0.81910   0.50490   0.88523   0.00000  Uiso   1.00
H819   H     0.88013   0.46498   0.73624   0.00000  Uiso   1.00
H820   H     0.61986   0.53501   0.93042   0.00000  Uiso   1.00
C821   C     0.94120   0.43615   0.99861   0.00000  Uiso   1.00
N822   N     0.91974   0.41810   0.95247   0.00000  Uiso   1.00
C823   C     0.55880   0.56383   0.66807   0.00000  Uiso   1.00
N824   N     0.58026   0.58188   0.71421   0.00000  Uiso   1.00
C825   C     0.71279   0.64952   0.75651   0.00000  Uiso   1.00
N826   N     0.68988   0.62714   0.71324   0.00000  Uiso   1.00
C827   C     0.78721   0.35047   0.91015   0.00000  Uiso   1.00
N828   N     0.81013   0.37285   0.95340   0.00000  Uiso   1.00
C829   C     0.70531   0.44920   0.97578   0.00000  Uiso   1.00
N830   N     0.67828   0.41868   0.94554   0.00000  Uiso   1.00
C831   C     0.79469   0.55080   0.69089   0.00000  Uiso   1.00
N832   N     0.82171   0.58132   0.72113   0.00000  Uiso   1.00
C833   C     0.24790   0.73347   0.81802   0.00000  Uiso   1.00
C834   C     0.25210   0.93319   0.84865   0.00000  Uiso   1.00
C835   C     0.01449   0.79194   0.72424   0.00000  Uiso   1.00
C836   C     0.48551   0.87471   0.94243   0.00000  Uiso   1.00
C837   C     0.24163   0.67790   0.81086   0.00000  Uiso   1.00
C838   C     0.25837   0.98877   0.85581   0.00000  Uiso   1.00
C839   C     0.16442   0.83299   0.83363   0.00000  Uiso   1.00
C840   C     0.33557   0.83368   0.83303   0.00000  Uiso   1.00
C841   C     0.41170   0.85429   0.88713   0.00000  Uiso   1.00
C842   C     0.08830   0.81238   0.77954   0.00000  Uiso   1.00
C843   C     0.38393   0.83409   0.83257   0.00000  Uiso   1.00
C844   C     0.11607   0.83257   0.83410   0.00000  Uiso   1.00
C845   C     0.40230   0.81392   0.77793   0.00000  Uiso   1.00
C846   C     0.09770   0.85274   0.88873   0.00000  Uiso   1.00
C847   C     0.44875   0.81299   0.77731   0.00000  Uiso   1.00
C848   C     0.05125   0.85366   0.88936   0.00000  Uiso   1.00
C849   C     0.47667   0.83350   0.83288   0.00000  Uiso   1.00
C850   C     0.02333   0.83316   0.83379   0.00000  Uiso   1.00
C851   C     0.45794   0.85427   0.88768   0.00000  Uiso   1.00
C852   C     0.04206   0.81238   0.77898   0.00000  Uiso   1.00
C853   C     0.46805   0.79192   0.72292   0.00000  Uiso   1.00
C854   C     0.03195   0.87472   0.94375   0.00000  Uiso   1.00
Cu855  Cu    0.25500   0.83913   0.89479   0.00000  Uiso   1.00
Cu856  Cu    0.24499   0.82754   0.77187   0.00000  Uiso   1.00
H857   H     0.39733   0.87023   0.92931   0.00000  Uiso   1.00
H858   H     0.10267   0.79644   0.73736   0.00000  Uiso   1.00
H859   H     0.02922   0.77595   0.68233   0.00000  Uiso   1.00
H860   H     0.47077   0.89070   0.98434   0.00000  Uiso   1.00
N861   N     0.23744   0.81881   0.67951   0.00000  Uiso   1.00
N862   N     0.26255   0.84786   0.98716   0.00000  Uiso   1.00
O863   O     0.25325   0.76204   0.87326   0.00000  Uiso   1.00
O864   O     0.24674   0.90462   0.79341   0.00000  Uiso   1.00
O865   O     0.24480   0.75226   0.76945   0.00000  Uiso   1.00
O866   O     0.25520   0.91441   0.89721   0.00000  Uiso   1.00
O867   O     0.18935   0.83821   0.88524   0.00000  Uiso   1.00
O868   O     0.31064   0.82845   0.78143   0.00000  Uiso   1.00
O869   O     0.18090   0.82843   0.78143   0.00000  Uiso   1.00
O870   O     0.31910   0.83824   0.88523   0.00000  Uiso   1.00
H871   H     0.38013   0.79831   0.73624   0.00000  Uiso   1.00
H872   H     0.11986   0.86835   0.93042   0.00000  Uiso   1.00
C873   C     0.44120   0.76948   0.99861   0.00000  Uiso   1.00
N874   N     0.41974   0.75143   0.95247   0.00000  Uiso   1.00
C875   C     0.05880   0.89716   0.66807   0.00000  Uiso   1.00
N876   N     0.08026   0.91521   0.71421   0.00000  Uiso   1.00
C877   C     0.21279   0.98286   0.75651   0.00000  Uiso   1.00
N878   N     0.18988   0.96048   0.71324   0.00000  Uiso   1.00
C879   C     0.28721   0.68381   0.91015   0.00000  Uiso   1.00
N880   N     0.31013   0.70619   0.95340   0.00000  Uiso   1.00
C881   C     0.20531   0.78253   0.97578   0.00000  Uiso   1.00
N882   N     0.17828   0.75201   0.94554   0.00000  Uiso   1.00
C883   C     0.29469   0.88413   0.69089   0.00000  Uiso   1.00
N884   N     0.32171   0.91466   0.72113   0.00000  Uiso   1.00
C885   C     0.74790   0.73347   0.81802   0.00000  Uiso   1.00
C886   C     0.75210   0.93319   0.84865   0.00000  Uiso   1.00
C887   C     0.51449   0.79194   0.72424   0.00000  Uiso   1.00
C888   C     0.98551   0.87471   0.94243   0.00000  Uiso   1.00
C889   C     0.74163   0.67790   0.81086   0.00000  Uiso   1.00
C890   C     0.75837   0.98877   0.85581   0.00000  Uiso   1.00
C891   C     0.66442   0.83299   0.83363   0.00000  Uiso   1.00
C892   C     0.83557   0.83368   0.83303   0.00000  Uiso   1.00
C893   C     0.91170   0.85429   0.88713   0.00000  Uiso   1.00
C894   C     0.58830   0.81238   0.77954   0.00000  Uiso   1.00
C895   C     0.88393   0.83409   0.83257   0.00000  Uiso   1.00
C896   C     0.61607   0.83257   0.83410   0.00000  Uiso   1.00
C897   C     0.90230   0.81392   0.77793   0.00000  Uiso   1.00
C898   C     0.59770   0.85274   0.88873   0.00000  Uiso   1.00
C899   C     0.94875   0.81299   0.77731   0.00000  Uiso   1.00
C900   C     0.55125   0.85366   0.88936   0.00000  Uiso   1.00
C901   C     0.97667   0.83350   0.83288   0.00000  Uiso   1.00
C902   C     0.52333   0.83316   0.83379   0.00000  Uiso   1.00
C903   C     0.95794   0.85427   0.88768   0.00000  Uiso   1.00
C904   C     0.54206   0.81238   0.77898   0.00000  Uiso   1.00
C905   C     0.96805   0.79192   0.72292   0.00000  Uiso   1.00
C906   C     0.53195   0.87472   0.94375   0.00000  Uiso   1.00
Cu907  Cu    0.75500   0.83913   0.89479   0.00000  Uiso   1.00
Cu908  Cu    0.74499   0.82754   0.77187   0.00000  Uiso   1.00
H909   H     0.89733   0.87023   0.92931   0.00000  Uiso   1.00
H910   H     0.60267   0.79644   0.73736   0.00000  Uiso   1.00
H911   H     0.52922   0.77595   0.68233   0.00000  Uiso   1.00
H912   H     0.97077   0.89070   0.98434   0.00000  Uiso   1.00
N913   N     0.73744   0.81881   0.67951   0.00000  Uiso   1.00
N914   N     0.76255   0.84786   0.98716   0.00000  Uiso   1.00
O915   O     0.75325   0.76204   0.87326   0.00000  Uiso   1.00
O916   O     0.74674   0.90462   0.79341   0.00000  Uiso   1.00
O917   O     0.74480   0.75226   0.76945   0.00000  Uiso   1.00
O918   O     0.75520   0.91441   0.89721   0.00000  Uiso   1.00
O919   O     0.68935   0.83821   0.88524   0.00000  Uiso   1.00
O920   O     0.81064   0.82845   0.78143   0.00000  Uiso   1.00
O921   O     0.68090   0.82843   0.78143   0.00000  Uiso   1.00
O922   O     0.81910   0.83824   0.88523   0.00000  Uiso   1.00
H923   H     0.88013   0.79831   0.73624   0.00000  Uiso   1.00
H924   H     0.61986   0.86835   0.93042   0.00000  Uiso   1.00
C925   C     0.94120   0.76948   0.99861   0.00000  Uiso   1.00
N926   N     0.91974   0.75143   0.95247   0.00000  Uiso   1.00
C927   C     0.55880   0.89716   0.66807   0.00000  Uiso   1.00
N928   N     0.58026   0.91521   0.71421   0.00000  Uiso   1.00
C929   C     0.71279   0.98286   0.75651   0.00000  Uiso   1.00
N930   N     0.68988   0.96048   0.71324   0.00000  Uiso   1.00
C931   C     0.78721   0.68381   0.91015   0.00000  Uiso   1.00
N932   N     0.81013   0.70619   0.95340   0.00000  Uiso   1.00
C933   C     0.70531   0.78253   0.97578   0.00000  Uiso   1.00
N934   N     0.67828   0.75201   0.94554   0.00000  Uiso   1.00
C935   C     0.79469   0.88413   0.69089   0.00000  Uiso   1.00
N936   N     0.82171   0.91466   0.72113   0.00000  Uiso   1.00
loop_
_geom_bond_atom_site_label_1
_geom_bond_atom_site_label_2
_geom_bond_distance
_geom_bond_site_symmetry_2
_ccdc_geom_bond_type
C1     C5      1.431   .     S
C1     O33     1.294   .     A
C1     O31     1.289   .     A
C2     O34     1.294   .     A
C2     C6      1.431   .     S
C2     O32     1.289   .     A
C3     H27     1.086   .     S
C3     C20     1.399   .     A
C3     C73     1.394   1_455 S
C4     H28     1.086   .     S
C4     C19     1.399   .     A
C4     C74     1.394   .     S
C5     C214    1.357   1_545 S
C5     C253    1.457   1_545 S
C6     C109    1.357   .     S
C6     C151    1.457   .     S
C7     O37     1.297   .     A
C7     O35     1.300   .     A
C7     C12     1.455   .     S
C8     O38     1.297   .     A
C8     C11     1.455   .     S
C8     O36     1.300   .     A
C9     H25     1.085   .     S
C9     C11     1.398   .     A
C9     C19     1.389   .     A
C10    H26     1.085   .     S
C10    C12     1.398   .     A
C10    C20     1.389   .     A
C11    C13     1.399   .     A
C12    C14     1.399   .     A
C13    C15     1.400   .     A
C13    H39     1.083   .     S
C14    C16     1.400   .     A
C14    H40     1.083   .     S
C15    C21     1.413   .     A
C15    C17     1.418   .     A
C16    C18     1.418   .     A
C16    C22     1.413   .     A
C17    C19     1.411   .     A
C17    C70     1.402   .     S
C18    C20     1.411   .     A
C18    C69     1.402   1_455 S
C21    C55     1.394   .     S
C21    C665    1.446   1_554 S
C22    C56     1.394   1_455 S
C22    C355    1.446   .     S
Cu23   O38     1.959   .     S
Cu23   O34     1.966   .     S
Cu23   O35     1.965   .     S
Cu23   Cu24    2.698   .     S
Cu23   N30     2.028   .     S
Cu23   O31     1.970   .     S
Cu24   O32     1.970   .     S
Cu24   O37     1.959   .     S
Cu24   O36     1.965   .     S
Cu24   N29     2.028   .     S
Cu24   O33     1.966   .     S
N29    N654    1.299   1_554 S
N29    C673    1.386   1_554 S
N30    N341    1.299   .     S
N30    C363    1.386   .     S
C41    N42     1.157   .     T
C41    C333    1.446   .     S
C43    N44     1.157   .     T
C43    C646    1.446   1_554 S
C45    N46     1.158   .     T
C45    C109    1.457   .     S
C47    N48     1.158   .     T
C47    C214    1.457   1_545 S
C49    N50     1.158   .     T
C49    N341    1.386   .     S
C51    N52     1.158   .     T
C51    N654    1.386   1_554 S
C53    C57     1.431   .     S
C53    O85     1.294   .     A
C53    O83     1.289   .     A
C54    O86     1.294   .     A
C54    C58     1.431   .     S
C54    O84     1.289   .     A
C55    H79     1.086   .     S
C55    C72     1.399   .     A
C56    H80     1.086   .     S
C56    C71     1.399   .     A
C56    C22     1.394   1_655 S
C57    C266    1.357   1_545 S
C57    C305    1.457   1_545 S
C58    C161    1.357   .     S
C58    C203    1.457   .     S
C59    O89     1.297   .     A
C59    O87     1.300   .     A
C59    C64     1.455   .     S
C60    O90     1.297   .     A
C60    C63     1.455   .     S
C60    O88     1.300   .     A
C61    H77     1.085   .     S
C61    C63     1.398   .     A
C61    C71     1.389   .     A
C62    H78     1.085   .     S
C62    C64     1.398   .     A
C62    C72     1.389   .     A
C63    C65     1.399   .     A
C64    C66     1.399   .     A
C65    C67     1.400   .     A
C65    H91     1.083   .     S
C66    C68     1.400   .     A
C66    H92     1.083   .     S
C67    C73     1.413   .     A
C67    C69     1.418   .     A
C68    C70     1.418   .     A
C68    C74     1.413   .     A
C69    C71     1.411   .     A
C69    C18     1.402   1_655 S
C70    C72     1.411   .     A
C73    C3      1.394   1_655 S
C73    C717    1.446   1_554 S
C74    C407    1.446   .     S
Cu75   O90     1.959   .     S
Cu75   O86     1.966   .     S
Cu75   O87     1.965   .     S
Cu75   Cu76    2.698   .     S
Cu75   N82     2.028   .     S
Cu75   O83     1.970   .     S
Cu76   O84     1.970   .     S
Cu76   O89     1.959   .     S
Cu76   O88     1.965   .     S
Cu76   N81     2.028   .     S
Cu76   O85     1.966   .     S
N81    N706    1.299   1_554 S
N81    C725    1.386   1_554 S
N82    N393    1.299   .     S
N82    C415    1.386   .     S
C93    N94     1.157   .     T
C93    C385    1.446   .     S
C95    N96     1.157   .     T
C95    C698    1.446   1_554 S
C97    N98     1.158   .     T
C97    C161    1.457   .     S
C99    N100    1.158   .     T
C99    C266    1.457   1_545 S
C101   N102    1.158   .     T
C101   N393    1.386   .     S
C103   N104    1.158   .     T
C103   N706    1.386   1_554 S
C105   C109    1.431   .     S
C105   O137    1.294   .     A
C105   O135    1.289   .     A
C106   O138    1.294   .     A
C106   C110    1.431   .     S
C106   O136    1.289   .     A
C107   H131    1.086   .     S
C107   C124    1.399   .     A
C107   C177    1.394   1_455 S
C108   H132    1.086   .     S
C108   C123    1.399   .     A
C108   C178    1.394   .     S
C110   C213    1.357   .     S
C110   C255    1.457   .     S
C111   O141    1.297   .     A
C111   O139    1.300   .     A
C111   C116    1.455   .     S
C112   O142    1.297   .     A
C112   C115    1.455   .     S
C112   O140    1.300   .     A
C113   H129    1.085   .     S
C113   C115    1.398   .     A
C113   C123    1.389   .     A
C114   H130    1.085   .     S
C114   C116    1.398   .     A
C114   C124    1.389   .     A
C115   C117    1.399   .     A
C116   C118    1.399   .     A
C117   C119    1.400   .     A
C117   H143    1.083   .     S
C118   C120    1.400   .     A
C118   H144    1.083   .     S
C119   C125    1.413   .     A
C119   C121    1.418   .     A
C120   C122    1.418   .     A
C120   C126    1.413   .     A
C121   C123    1.411   .     A
C121   C174    1.402   .     S
C122   C124    1.411   .     A
C122   C173    1.402   1_455 S
C125   C159    1.394   .     S
C125   C769    1.446   1_554 S
C126   C160    1.394   1_455 S
C126   C459    1.446   .     S
Cu127  O142    1.959   .     S
Cu127  O138    1.966   .     S
Cu127  O139    1.965   .     S
Cu127  Cu128   2.698   .     S
Cu127  N134    2.028   .     S
Cu127  O135    1.970   .     S
Cu128  O136    1.970   .     S
Cu128  O141    1.959   .     S
Cu128  O140    1.965   .     S
Cu128  N133    2.028   .     S
Cu128  O137    1.966   .     S
N133   N758    1.299   1_554 S
N133   C777    1.386   1_554 S
N134   N445    1.299   .     S
N134   C467    1.386   .     S
C145   N146    1.157   .     T
C145   C437    1.446   .     S
C147   N148    1.157   .     T
C147   C750    1.446   1_554 S
C149   N150    1.158   .     T
C149   C213    1.457   .     S
C151   N152    1.158   .     T
C153   N154    1.158   .     T
C153   N445    1.386   .     S
C155   N156    1.158   .     T
C155   N758    1.386   1_554 S
C157   C161    1.431   .     S
C157   O189    1.294   .     A
C157   O187    1.289   .     A
C158   O190    1.294   .     A
C158   C162    1.431   .     S
C158   O188    1.289   .     A
C159   H183    1.086   .     S
C159   C176    1.399   .     A
C160   H184    1.086   .     S
C160   C175    1.399   .     A
C160   C126    1.394   1_655 S
C162   C265    1.357   .     S
C162   C307    1.457   .     S
C163   O193    1.297   .     A
C163   O191    1.300   .     A
C163   C168    1.455   .     S
C164   O194    1.297   .     A
C164   C167    1.455   .     S
C164   O192    1.300   .     A
C165   H181    1.085   .     S
C165   C167    1.398   .     A
C165   C175    1.389   .     A
C166   H182    1.085   .     S
C166   C168    1.398   .     A
C166   C176    1.389   .     A
C167   C169    1.399   .     A
C168   C170    1.399   .     A
C169   C171    1.400   .     A
C169   H195    1.083   .     S
C170   C172    1.400   .     A
C170   H196    1.083   .     S
C171   C177    1.413   .     A
C171   C173    1.418   .     A
C172   C174    1.418   .     A
C172   C178    1.413   .     A
C173   C175    1.411   .     A
C173   C122    1.402   1_655 S
C174   C176    1.411   .     A
C177   C107    1.394   1_655 S
C177   C821    1.446   1_554 S
C178   C511    1.446   .     S
Cu179  O194    1.959   .     S
Cu179  O190    1.966   .     S
Cu179  O191    1.965   .     S
Cu179  Cu180   2.698   .     S
Cu179  N186    2.028   .     S
Cu179  O187    1.970   .     S
Cu180  O188    1.970   .     S
Cu180  O193    1.959   .     S
Cu180  O192    1.965   .     S
Cu180  N185    2.028   .     S
Cu180  O189    1.966   .     S
N185   N810    1.299   1_554 S
N185   C829    1.386   1_554 S
N186   N497    1.299   .     S
N186   C519    1.386   .     S
C197   N198    1.157   .     T
C197   C489    1.446   .     S
C199   N200    1.157   .     T
C199   C802    1.446   1_554 S
C201   N202    1.158   .     T
C201   C265    1.457   .     S
C203   N204    1.158   .     T
C205   N206    1.158   .     T
C205   N497    1.386   .     S
C207   N208    1.158   .     T
C207   N810    1.386   1_554 S
C209   C213    1.431   .     S
C209   O241    1.294   .     A
C209   O239    1.289   .     A
C210   O242    1.294   .     A
C210   C214    1.431   .     S
C210   O240    1.289   .     A
C211   H235    1.086   .     S
C211   C228    1.399   .     A
C211   C281    1.394   1_455 S
C212   H236    1.086   .     S
C212   C227    1.399   .     A
C212   C282    1.394   .     S
C214   C5      1.357   1_565 S
C214   C47     1.457   1_565 S
C215   O245    1.297   .     A
C215   O243    1.300   .     A
C215   C220    1.455   .     S
C216   O246    1.297   .     A
C216   C219    1.455   .     S
C216   O244    1.300   .     A
C217   H233    1.085   .     S
C217   C219    1.398   .     A
C217   C227    1.389   .     A
C218   H234    1.085   .     S
C218   C220    1.398   .     A
C218   C228    1.389   .     A
C219   C221    1.399   .     A
C220   C222    1.399   .     A
C221   C223    1.400   .     A
C221   H247    1.083   .     S
C222   C224    1.400   .     A
C222   H248    1.083   .     S
C223   C229    1.413   .     A
C223   C225    1.418   .     A
C224   C226    1.418   .     A
C224   C230    1.413   .     A
C225   C227    1.411   .     A
C225   C278    1.402   .     S
C226   C228    1.411   .     A
C226   C277    1.402   1_455 S
C229   C263    1.394   .     S
C229   C873    1.446   1_554 S
C230   C264    1.394   1_455 S
C230   C563    1.446   .     S
Cu231  O246    1.959   .     S
Cu231  O242    1.966   .     S
Cu231  O243    1.965   .     S
Cu231  Cu232   2.698   .     S
Cu231  N238    2.028   .     S
Cu231  O239    1.970   .     S
Cu232  O240    1.970   .     S
Cu232  O245    1.959   .     S
Cu232  O244    1.965   .     S
Cu232  N237    2.028   .     S
Cu232  O241    1.966   .     S
N237   N862    1.299   1_554 S
N237   C881    1.386   1_554 S
N238   N549    1.299   .     S
N238   C571    1.386   .     S
C249   N250    1.157   .     T
C249   C541    1.446   .     S
C251   N252    1.157   .     T
C251   C854    1.446   1_554 S
C253   N254    1.158   .     T
C253   C5      1.457   1_565 S
C255   N256    1.158   .     T
C257   N258    1.158   .     T
C257   N549    1.386   .     S
C259   N260    1.158   .     T
C259   N862    1.386   1_554 S
C261   C265    1.431   .     S
C261   O293    1.294   .     A
C261   O291    1.289   .     A
C262   O294    1.294   .     A
C262   C266    1.431   .     S
C262   O292    1.289   .     A
C263   H287    1.086   .     S
C263   C280    1.399   .     A
C264   H288    1.086   .     S
C264   C279    1.399   .     A
C264   C230    1.394   1_655 S
C266   C57     1.357   1_565 S
C266   C99     1.457   1_565 S
C267   O297    1.297   .     A
C267   O295    1.300   .     A
C267   C272    1.455   .     S
C268   O298    1.297   .     A
C268   C271    1.455   .     S
C268   O296    1.300   .     A
C269   H285    1.085   .     S
C269   C271    1.398   .     A
C269   C279    1.389   .     A
C270   H286    1.085   .     S
C270   C272    1.398   .     A
C270   C280    1.389   .     A
C271   C273    1.399   .     A
C272   C274    1.399   .     A
C273   C275    1.400   .     A
C273   H299    1.083   .     S
C274   C276    1.400   .     A
C274   H300    1.083   .     S
C275   C281    1.413   .     A
C275   C277    1.418   .     A
C276   C278    1.418   .     A
C276   C282    1.413   .     A
C277   C279    1.411   .     A
C277   C226    1.402   1_655 S
C278   C280    1.411   .     A
C281   C211    1.394   1_655 S
C281   C925    1.446   1_554 S
C282   C615    1.446   .     S
Cu283  O298    1.959   .     S
Cu283  O294    1.966   .     S
Cu283  O295    1.965   .     S
Cu283  Cu284   2.698   .     S
Cu283  N290    2.028   .     S
Cu283  O291    1.970   .     S
Cu284  O292    1.970   .     S
Cu284  O297    1.959   .     S
Cu284  O296    1.965   .     S
Cu284  N289    2.028   .     S
Cu284  O293    1.966   .     S
N289   N914    1.299   1_554 S
N289   C933    1.386   1_554 S
N290   N601    1.299   .     S
N290   C623    1.386   .     S
C301   N302    1.157   .     T
C301   C593    1.446   .     S
C303   N304    1.157   .     T
C303   C906    1.446   1_554 S
C305   N306    1.158   .     T
C305   C57     1.457   1_565 S
C307   N308    1.158   .     T
C309   N310    1.158   .     T
C309   N601    1.386   .     S
C311   N312    1.158   .     T
C311   N914    1.386   1_554 S
C313   C317    1.431   .     S
C313   O345    1.294   .     A
C313   O343    1.289   .     A
C314   O346    1.294   .     A
C314   C318    1.431   .     S
C314   O344    1.289   .     A
C315   H339    1.086   .     S
C315   C332    1.399   .     A
C315   C385    1.394   1_455 S
C316   H340    1.086   .     S
C316   C331    1.399   .     A
C316   C386    1.394   .     S
C317   C526    1.357   1_545 S
C317   C565    1.457   1_545 S
C318   C421    1.357   .     S
C318   C463    1.457   .     S
C319   O349    1.297   .     A
C319   O347    1.300   .     A
C319   C324    1.455   .     S
C320   O350    1.297   .     A
C320   C323    1.455   .     S
C320   O348    1.300   .     A
C321   H337    1.085   .     S
C321   C323    1.398   .     A
C321   C331    1.389   .     A
C322   H338    1.085   .     S
C322   C324    1.398   .     A
C322   C332    1.389   .     A
C323   C325    1.399   .     A
C324   C326    1.399   .     A
C325   C327    1.400   .     A
C325   H351    1.083   .     S
C326   C328    1.400   .     A
C326   H352    1.083   .     S
C327   C333    1.413   .     A
C327   C329    1.418   .     A
C328   C330    1.418   .     A
C328   C334    1.413   .     A
C329   C331    1.411   .     A
C329   C382    1.402   .     S
C330   C332    1.411   .     A
C330   C381    1.402   1_455 S
C333   C367    1.394   .     S
C334   C368    1.394   1_455 S
C334   C667    1.446   .     S
Cu335  O350    1.959   .     S
Cu335  O346    1.966   .     S
Cu335  O347    1.965   .     S
Cu335  Cu336   2.698   .     S
Cu335  N342    2.028   .     S
Cu335  O343    1.970   .     S
Cu336  O344    1.970   .     S
Cu336  O349    1.959   .     S
Cu336  O348    1.965   .     S
Cu336  N341    2.028   .     S
Cu336  O345    1.966   .     S
N342   N653    1.299   .     S
N342   C675    1.386   .     S
C353   N354    1.157   .     T
C353   C645    1.446   .     S
C355   N356    1.157   .     T
C357   N358    1.158   .     T
C357   C421    1.457   .     S
C359   N360    1.158   .     T
C359   C526    1.457   1_545 S
C361   N362    1.158   .     T
C361   N653    1.386   .     S
C363   N364    1.158   .     T
C365   C369    1.431   .     S
C365   O397    1.294   .     A
C365   O395    1.289   .     A
C366   O398    1.294   .     A
C366   C370    1.431   .     S
C366   O396    1.289   .     A
C367   H391    1.086   .     S
C367   C384    1.399   .     A
C368   H392    1.086   .     S
C368   C383    1.399   .     A
C368   C334    1.394   1_655 S
C369   C578    1.357   1_545 S
C369   C617    1.457   1_545 S
C370   C473    1.357   .     S
C370   C515    1.457   .     S
C371   O401    1.297   .     A
C371   O399    1.300   .     A
C371   C376    1.455   .     S
C372   O402    1.297   .     A
C372   C375    1.455   .     S
C372   O400    1.300   .     A
C373   H389    1.085   .     S
C373   C375    1.398   .     A
C373   C383    1.389   .     A
C374   H390    1.085   .     S
C374   C376    1.398   .     A
C374   C384    1.389   .     A
C375   C377    1.399   .     A
C376   C378    1.399   .     A
C377   C379    1.400   .     A
C377   H403    1.083   .     S
C378   C380    1.400   .     A
C378   H404    1.083   .     S
C379   C385    1.413   .     A
C379   C381    1.418   .     A
C380   C382    1.418   .     A
C380   C386    1.413   .     A
C381   C383    1.411   .     A
C381   C330    1.402   1_655 S
C382   C384    1.411   .     A
C385   C315    1.394   1_655 S
C386   C719    1.446   .     S
Cu387  O402    1.959   .     S
Cu387  O398    1.966   .     S
Cu387  O399    1.965   .     S
Cu387  Cu388   2.698   .     S
Cu387  N394    2.028   .     S
Cu387  O395    1.970   .     S
Cu388  O396    1.970   .     S
Cu388  O401    1.959   .     S
Cu388  O400    1.965   .     S
Cu388  N393    2.028   .     S
Cu388  O397    1.966   .     S
N394   N705    1.299   .     S
N394   C727    1.386   .     S
C405   N406    1.157   .     T
C405   C697    1.446   .     S
C407   N408    1.157   .     T
C409   N410    1.158   .     T
C409   C473    1.457   .     S
C411   N412    1.158   .     T
C411   C578    1.457   1_545 S
C413   N414    1.158   .     T
C413   N705    1.386   .     S
C415   N416    1.158   .     T
C417   C421    1.431   .     S
C417   O449    1.294   .     A
C417   O447    1.289   .     A
C418   O450    1.294   .     A
C418   C422    1.431   .     S
C418   O448    1.289   .     A
C419   H443    1.086   .     S
C419   C436    1.399   .     A
C419   C489    1.394   1_455 S
C420   H444    1.086   .     S
C420   C435    1.399   .     A
C420   C490    1.394   .     S
C422   C525    1.357   .     S
C422   C567    1.457   .     S
C423   O453    1.297   .     A
C423   O451    1.300   .     A
C423   C428    1.455   .     S
C424   O454    1.297   .     A
C424   C427    1.455   .     S
C424   O452    1.300   .     A
C425   H441    1.085   .     S
C425   C427    1.398   .     A
C425   C435    1.389   .     A
C426   H442    1.085   .     S
C426   C428    1.398   .     A
C426   C436    1.389   .     A
C427   C429    1.399   .     A
C428   C430    1.399   .     A
C429   C431    1.400   .     A
C429   H455    1.083   .     S
C430   C432    1.400   .     A
C430   H456    1.083   .     S
C431   C437    1.413   .     A
C431   C433    1.418   .     A
C432   C434    1.418   .     A
C432   C438    1.413   .     A
C433   C435    1.411   .     A
C433   C486    1.402   .     S
C434   C436    1.411   .     A
C434   C485    1.402   1_455 S
C437   C471    1.394   .     S
C438   C472    1.394   1_455 S
C438   C771    1.446   .     S
Cu439  O454    1.959   .     S
Cu439  O450    1.966   .     S
Cu439  O451    1.965   .     S
Cu439  Cu440   2.698   .     S
Cu439  N446    2.028   .     S
Cu439  O447    1.970   .     S
Cu440  O448    1.970   .     S
Cu440  O453    1.959   .     S
Cu440  O452    1.965   .     S
Cu440  N445    2.028   .     S
Cu440  O449    1.966   .     S
N446   N757    1.299   .     S
N446   C779    1.386   .     S
C457   N458    1.157   .     T
C457   C749    1.446   .     S
C459   N460    1.157   .     T
C461   N462    1.158   .     T
C461   C525    1.457   .     S
C463   N464    1.158   .     T
C465   N466    1.158   .     T
C465   N757    1.386   .     S
C467   N468    1.158   .     T
C469   C473    1.431   .     S
C469   O501    1.294   .     A
C469   O499    1.289   .     A
C470   O502    1.294   .     A
C470   C474    1.431   .     S
C470   O500    1.289   .     A
C471   H495    1.086   .     S
C471   C488    1.399   .     A
C472   H496    1.086   .     S
C472   C487    1.399   .     A
C472   C438    1.394   1_655 S
C474   C577    1.357   .     S
C474   C619    1.457   .     S
C475   O505    1.297   .     A
C475   O503    1.300   .     A
C475   C480    1.455   .     S
C476   O506    1.297   .     A
C476   C479    1.455   .     S
C476   O504    1.300   .     A
C477   H493    1.085   .     S
C477   C479    1.398   .     A
C477   C487    1.389   .     A
C478   H494    1.085   .     S
C478   C480    1.398   .     A
C478   C488    1.389   .     A
C479   C481    1.399   .     A
C480   C482    1.399   .     A
C481   C483    1.400   .     A
C481   H507    1.083   .     S
C482   C484    1.400   .     A
C482   H508    1.083   .     S
C483   C489    1.413   .     A
C483   C485    1.418   .     A
C484   C486    1.418   .     A
C484   C490    1.413   .     A
C485   C487    1.411   .     A
C485   C434    1.402   1_655 S
C486   C488    1.411   .     A
C489   C419    1.394   1_655 S
C490   C823    1.446   .     S
Cu491  O506    1.959   .     S
Cu491  O502    1.966   .     S
Cu491  O503    1.965   .     S
Cu491  Cu492   2.698   .     S
Cu491  N498    2.028   .     S
Cu491  O499    1.970   .     S
Cu492  O500    1.970   .     S
Cu492  O505    1.959   .     S
Cu492  O504    1.965   .     S
Cu492  N497    2.028   .     S
Cu492  O501    1.966   .     S
N498   N809    1.299   .     S
N498   C831    1.386   .     S
C509   N510    1.157   .     T
C509   C801    1.446   .     S
C511   N512    1.157   .     T
C513   N514    1.158   .     T
C513   C577    1.457   .     S
C515   N516    1.158   .     T
C517   N518    1.158   .     T
C517   N809    1.386   .     S
C519   N520    1.158   .     T
C521   C525    1.431   .     S
C521   O553    1.294   .     A
C521   O551    1.289   .     A
C522   O554    1.294   .     A
C522   C526    1.431   .     S
C522   O552    1.289   .     A
C523   H547    1.086   .     S
C523   C540    1.399   .     A
C523   C593    1.394   1_455 S
C524   H548    1.086   .     S
C524   C539    1.399   .     A
C524   C594    1.394   .     S
C526   C317    1.357   1_565 S
C526   C359    1.457   1_565 S
C527   O557    1.297   .     A
C527   O555    1.300   .     A
C527   C532    1.455   .     S
C528   O558    1.297   .     A
C528   C531    1.455   .     S
C528   O556    1.300   .     A
C529   H545    1.085   .     S
C529   C531    1.398   .     A
C529   C539    1.389   .     A
C530   H546    1.085   .     S
C530   C532    1.398   .     A
C530   C540    1.389   .     A
C531   C533    1.399   .     A
C532   C534    1.399   .     A
C533   C535    1.400   .     A
C533   H559    1.083   .     S
C534   C536    1.400   .     A
C534   H560    1.083   .     S
C535   C541    1.413   .     A
C535   C537    1.418   .     A
C536   C538    1.418   .     A
C536   C542    1.413   .     A
C537   C539    1.411   .     A
C537   C590    1.402   .     S
C538   C540    1.411   .     A
C538   C589    1.402   1_455 S
C541   C575    1.394   .     S
C542   C576    1.394   1_455 S
C542   C875    1.446   .     S
Cu543  O558    1.959   .     S
Cu543  O554    1.966   .     S
Cu543  O555    1.965   .     S
Cu543  Cu544   2.698   .     S
Cu543  N550    2.028   .     S
Cu543  O551    1.970   .     S
Cu544  O552    1.970   .     S
Cu544  O557    1.959   .     S
Cu544  O556    1.965   .     S
Cu544  N549    2.028   .     S
Cu544  O553    1.966   .     S
N550   N861    1.299   .     S
N550   C883    1.386   .     S
C561   N562    1.157   .     T
C561   C853    1.446   .     S
C563   N564    1.157   .     T
C565   N566    1.158   .     T
C565   C317    1.457   1_565 S
C567   N568    1.158   .     T
C569   N570    1.158   .     T
C569   N861    1.386   .     S
C571   N572    1.158   .     T
C573   C577    1.431   .     S
C573   O605    1.294   .     A
C573   O603    1.289   .     A
C574   O606    1.294   .     A
C574   C578    1.431   .     S
C574   O604    1.289   .     A
C575   H599    1.086   .     S
C575   C592    1.399   .     A
C576   H600    1.086   .     S
C576   C591    1.399   .     A
C576   C542    1.394   1_655 S
C578   C369    1.357   1_565 S
C578   C411    1.457   1_565 S
C579   O609    1.297   .     A
C579   O607    1.300   .     A
C579   C584    1.455   .     S
C580   O610    1.297   .     A
C580   C583    1.455   .     S
C580   O608    1.300   .     A
C581   H597    1.085   .     S
C581   C583    1.398   .     A
C581   C591    1.389   .     A
C582   H598    1.085   .     S
C582   C584    1.398   .     A
C582   C592    1.389   .     A
C583   C585    1.399   .     A
C584   C586    1.399   .     A
C585   C587    1.400   .     A
C585   H611    1.083   .     S
C586   C588    1.400   .     A
C586   H612    1.083   .     S
C587   C593    1.413   .     A
C587   C589    1.418   .     A
C588   C590    1.418   .     A
C588   C594    1.413   .     A
C589   C591    1.411   .     A
C589   C538    1.402   1_655 S
C590   C592    1.411   .     A
C593   C523    1.394   1_655 S
C594   C927    1.446   .     S
Cu595  O610    1.959   .     S
Cu595  O606    1.966   .     S
Cu595  O607    1.965   .     S
Cu595  Cu596   2.698   .     S
Cu595  N602    2.028   .     S
Cu595  O603    1.970   .     S
Cu596  O604    1.970   .     S
Cu596  O609    1.959   .     S
Cu596  O608    1.965   .     S
Cu596  N601    2.028   .     S
Cu596  O605    1.966   .     S
N602   N913    1.299   .     S
N602   C935    1.386   .     S
C613   N614    1.157   .     T
C613   C905    1.446   .     S
C615   N616    1.157   .     T
C617   N618    1.158   .     T
C617   C369    1.457   1_565 S
C619   N620    1.158   .     T
C621   N622    1.158   .     T
C621   N913    1.386   .     S
C623   N624    1.158   .     T
C625   C629    1.431   .     S
C625   O657    1.294   .     A
C625   O655    1.289   .     A
C626   O658    1.294   .     A
C626   C630    1.431   .     S
C626   O656    1.289   .     A
C627   H651    1.086   .     S
C627   C644    1.399   .     A
C627   C697    1.394   1_455 S
C628   H652    1.086   .     S
C628   C643    1.399   .     A
C628   C698    1.394   .     S
C629   C838    1.357   1_545 S
C629   C877    1.457   1_545 S
C630   C733    1.357   .     S
C630   C775    1.457   .     S
C631   O661    1.297   .     A
C631   O659    1.300   .     A
C631   C636    1.455   .     S
C632   O662    1.297   .     A
C632   C635    1.455   .     S
C632   O660    1.300   .     A
C633   H649    1.085   .     S
C633   C635    1.398   .     A
C633   C643    1.389   .     A
C634   H650    1.085   .     S
C634   C636    1.398   .     A
C634   C644    1.389   .     A
C635   C637    1.399   .     A
C636   C638    1.399   .     A
C637   C639    1.400   .     A
C637   H663    1.083   .     S
C638   C640    1.400   .     A
C638   H664    1.083   .     S
C639   C645    1.413   .     A
C639   C641    1.418   .     A
C640   C642    1.418   .     A
C640   C646    1.413   .     A
C641   C643    1.411   .     A
C641   C694    1.402   .     S
C642   C644    1.411   .     A
C642   C693    1.402   1_455 S
C645   C679    1.394   .     S
C646   C680    1.394   1_455 S
C646   C43     1.446   1_556 S
Cu647  O662    1.959   .     S
Cu647  O658    1.966   .     S
Cu647  O659    1.965   .     S
Cu647  Cu648   2.698   .     S
Cu647  N654    2.028   .     S
Cu647  O655    1.970   .     S
Cu648  O656    1.970   .     S
Cu648  O661    1.959   .     S
Cu648  O660    1.965   .     S
Cu648  N653    2.028   .     S
Cu648  O657    1.966   .     S
N654   N29     1.299   1_556 S
N654   C51     1.386   1_556 S
C665   N666    1.157   .     T
C665   C21     1.446   1_556 S
C667   N668    1.157   .     T
C669   N670    1.158   .     T
C669   C733    1.457   .     S
C671   N672    1.158   .     T
C671   C838    1.457   1_545 S
C673   N674    1.158   .     T
C673   N29     1.386   1_556 S
C675   N676    1.158   .     T
C677   C681    1.431   .     S
C677   O709    1.294   .     A
C677   O707    1.289   .     A
C678   O710    1.294   .     A
C678   C682    1.431   .     S
C678   O708    1.289   .     A
C679   H703    1.086   .     S
C679   C696    1.399   .     A
C680   H704    1.086   .     S
C680   C695    1.399   .     A
C680   C646    1.394   1_655 S
C681   C890    1.357   1_545 S
C681   C929    1.457   1_545 S
C682   C785    1.357   .     S
C682   C827    1.457   .     S
C683   O713    1.297   .     A
C683   O711    1.300   .     A
C683   C688    1.455   .     S
C684   O714    1.297   .     A
C684   C687    1.455   .     S
C684   O712    1.300   .     A
C685   H701    1.085   .     S
C685   C687    1.398   .     A
C685   C695    1.389   .     A
C686   H702    1.085   .     S
C686   C688    1.398   .     A
C686   C696    1.389   .     A
C687   C689    1.399   .     A
C688   C690    1.399   .     A
C689   C691    1.400   .     A
C689   H715    1.083   .     S
C690   C692    1.400   .     A
C690   H716    1.083   .     S
C691   C697    1.413   .     A
C691   C693    1.418   .     A
C692   C694    1.418   .     A
C692   C698    1.413   .     A
C693   C695    1.411   .     A
C693   C642    1.402   1_655 S
C694   C696    1.411   .     A
C697   C627    1.394   1_655 S
C698   C95     1.446   1_556 S
Cu699  O714    1.959   .     S
Cu699  O710    1.966   .     S
Cu699  O711    1.965   .     S
Cu699  Cu700   2.698   .     S
Cu699  N706    2.028   .     S
Cu699  O707    1.970   .     S
Cu700  O708    1.970   .     S
Cu700  O713    1.959   .     S
Cu700  O712    1.965   .     S
Cu700  N705    2.028   .     S
Cu700  O709    1.966   .     S
N706   N81     1.299   1_556 S
N706   C103    1.386   1_556 S
C717   N718    1.157   .     T
C717   C73     1.446   1_556 S
C719   N720    1.157   .     T
C721   N722    1.158   .     T
C721   C785    1.457   .     S
C723   N724    1.158   .     T
C723   C890    1.457   1_545 S
C725   N726    1.158   .     T
C725   N81     1.386   1_556 S
C727   N728    1.158   .     T
C729   C733    1.431   .     S
C729   O761    1.294   .     A
C729   O759    1.289   .     A
C730   O762    1.294   .     A
C730   C734    1.431   .     S
C730   O760    1.289   .     A
C731   H755    1.086   .     S
C731   C748    1.399   .     A
C731   C801    1.394   1_455 S
C732   H756    1.086   .     S
C732   C747    1.399   .     A
C732   C802    1.394   .     S
C734   C837    1.357   .     S
C734   C879    1.457   .     S
C735   O765    1.297   .     A
C735   O763    1.300   .     A
C735   C740    1.455   .     S
C736   O766    1.297   .     A
C736   C739    1.455   .     S
C736   O764    1.300   .     A
C737   H753    1.085   .     S
C737   C739    1.398   .     A
C737   C747    1.389   .     A
C738   H754    1.085   .     S
C738   C740    1.398   .     A
C738   C748    1.389   .     A
C739   C741    1.399   .     A
C740   C742    1.399   .     A
C741   C743    1.400   .     A
C741   H767    1.083   .     S
C742   C744    1.400   .     A
C742   H768    1.083   .     S
C743   C749    1.413   .     A
C743   C745    1.418   .     A
C744   C746    1.418   .     A
C744   C750    1.413   .     A
C745   C747    1.411   .     A
C745   C798    1.402   .     S
C746   C748    1.411   .     A
C746   C797    1.402   1_455 S
C749   C783    1.394   .     S
C750   C784    1.394   1_455 S
C750   C147    1.446   1_556 S
Cu751  O766    1.959   .     S
Cu751  O762    1.966   .     S
Cu751  O763    1.965   .     S
Cu751  Cu752   2.698   .     S
Cu751  N758    2.028   .     S
Cu751  O759    1.970   .     S
Cu752  O760    1.970   .     S
Cu752  O765    1.959   .     S
Cu752  O764    1.965   .     S
Cu752  N757    2.028   .     S
Cu752  O761    1.966   .     S
N758   N133    1.299   1_556 S
N758   C155    1.386   1_556 S
C769   N770    1.157   .     T
C769   C125    1.446   1_556 S
C771   N772    1.157   .     T
C773   N774    1.158   .     T
C773   C837    1.457   .     S
C775   N776    1.158   .     T
C777   N778    1.158   .     T
C777   N133    1.386   1_556 S
C779   N780    1.158   .     T
C781   C785    1.431   .     S
C781   O813    1.294   .     A
C781   O811    1.289   .     A
C782   O814    1.294   .     A
C782   C786    1.431   .     S
C782   O812    1.289   .     A
C783   H807    1.086   .     S
C783   C800    1.399   .     A
C784   H808    1.086   .     S
C784   C799    1.399   .     A
C784   C750    1.394   1_655 S
C786   C889    1.357   .     S
C786   C931    1.457   .     S
C787   O817    1.297   .     A
C787   O815    1.300   .     A
C787   C792    1.455   .     S
C788   O818    1.297   .     A
C788   C791    1.455   .     S
C788   O816    1.300   .     A
C789   H805    1.085   .     S
C789   C791    1.398   .     A
C789   C799    1.389   .     A
C790   H806    1.085   .     S
C790   C792    1.398   .     A
C790   C800    1.389   .     A
C791   C793    1.399   .     A
C792   C794    1.399   .     A
C793   C795    1.400   .     A
C793   H819    1.083   .     S
C794   C796    1.400   .     A
C794   H820    1.083   .     S
C795   C801    1.413   .     A
C795   C797    1.418   .     A
C796   C798    1.418   .     A
C796   C802    1.413   .     A
C797   C799    1.411   .     A
C797   C746    1.402   1_655 S
C798   C800    1.411   .     A
C801   C731    1.394   1_655 S
C802   C199    1.446   1_556 S
Cu803  O818    1.959   .     S
Cu803  O814    1.966   .     S
Cu803  O815    1.965   .     S
Cu803  Cu804   2.698   .     S
Cu803  N810    2.028   .     S
Cu803  O811    1.970   .     S
Cu804  O812    1.970   .     S
Cu804  O817    1.959   .     S
Cu804  O816    1.965   .     S
Cu804  N809    2.028   .     S
Cu804  O813    1.966   .     S
N810   N185    1.299   1_556 S
N810   C207    1.386   1_556 S
C821   N822    1.157   .     T
C821   C177    1.446   1_556 S
C823   N824    1.157   .     T
C825   N826    1.158   .     T
C825   C889    1.457   .     S
C827   N828    1.158   .     T
C829   N830    1.158   .     T
C829   N185    1.386   1_556 S
C831   N832    1.158   .     T
C833   C837    1.431   .     S
C833   O865    1.294   .     A
C833   O863    1.289   .     A
C834   O866    1.294   .     A
C834   C838    1.431   .     S
C834   O864    1.289   .     A
C835   H859    1.086   .     S
C835   C852    1.399   .     A
C835   C905    1.394   1_455 S
C836   H860    1.086   .     S
C836   C851    1.399   .     A
C836   C906    1.394   .     S
C838   C629    1.357   1_565 S
C838   C671    1.457   1_565 S
C839   O869    1.297   .     A
C839   O867    1.300   .     A
C839   C844    1.455   .     S
C840   O870    1.297   .     A
C840   C843    1.455   .     S
C840   O868    1.300   .     A
C841   H857    1.085   .     S
C841   C843    1.398   .     A
C841   C851    1.389   .     A
C842   H858    1.085   .     S
C842   C844    1.398   .     A
C842   C852    1.389   .     A
C843   C845    1.399   .     A
C844   C846    1.399   .     A
C845   C847    1.400   .     A
C845   H871    1.083   .     S
C846   C848    1.400   .     A
C846   H872    1.083   .     S
C847   C853    1.413   .     A
C847   C849    1.418   .     A
C848   C850    1.418   .     A
C848   C854    1.413   .     A
C849   C851    1.411   .     A
C849   C902    1.402   .     S
C850   C852    1.411   .     A
C850   C901    1.402   1_455 S
C853   C887    1.394   .     S
C854   C888    1.394   1_455 S
C854   C251    1.446   1_556 S
Cu855  O870    1.959   .     S
Cu855  O866    1.966   .     S
Cu855  O867    1.965   .     S
Cu855  Cu856   2.698   .     S
Cu855  N862    2.028   .     S
Cu855  O863    1.970   .     S
Cu856  O864    1.970   .     S
Cu856  O869    1.959   .     S
Cu856  O868    1.965   .     S
Cu856  N861    2.028   .     S
Cu856  O865    1.966   .     S
N862   N237    1.299   1_556 S
N862   C259    1.386   1_556 S
C873   N874    1.157   .     T
C873   C229    1.446   1_556 S
C875   N876    1.157   .     T
C877   N878    1.158   .     T
C877   C629    1.457   1_565 S
C879   N880    1.158   .     T
C881   N882    1.158   .     T
C881   N237    1.386   1_556 S
C883   N884    1.158   .     T
C885   C889    1.431   .     S
C885   O917    1.294   .     A
C885   O915    1.289   .     A
C886   O918    1.294   .     A
C886   C890    1.431   .     S
C886   O916    1.289   .     A
C887   H911    1.086   .     S
C887   C904    1.399   .     A
C888   H912    1.086   .     S
C888   C903    1.399   .     A
C888   C854    1.394   1_655 S
C890   C681    1.357   1_565 S
C890   C723    1.457   1_565 S
C891   O921    1.297   .     A
C891   O919    1.300   .     A
C891   C896    1.455   .     S
C892   O922    1.297   .     A
C892   C895    1.455   .     S
C892   O920    1.300   .     A
C893   H909    1.085   .     S
C893   C895    1.398   .     A
C893   C903    1.389   .     A
C894   H910    1.085   .     S
C894   C896    1.398   .     A
C894   C904    1.389   .     A
C895   C897    1.399   .     A
C896   C898    1.399   .     A
C897   C899    1.400   .     A
C897   H923    1.083   .     S
C898   C900    1.400   .     A
C898   H924    1.083   .     S
C899   C905    1.413   .     A
C899   C901    1.418   .     A
C900   C902    1.418   .     A
C900   C906    1.413   .     A
C901   C903    1.411   .     A
C901   C850    1.402   1_655 S
C902   C904    1.411   .     A
C905   C835    1.394   1_655 S
C906   C303    1.446   1_556 S
Cu907  O922    1.959   .     S
Cu907  O918    1.966   .     S
Cu907  O919    1.965   .     S
Cu907  Cu908   2.698   .     S
Cu907  N914    2.028   .     S
Cu907  O915    1.970   .     S
Cu908  O916    1.970   .     S
Cu908  O921    1.959   .     S
Cu908  O920    1.965   .     S
Cu908  N913    2.028   .     S
Cu908  O917    1.966   .     S
N914   N289    1.299   1_556 S
N914   C311    1.386   1_556 S
C925   N926    1.157   .     T
C925   C281    1.446   1_556 S
C927   N928    1.157   .     T
C929   N930    1.158   .     T
C929   C681    1.457   1_565 S
C931   N932    1.158   .     T
C933   N934    1.158   .     T
C933   N289    1.386   1_556 S
C935   N936    1.158   .     T
