data_str_m2_o10_o18_pcu_sym.127
_audit_creation_date              2020-01-03
_audit_creation_method            'Materials Studio'
_symmetry_space_group_name_H-M    'P1'
_symmetry_Int_Tables_number       1
_symmetry_cell_setting            triclinic
loop_
_symmetry_equiv_pos_as_xyz
  x,y,z
_cell_length_a                    22.3100
_cell_length_b                    26.2237
_cell_length_c                    31.4702
_cell_angle_alpha                 94.1232
_cell_angle_beta                  74.8295
_cell_angle_gamma                 102.7429
loop_
_atom_site_label
_atom_site_type_symbol
_atom_site_fract_x
_atom_site_fract_y
_atom_site_fract_z
_atom_site_U_iso_or_equiv
_atom_site_adp_type
_atom_site_occupancy
C1     C     0.18089   0.26645   0.25192   0.00000  Uiso   1.00
C2     C     0.15245   0.06688   0.24808   0.00000  Uiso   1.00
C3     C     0.09110   0.13731   0.04130   0.00000  Uiso   1.00
C4     C     0.24223   0.19603   0.45870   0.00000  Uiso   1.00
C5     C     0.05177   0.11668   0.01384   0.00000  Uiso   1.00
C6     C     0.28157   0.21666   0.48616   0.00000  Uiso   1.00
C7     C     0.18423   0.32127   0.25881   0.00000  Uiso   1.00
C8     C     0.14910   0.01206   0.24119   0.00000  Uiso   1.00
C9     C     0.12783   0.16221   0.33315   0.00000  Uiso   1.00
C10    C     0.20550   0.17113   0.16685   0.00000  Uiso   1.00
C11    C     0.10386   0.15337   0.38056   0.00000  Uiso   1.00
C12    C     0.22947   0.17996   0.11945   0.00000  Uiso   1.00
C13    C     0.02983   0.10583   0.44227   0.00000  Uiso   1.00
C14    C     0.30351   0.22750   0.05773   0.00000  Uiso   1.00
C15    C     0.04736   0.11768   0.39768   0.00000  Uiso   1.00
C16    C     0.28597   0.21565   0.10232   0.00000  Uiso   1.00
C17    C     0.14276   0.17596   0.40808   0.00000  Uiso   1.00
C18    C     0.19057   0.15737   0.09192   0.00000  Uiso   1.00
C19    C     0.13171   0.15784   0.45093   0.00000  Uiso   1.00
C20    C     0.20163   0.17550   0.04907   0.00000  Uiso   1.00
C21    C     0.07150   0.12581   0.46897   0.00000  Uiso   1.00
C22    C     0.26183   0.20752   0.03103   0.00000  Uiso   1.00
C23    C     0.17695   0.17220   0.47689   0.00000  Uiso   1.00
C24    C     0.15638   0.16113   0.02311   0.00000  Uiso   1.00
Cu25   Cu    0.10737   0.16108   0.24517   0.00000  Uiso   1.00
Cu26   Cu    0.22596   0.17225   0.25484   0.00000  Uiso   1.00
H27    H     0.00338   0.09644   0.02820   0.00000  Uiso   1.00
H28    H     0.32995   0.23689   0.47180   0.00000  Uiso   1.00
H29    H     0.15293   0.12462   0.10451   0.00000  Uiso   1.00
H30    H     0.18041   0.20871   0.39549   0.00000  Uiso   1.00
H31    H     0.31660   0.23385   0.12322   0.00000  Uiso   1.00
H32    H     0.01673   0.09948   0.37678   0.00000  Uiso   1.00
H33    H     0.31756   0.08040   0.45574   0.00000  Uiso   1.00
H34    H     0.01577   0.25293   0.04426   0.00000  Uiso   1.00
H35    H     0.00123   0.20500   0.28437   0.00000  Uiso   1.00
H36    H     0.33210   0.12833   0.21563   0.00000  Uiso   1.00
N37    N     0.31506   0.18068   0.26212   0.00000  Uiso   1.00
N38    N     0.01827   0.15265   0.23788   0.00000  Uiso   1.00
O39    O     0.12815   0.23809   0.24686   0.00000  Uiso   1.00
O40    O     0.20518   0.09524   0.25314   0.00000  Uiso   1.00
O41    O     0.22829   0.24753   0.25503   0.00000  Uiso   1.00
O42    O     0.10504   0.08580   0.24498   0.00000  Uiso   1.00
O43    O     0.08851   0.15930   0.30855   0.00000  Uiso   1.00
O44    O     0.24482   0.17403   0.19146   0.00000  Uiso   1.00
O45    O     0.18866   0.16874   0.31671   0.00000  Uiso   1.00
O46    O     0.14468   0.16460   0.18329   0.00000  Uiso   1.00
Cl47   Cl    0.05035   0.13860   0.09758   0.00000  Uiso   1.00
Cl48   Cl    0.28298   0.19473   0.40242   0.00000  Uiso   1.00
Cl49   Cl    0.22877   0.01795   0.29664   0.00000  Uiso   1.00
Cl50   Cl    0.10457   0.31539   0.20336   0.00000  Uiso   1.00
C51    C     0.51422   0.26645   0.25192   0.00000  Uiso   1.00
C52    C     0.48578   0.06688   0.24808   0.00000  Uiso   1.00
C53    C     0.42444   0.13731   0.04130   0.00000  Uiso   1.00
C54    C     0.57556   0.19603   0.45870   0.00000  Uiso   1.00
C55    C     0.38510   0.11668   0.01384   0.00000  Uiso   1.00
C56    C     0.61490   0.21666   0.48616   0.00000  Uiso   1.00
C57    C     0.51757   0.32127   0.25881   0.00000  Uiso   1.00
C58    C     0.48243   0.01206   0.24119   0.00000  Uiso   1.00
C59    C     0.46117   0.16221   0.33315   0.00000  Uiso   1.00
C60    C     0.53883   0.17113   0.16685   0.00000  Uiso   1.00
C61    C     0.43719   0.15337   0.38056   0.00000  Uiso   1.00
C62    C     0.56281   0.17996   0.11945   0.00000  Uiso   1.00
C63    C     0.36316   0.10583   0.44227   0.00000  Uiso   1.00
C64    C     0.63684   0.22750   0.05773   0.00000  Uiso   1.00
C65    C     0.38070   0.11768   0.39768   0.00000  Uiso   1.00
C66    C     0.61931   0.21565   0.10232   0.00000  Uiso   1.00
C67    C     0.47610   0.17596   0.40808   0.00000  Uiso   1.00
C68    C     0.52390   0.15737   0.09192   0.00000  Uiso   1.00
C69    C     0.46504   0.15784   0.45093   0.00000  Uiso   1.00
C70    C     0.53496   0.17550   0.04907   0.00000  Uiso   1.00
C71    C     0.40484   0.12581   0.46897   0.00000  Uiso   1.00
C72    C     0.59516   0.20752   0.03103   0.00000  Uiso   1.00
C73    C     0.51029   0.17220   0.47689   0.00000  Uiso   1.00
C74    C     0.48971   0.16113   0.02311   0.00000  Uiso   1.00
Cu75   Cu    0.44071   0.16108   0.24517   0.00000  Uiso   1.00
Cu76   Cu    0.55929   0.17225   0.25484   0.00000  Uiso   1.00
H77    H     0.33671   0.09644   0.02820   0.00000  Uiso   1.00
H78    H     0.66329   0.23689   0.47180   0.00000  Uiso   1.00
H79    H     0.48626   0.12462   0.10451   0.00000  Uiso   1.00
H80    H     0.51374   0.20871   0.39549   0.00000  Uiso   1.00
H81    H     0.64994   0.23385   0.12322   0.00000  Uiso   1.00
H82    H     0.35006   0.09948   0.37678   0.00000  Uiso   1.00
H83    H     0.65090   0.08040   0.45574   0.00000  Uiso   1.00
H84    H     0.34910   0.25293   0.04426   0.00000  Uiso   1.00
H85    H     0.33456   0.20500   0.28437   0.00000  Uiso   1.00
H86    H     0.66544   0.12833   0.21563   0.00000  Uiso   1.00
N87    N     0.64839   0.18068   0.26212   0.00000  Uiso   1.00
N88    N     0.35161   0.15265   0.23788   0.00000  Uiso   1.00
O89    O     0.46148   0.23809   0.24686   0.00000  Uiso   1.00
O90    O     0.53852   0.09524   0.25314   0.00000  Uiso   1.00
O91    O     0.56163   0.24753   0.25503   0.00000  Uiso   1.00
O92    O     0.43837   0.08580   0.24498   0.00000  Uiso   1.00
O93    O     0.42185   0.15930   0.30855   0.00000  Uiso   1.00
O94    O     0.57815   0.17403   0.19146   0.00000  Uiso   1.00
O95    O     0.52199   0.16874   0.31671   0.00000  Uiso   1.00
O96    O     0.47801   0.16460   0.18329   0.00000  Uiso   1.00
Cl97   Cl    0.38369   0.13860   0.09758   0.00000  Uiso   1.00
Cl98   Cl    0.61631   0.19473   0.40242   0.00000  Uiso   1.00
Cl99   Cl    0.56210   0.01795   0.29664   0.00000  Uiso   1.00
Cl100  Cl    0.43790   0.31539   0.20336   0.00000  Uiso   1.00
C101   C     0.84755   0.26645   0.25192   0.00000  Uiso   1.00
C102   C     0.81911   0.06688   0.24808   0.00000  Uiso   1.00
C103   C     0.75777   0.13731   0.04130   0.00000  Uiso   1.00
C104   C     0.90890   0.19603   0.45870   0.00000  Uiso   1.00
C105   C     0.71843   0.11668   0.01384   0.00000  Uiso   1.00
C106   C     0.94823   0.21666   0.48616   0.00000  Uiso   1.00
C107   C     0.85090   0.32127   0.25881   0.00000  Uiso   1.00
C108   C     0.81577   0.01206   0.24119   0.00000  Uiso   1.00
C109   C     0.79450   0.16221   0.33315   0.00000  Uiso   1.00
C110   C     0.87217   0.17113   0.16685   0.00000  Uiso   1.00
C111   C     0.77053   0.15337   0.38056   0.00000  Uiso   1.00
C112   C     0.89614   0.17996   0.11945   0.00000  Uiso   1.00
C113   C     0.69649   0.10583   0.44227   0.00000  Uiso   1.00
C114   C     0.97017   0.22750   0.05773   0.00000  Uiso   1.00
C115   C     0.71403   0.11768   0.39768   0.00000  Uiso   1.00
C116   C     0.95264   0.21565   0.10232   0.00000  Uiso   1.00
C117   C     0.80943   0.17596   0.40808   0.00000  Uiso   1.00
C118   C     0.85724   0.15737   0.09192   0.00000  Uiso   1.00
C119   C     0.79837   0.15784   0.45093   0.00000  Uiso   1.00
C120   C     0.86829   0.17550   0.04907   0.00000  Uiso   1.00
C121   C     0.73817   0.12581   0.46897   0.00000  Uiso   1.00
C122   C     0.92850   0.20752   0.03103   0.00000  Uiso   1.00
C123   C     0.84362   0.17220   0.47689   0.00000  Uiso   1.00
C124   C     0.82305   0.16113   0.02311   0.00000  Uiso   1.00
Cu125  Cu    0.77404   0.16108   0.24517   0.00000  Uiso   1.00
Cu126  Cu    0.89263   0.17225   0.25484   0.00000  Uiso   1.00
H127   H     0.67005   0.09644   0.02820   0.00000  Uiso   1.00
H128   H     0.99662   0.23689   0.47180   0.00000  Uiso   1.00
H129   H     0.81960   0.12462   0.10451   0.00000  Uiso   1.00
H130   H     0.84707   0.20871   0.39549   0.00000  Uiso   1.00
H131   H     0.98327   0.23385   0.12322   0.00000  Uiso   1.00
H132   H     0.68340   0.09948   0.37678   0.00000  Uiso   1.00
H133   H     0.98423   0.08040   0.45574   0.00000  Uiso   1.00
H134   H     0.68244   0.25293   0.04426   0.00000  Uiso   1.00
H135   H     0.66790   0.20500   0.28437   0.00000  Uiso   1.00
H136   H     0.99877   0.12833   0.21563   0.00000  Uiso   1.00
N137   N     0.98173   0.18068   0.26212   0.00000  Uiso   1.00
N138   N     0.68494   0.15265   0.23788   0.00000  Uiso   1.00
O139   O     0.79482   0.23809   0.24686   0.00000  Uiso   1.00
O140   O     0.87185   0.09524   0.25314   0.00000  Uiso   1.00
O141   O     0.89496   0.24753   0.25503   0.00000  Uiso   1.00
O142   O     0.77171   0.08580   0.24498   0.00000  Uiso   1.00
O143   O     0.75518   0.15930   0.30855   0.00000  Uiso   1.00
O144   O     0.91149   0.17403   0.19146   0.00000  Uiso   1.00
O145   O     0.85532   0.16874   0.31671   0.00000  Uiso   1.00
O146   O     0.81134   0.16460   0.18329   0.00000  Uiso   1.00
Cl147  Cl    0.71702   0.13860   0.09758   0.00000  Uiso   1.00
Cl148  Cl    0.94965   0.19473   0.40242   0.00000  Uiso   1.00
Cl149  Cl    0.89543   0.01795   0.29664   0.00000  Uiso   1.00
Cl150  Cl    0.77123   0.31539   0.20336   0.00000  Uiso   1.00
C151   C     0.18089   0.59978   0.25192   0.00000  Uiso   1.00
C152   C     0.15245   0.40022   0.24808   0.00000  Uiso   1.00
C153   C     0.09110   0.47064   0.04130   0.00000  Uiso   1.00
C154   C     0.24223   0.52936   0.45870   0.00000  Uiso   1.00
C155   C     0.05177   0.45001   0.01384   0.00000  Uiso   1.00
C156   C     0.28157   0.54999   0.48616   0.00000  Uiso   1.00
C157   C     0.18423   0.65461   0.25881   0.00000  Uiso   1.00
C158   C     0.14910   0.34539   0.24119   0.00000  Uiso   1.00
C159   C     0.12783   0.49554   0.33315   0.00000  Uiso   1.00
C160   C     0.20550   0.50446   0.16685   0.00000  Uiso   1.00
C161   C     0.10386   0.48670   0.38056   0.00000  Uiso   1.00
C162   C     0.22947   0.51330   0.11945   0.00000  Uiso   1.00
C163   C     0.02983   0.43916   0.44227   0.00000  Uiso   1.00
C164   C     0.30351   0.56084   0.05773   0.00000  Uiso   1.00
C165   C     0.04736   0.45102   0.39768   0.00000  Uiso   1.00
C166   C     0.28597   0.54898   0.10232   0.00000  Uiso   1.00
C167   C     0.14276   0.50930   0.40808   0.00000  Uiso   1.00
C168   C     0.19057   0.49070   0.09192   0.00000  Uiso   1.00
C169   C     0.13171   0.49117   0.45093   0.00000  Uiso   1.00
C170   C     0.20163   0.50883   0.04907   0.00000  Uiso   1.00
C171   C     0.07150   0.45915   0.46897   0.00000  Uiso   1.00
C172   C     0.26183   0.54085   0.03103   0.00000  Uiso   1.00
C173   C     0.17695   0.50554   0.47689   0.00000  Uiso   1.00
C174   C     0.15638   0.49446   0.02311   0.00000  Uiso   1.00
Cu175  Cu    0.10737   0.49441   0.24517   0.00000  Uiso   1.00
Cu176  Cu    0.22596   0.50559   0.25484   0.00000  Uiso   1.00
H177   H     0.00338   0.42978   0.02820   0.00000  Uiso   1.00
H178   H     0.32995   0.57022   0.47180   0.00000  Uiso   1.00
H179   H     0.15293   0.45796   0.10451   0.00000  Uiso   1.00
H180   H     0.18041   0.54204   0.39549   0.00000  Uiso   1.00
H181   H     0.31660   0.56719   0.12322   0.00000  Uiso   1.00
H182   H     0.01673   0.43281   0.37678   0.00000  Uiso   1.00
H183   H     0.31756   0.41374   0.45574   0.00000  Uiso   1.00
H184   H     0.01577   0.58626   0.04426   0.00000  Uiso   1.00
H185   H     0.00123   0.53833   0.28437   0.00000  Uiso   1.00
H186   H     0.33210   0.46167   0.21563   0.00000  Uiso   1.00
N187   N     0.31506   0.51401   0.26212   0.00000  Uiso   1.00
N188   N     0.01827   0.48599   0.23788   0.00000  Uiso   1.00
O189   O     0.12815   0.57142   0.24686   0.00000  Uiso   1.00
O190   O     0.20518   0.42858   0.25314   0.00000  Uiso   1.00
O191   O     0.22829   0.58086   0.25503   0.00000  Uiso   1.00
O192   O     0.10504   0.41914   0.24498   0.00000  Uiso   1.00
O193   O     0.08851   0.49263   0.30855   0.00000  Uiso   1.00
O194   O     0.24482   0.50737   0.19146   0.00000  Uiso   1.00
O195   O     0.18866   0.50207   0.31671   0.00000  Uiso   1.00
O196   O     0.14468   0.49793   0.18329   0.00000  Uiso   1.00
Cl197  Cl    0.05035   0.47194   0.09758   0.00000  Uiso   1.00
Cl198  Cl    0.28298   0.52806   0.40242   0.00000  Uiso   1.00
Cl199  Cl    0.22877   0.35128   0.29664   0.00000  Uiso   1.00
Cl200  Cl    0.10457   0.64872   0.20336   0.00000  Uiso   1.00
C201   C     0.51422   0.59978   0.25192   0.00000  Uiso   1.00
C202   C     0.48578   0.40022   0.24808   0.00000  Uiso   1.00
C203   C     0.42444   0.47064   0.04130   0.00000  Uiso   1.00
C204   C     0.57556   0.52936   0.45870   0.00000  Uiso   1.00
C205   C     0.38510   0.45001   0.01384   0.00000  Uiso   1.00
C206   C     0.61490   0.54999   0.48616   0.00000  Uiso   1.00
C207   C     0.51757   0.65461   0.25881   0.00000  Uiso   1.00
C208   C     0.48243   0.34539   0.24119   0.00000  Uiso   1.00
C209   C     0.46117   0.49554   0.33315   0.00000  Uiso   1.00
C210   C     0.53883   0.50446   0.16685   0.00000  Uiso   1.00
C211   C     0.43719   0.48670   0.38056   0.00000  Uiso   1.00
C212   C     0.56281   0.51330   0.11945   0.00000  Uiso   1.00
C213   C     0.36316   0.43916   0.44227   0.00000  Uiso   1.00
C214   C     0.63684   0.56084   0.05773   0.00000  Uiso   1.00
C215   C     0.38070   0.45102   0.39768   0.00000  Uiso   1.00
C216   C     0.61931   0.54898   0.10232   0.00000  Uiso   1.00
C217   C     0.47610   0.50930   0.40808   0.00000  Uiso   1.00
C218   C     0.52390   0.49070   0.09192   0.00000  Uiso   1.00
C219   C     0.46504   0.49117   0.45093   0.00000  Uiso   1.00
C220   C     0.53496   0.50883   0.04907   0.00000  Uiso   1.00
C221   C     0.40484   0.45915   0.46897   0.00000  Uiso   1.00
C222   C     0.59516   0.54085   0.03103   0.00000  Uiso   1.00
C223   C     0.51029   0.50554   0.47689   0.00000  Uiso   1.00
C224   C     0.48971   0.49446   0.02311   0.00000  Uiso   1.00
Cu225  Cu    0.44071   0.49441   0.24517   0.00000  Uiso   1.00
Cu226  Cu    0.55929   0.50559   0.25484   0.00000  Uiso   1.00
H227   H     0.33671   0.42978   0.02820   0.00000  Uiso   1.00
H228   H     0.66329   0.57022   0.47180   0.00000  Uiso   1.00
H229   H     0.48626   0.45796   0.10451   0.00000  Uiso   1.00
H230   H     0.51374   0.54204   0.39549   0.00000  Uiso   1.00
H231   H     0.64994   0.56719   0.12322   0.00000  Uiso   1.00
H232   H     0.35006   0.43281   0.37678   0.00000  Uiso   1.00
H233   H     0.65090   0.41374   0.45574   0.00000  Uiso   1.00
H234   H     0.34910   0.58626   0.04426   0.00000  Uiso   1.00
H235   H     0.33456   0.53833   0.28437   0.00000  Uiso   1.00
H236   H     0.66544   0.46167   0.21563   0.00000  Uiso   1.00
N237   N     0.64839   0.51401   0.26212   0.00000  Uiso   1.00
N238   N     0.35161   0.48599   0.23788   0.00000  Uiso   1.00
O239   O     0.46148   0.57142   0.24686   0.00000  Uiso   1.00
O240   O     0.53852   0.42858   0.25314   0.00000  Uiso   1.00
O241   O     0.56163   0.58086   0.25503   0.00000  Uiso   1.00
O242   O     0.43837   0.41914   0.24498   0.00000  Uiso   1.00
O243   O     0.42185   0.49263   0.30855   0.00000  Uiso   1.00
O244   O     0.57815   0.50737   0.19146   0.00000  Uiso   1.00
O245   O     0.52199   0.50207   0.31671   0.00000  Uiso   1.00
O246   O     0.47801   0.49793   0.18329   0.00000  Uiso   1.00
Cl247  Cl    0.38369   0.47194   0.09758   0.00000  Uiso   1.00
Cl248  Cl    0.61631   0.52806   0.40242   0.00000  Uiso   1.00
Cl249  Cl    0.56210   0.35128   0.29664   0.00000  Uiso   1.00
Cl250  Cl    0.43790   0.64872   0.20336   0.00000  Uiso   1.00
C251   C     0.84755   0.59978   0.25192   0.00000  Uiso   1.00
C252   C     0.81911   0.40022   0.24808   0.00000  Uiso   1.00
C253   C     0.75777   0.47064   0.04130   0.00000  Uiso   1.00
C254   C     0.90890   0.52936   0.45870   0.00000  Uiso   1.00
C255   C     0.71843   0.45001   0.01384   0.00000  Uiso   1.00
C256   C     0.94823   0.54999   0.48616   0.00000  Uiso   1.00
C257   C     0.85090   0.65461   0.25881   0.00000  Uiso   1.00
C258   C     0.81577   0.34539   0.24119   0.00000  Uiso   1.00
C259   C     0.79450   0.49554   0.33315   0.00000  Uiso   1.00
C260   C     0.87217   0.50446   0.16685   0.00000  Uiso   1.00
C261   C     0.77053   0.48670   0.38056   0.00000  Uiso   1.00
C262   C     0.89614   0.51330   0.11945   0.00000  Uiso   1.00
C263   C     0.69649   0.43916   0.44227   0.00000  Uiso   1.00
C264   C     0.97017   0.56084   0.05773   0.00000  Uiso   1.00
C265   C     0.71403   0.45102   0.39768   0.00000  Uiso   1.00
C266   C     0.95264   0.54898   0.10232   0.00000  Uiso   1.00
C267   C     0.80943   0.50930   0.40808   0.00000  Uiso   1.00
C268   C     0.85724   0.49070   0.09192   0.00000  Uiso   1.00
C269   C     0.79837   0.49117   0.45093   0.00000  Uiso   1.00
C270   C     0.86829   0.50883   0.04907   0.00000  Uiso   1.00
C271   C     0.73817   0.45915   0.46897   0.00000  Uiso   1.00
C272   C     0.92850   0.54085   0.03103   0.00000  Uiso   1.00
C273   C     0.84362   0.50554   0.47689   0.00000  Uiso   1.00
C274   C     0.82305   0.49446   0.02311   0.00000  Uiso   1.00
Cu275  Cu    0.77404   0.49441   0.24517   0.00000  Uiso   1.00
Cu276  Cu    0.89263   0.50559   0.25484   0.00000  Uiso   1.00
H277   H     0.67005   0.42978   0.02820   0.00000  Uiso   1.00
H278   H     0.99662   0.57022   0.47180   0.00000  Uiso   1.00
H279   H     0.81960   0.45796   0.10451   0.00000  Uiso   1.00
H280   H     0.84707   0.54204   0.39549   0.00000  Uiso   1.00
H281   H     0.98327   0.56719   0.12322   0.00000  Uiso   1.00
H282   H     0.68340   0.43281   0.37678   0.00000  Uiso   1.00
H283   H     0.98423   0.41374   0.45574   0.00000  Uiso   1.00
H284   H     0.68244   0.58626   0.04426   0.00000  Uiso   1.00
H285   H     0.66790   0.53833   0.28437   0.00000  Uiso   1.00
H286   H     0.99877   0.46167   0.21563   0.00000  Uiso   1.00
N287   N     0.98173   0.51401   0.26212   0.00000  Uiso   1.00
N288   N     0.68494   0.48599   0.23788   0.00000  Uiso   1.00
O289   O     0.79482   0.57142   0.24686   0.00000  Uiso   1.00
O290   O     0.87185   0.42858   0.25314   0.00000  Uiso   1.00
O291   O     0.89496   0.58086   0.25503   0.00000  Uiso   1.00
O292   O     0.77171   0.41914   0.24498   0.00000  Uiso   1.00
O293   O     0.75518   0.49263   0.30855   0.00000  Uiso   1.00
O294   O     0.91149   0.50737   0.19146   0.00000  Uiso   1.00
O295   O     0.85532   0.50207   0.31671   0.00000  Uiso   1.00
O296   O     0.81134   0.49793   0.18329   0.00000  Uiso   1.00
Cl297  Cl    0.71702   0.47194   0.09758   0.00000  Uiso   1.00
Cl298  Cl    0.94965   0.52806   0.40242   0.00000  Uiso   1.00
Cl299  Cl    0.89543   0.35128   0.29664   0.00000  Uiso   1.00
Cl300  Cl    0.77123   0.64872   0.20336   0.00000  Uiso   1.00
C301   C     0.18089   0.93312   0.25192   0.00000  Uiso   1.00
C302   C     0.15245   0.73355   0.24808   0.00000  Uiso   1.00
C303   C     0.09110   0.80397   0.04130   0.00000  Uiso   1.00
C304   C     0.24223   0.86269   0.45870   0.00000  Uiso   1.00
C305   C     0.05177   0.78334   0.01384   0.00000  Uiso   1.00
C306   C     0.28157   0.88332   0.48616   0.00000  Uiso   1.00
C307   C     0.18423   0.98794   0.25881   0.00000  Uiso   1.00
C308   C     0.14910   0.67873   0.24119   0.00000  Uiso   1.00
C309   C     0.12783   0.82887   0.33315   0.00000  Uiso   1.00
C310   C     0.20550   0.83779   0.16685   0.00000  Uiso   1.00
C311   C     0.10386   0.82004   0.38056   0.00000  Uiso   1.00
C312   C     0.22947   0.84663   0.11945   0.00000  Uiso   1.00
C313   C     0.02983   0.77250   0.44227   0.00000  Uiso   1.00
C314   C     0.30351   0.89417   0.05773   0.00000  Uiso   1.00
C315   C     0.04736   0.78435   0.39768   0.00000  Uiso   1.00
C316   C     0.28597   0.88232   0.10232   0.00000  Uiso   1.00
C317   C     0.14276   0.84263   0.40808   0.00000  Uiso   1.00
C318   C     0.19057   0.82404   0.09192   0.00000  Uiso   1.00
C319   C     0.13171   0.82450   0.45093   0.00000  Uiso   1.00
C320   C     0.20163   0.84216   0.04907   0.00000  Uiso   1.00
C321   C     0.07150   0.79248   0.46897   0.00000  Uiso   1.00
C322   C     0.26183   0.87419   0.03103   0.00000  Uiso   1.00
C323   C     0.17695   0.83887   0.47689   0.00000  Uiso   1.00
C324   C     0.15638   0.82780   0.02311   0.00000  Uiso   1.00
Cu325  Cu    0.10737   0.82775   0.24517   0.00000  Uiso   1.00
Cu326  Cu    0.22596   0.83892   0.25484   0.00000  Uiso   1.00
H327   H     0.00338   0.76311   0.02820   0.00000  Uiso   1.00
H328   H     0.32995   0.90355   0.47180   0.00000  Uiso   1.00
H329   H     0.15293   0.79129   0.10451   0.00000  Uiso   1.00
H330   H     0.18041   0.87538   0.39549   0.00000  Uiso   1.00
H331   H     0.31660   0.90052   0.12322   0.00000  Uiso   1.00
H332   H     0.01673   0.76615   0.37678   0.00000  Uiso   1.00
H333   H     0.31756   0.74707   0.45574   0.00000  Uiso   1.00
H334   H     0.01577   0.91960   0.04426   0.00000  Uiso   1.00
H335   H     0.00123   0.87167   0.28437   0.00000  Uiso   1.00
H336   H     0.33210   0.79500   0.21563   0.00000  Uiso   1.00
N337   N     0.31506   0.84735   0.26212   0.00000  Uiso   1.00
N338   N     0.01827   0.81932   0.23788   0.00000  Uiso   1.00
O339   O     0.12815   0.90476   0.24686   0.00000  Uiso   1.00
O340   O     0.20518   0.76191   0.25314   0.00000  Uiso   1.00
O341   O     0.22829   0.91420   0.25503   0.00000  Uiso   1.00
O342   O     0.10504   0.75247   0.24498   0.00000  Uiso   1.00
O343   O     0.08851   0.82597   0.30855   0.00000  Uiso   1.00
O344   O     0.24482   0.84070   0.19146   0.00000  Uiso   1.00
O345   O     0.18866   0.83540   0.31671   0.00000  Uiso   1.00
O346   O     0.14468   0.83126   0.18329   0.00000  Uiso   1.00
Cl347  Cl    0.05035   0.80527   0.09758   0.00000  Uiso   1.00
Cl348  Cl    0.28298   0.86140   0.40242   0.00000  Uiso   1.00
Cl349  Cl    0.22877   0.68461   0.29664   0.00000  Uiso   1.00
Cl350  Cl    0.10457   0.98205   0.20336   0.00000  Uiso   1.00
C351   C     0.51422   0.93312   0.25192   0.00000  Uiso   1.00
C352   C     0.48578   0.73355   0.24808   0.00000  Uiso   1.00
C353   C     0.42444   0.80397   0.04130   0.00000  Uiso   1.00
C354   C     0.57556   0.86269   0.45870   0.00000  Uiso   1.00
C355   C     0.38510   0.78334   0.01384   0.00000  Uiso   1.00
C356   C     0.61490   0.88332   0.48616   0.00000  Uiso   1.00
C357   C     0.51757   0.98794   0.25881   0.00000  Uiso   1.00
C358   C     0.48243   0.67873   0.24119   0.00000  Uiso   1.00
C359   C     0.46117   0.82887   0.33315   0.00000  Uiso   1.00
C360   C     0.53883   0.83779   0.16685   0.00000  Uiso   1.00
C361   C     0.43719   0.82004   0.38056   0.00000  Uiso   1.00
C362   C     0.56281   0.84663   0.11945   0.00000  Uiso   1.00
C363   C     0.36316   0.77250   0.44227   0.00000  Uiso   1.00
C364   C     0.63684   0.89417   0.05773   0.00000  Uiso   1.00
C365   C     0.38070   0.78435   0.39768   0.00000  Uiso   1.00
C366   C     0.61931   0.88232   0.10232   0.00000  Uiso   1.00
C367   C     0.47610   0.84263   0.40808   0.00000  Uiso   1.00
C368   C     0.52390   0.82404   0.09192   0.00000  Uiso   1.00
C369   C     0.46504   0.82450   0.45093   0.00000  Uiso   1.00
C370   C     0.53496   0.84216   0.04907   0.00000  Uiso   1.00
C371   C     0.40484   0.79248   0.46897   0.00000  Uiso   1.00
C372   C     0.59516   0.87419   0.03103   0.00000  Uiso   1.00
C373   C     0.51029   0.83887   0.47689   0.00000  Uiso   1.00
C374   C     0.48971   0.82780   0.02311   0.00000  Uiso   1.00
Cu375  Cu    0.44071   0.82775   0.24517   0.00000  Uiso   1.00
Cu376  Cu    0.55929   0.83892   0.25484   0.00000  Uiso   1.00
H377   H     0.33671   0.76311   0.02820   0.00000  Uiso   1.00
H378   H     0.66329   0.90355   0.47180   0.00000  Uiso   1.00
H379   H     0.48626   0.79129   0.10451   0.00000  Uiso   1.00
H380   H     0.51374   0.87538   0.39549   0.00000  Uiso   1.00
H381   H     0.64994   0.90052   0.12322   0.00000  Uiso   1.00
H382   H     0.35006   0.76615   0.37678   0.00000  Uiso   1.00
H383   H     0.65090   0.74707   0.45574   0.00000  Uiso   1.00
H384   H     0.34910   0.91960   0.04426   0.00000  Uiso   1.00
H385   H     0.33456   0.87167   0.28437   0.00000  Uiso   1.00
H386   H     0.66544   0.79500   0.21563   0.00000  Uiso   1.00
N387   N     0.64839   0.84735   0.26212   0.00000  Uiso   1.00
N388   N     0.35161   0.81932   0.23788   0.00000  Uiso   1.00
O389   O     0.46148   0.90476   0.24686   0.00000  Uiso   1.00
O390   O     0.53852   0.76191   0.25314   0.00000  Uiso   1.00
O391   O     0.56163   0.91420   0.25503   0.00000  Uiso   1.00
O392   O     0.43837   0.75247   0.24498   0.00000  Uiso   1.00
O393   O     0.42185   0.82597   0.30855   0.00000  Uiso   1.00
O394   O     0.57815   0.84070   0.19146   0.00000  Uiso   1.00
O395   O     0.52199   0.83540   0.31671   0.00000  Uiso   1.00
O396   O     0.47801   0.83126   0.18329   0.00000  Uiso   1.00
Cl397  Cl    0.38369   0.80527   0.09758   0.00000  Uiso   1.00
Cl398  Cl    0.61631   0.86140   0.40242   0.00000  Uiso   1.00
Cl399  Cl    0.56210   0.68461   0.29664   0.00000  Uiso   1.00
Cl400  Cl    0.43790   0.98205   0.20336   0.00000  Uiso   1.00
C401   C     0.84755   0.93312   0.25192   0.00000  Uiso   1.00
C402   C     0.81911   0.73355   0.24808   0.00000  Uiso   1.00
C403   C     0.75777   0.80397   0.04130   0.00000  Uiso   1.00
C404   C     0.90890   0.86269   0.45870   0.00000  Uiso   1.00
C405   C     0.71843   0.78334   0.01384   0.00000  Uiso   1.00
C406   C     0.94823   0.88332   0.48616   0.00000  Uiso   1.00
C407   C     0.85090   0.98794   0.25881   0.00000  Uiso   1.00
C408   C     0.81577   0.67873   0.24119   0.00000  Uiso   1.00
C409   C     0.79450   0.82887   0.33315   0.00000  Uiso   1.00
C410   C     0.87217   0.83779   0.16685   0.00000  Uiso   1.00
C411   C     0.77053   0.82004   0.38056   0.00000  Uiso   1.00
C412   C     0.89614   0.84663   0.11945   0.00000  Uiso   1.00
C413   C     0.69649   0.77250   0.44227   0.00000  Uiso   1.00
C414   C     0.97017   0.89417   0.05773   0.00000  Uiso   1.00
C415   C     0.71403   0.78435   0.39768   0.00000  Uiso   1.00
C416   C     0.95264   0.88232   0.10232   0.00000  Uiso   1.00
C417   C     0.80943   0.84263   0.40808   0.00000  Uiso   1.00
C418   C     0.85724   0.82404   0.09192   0.00000  Uiso   1.00
C419   C     0.79837   0.82450   0.45093   0.00000  Uiso   1.00
C420   C     0.86829   0.84216   0.04907   0.00000  Uiso   1.00
C421   C     0.73817   0.79248   0.46897   0.00000  Uiso   1.00
C422   C     0.92850   0.87419   0.03103   0.00000  Uiso   1.00
C423   C     0.84362   0.83887   0.47689   0.00000  Uiso   1.00
C424   C     0.82305   0.82780   0.02311   0.00000  Uiso   1.00
Cu425  Cu    0.77404   0.82775   0.24517   0.00000  Uiso   1.00
Cu426  Cu    0.89263   0.83892   0.25484   0.00000  Uiso   1.00
H427   H     0.67005   0.76311   0.02820   0.00000  Uiso   1.00
H428   H     0.99662   0.90355   0.47180   0.00000  Uiso   1.00
H429   H     0.81960   0.79129   0.10451   0.00000  Uiso   1.00
H430   H     0.84707   0.87538   0.39549   0.00000  Uiso   1.00
H431   H     0.98327   0.90052   0.12322   0.00000  Uiso   1.00
H432   H     0.68340   0.76615   0.37678   0.00000  Uiso   1.00
H433   H     0.98423   0.74707   0.45574   0.00000  Uiso   1.00
H434   H     0.68244   0.91960   0.04426   0.00000  Uiso   1.00
H435   H     0.66790   0.87167   0.28437   0.00000  Uiso   1.00
H436   H     0.99877   0.79500   0.21563   0.00000  Uiso   1.00
N437   N     0.98173   0.84735   0.26212   0.00000  Uiso   1.00
N438   N     0.68494   0.81932   0.23788   0.00000  Uiso   1.00
O439   O     0.79482   0.90476   0.24686   0.00000  Uiso   1.00
O440   O     0.87185   0.76191   0.25314   0.00000  Uiso   1.00
O441   O     0.89496   0.91420   0.25503   0.00000  Uiso   1.00
O442   O     0.77171   0.75247   0.24498   0.00000  Uiso   1.00
O443   O     0.75518   0.82597   0.30855   0.00000  Uiso   1.00
O444   O     0.91149   0.84070   0.19146   0.00000  Uiso   1.00
O445   O     0.85532   0.83540   0.31671   0.00000  Uiso   1.00
O446   O     0.81134   0.83126   0.18329   0.00000  Uiso   1.00
Cl447  Cl    0.71702   0.80527   0.09758   0.00000  Uiso   1.00
Cl448  Cl    0.94965   0.86140   0.40242   0.00000  Uiso   1.00
Cl449  Cl    0.89543   0.68461   0.29664   0.00000  Uiso   1.00
Cl450  Cl    0.77123   0.98205   0.20336   0.00000  Uiso   1.00
C451   C     0.18089   0.26645   0.75192   0.00000  Uiso   1.00
C452   C     0.15245   0.06688   0.74808   0.00000  Uiso   1.00
C453   C     0.09110   0.13731   0.54130   0.00000  Uiso   1.00
C454   C     0.24223   0.19603   0.95870   0.00000  Uiso   1.00
C455   C     0.05177   0.11668   0.51384   0.00000  Uiso   1.00
C456   C     0.28157   0.21666   0.98616   0.00000  Uiso   1.00
C457   C     0.18423   0.32127   0.75881   0.00000  Uiso   1.00
C458   C     0.14910   0.01206   0.74119   0.00000  Uiso   1.00
C459   C     0.12783   0.16221   0.83315   0.00000  Uiso   1.00
C460   C     0.20550   0.17113   0.66685   0.00000  Uiso   1.00
C461   C     0.10386   0.15337   0.88056   0.00000  Uiso   1.00
C462   C     0.22947   0.17996   0.61945   0.00000  Uiso   1.00
C463   C     0.02983   0.10583   0.94227   0.00000  Uiso   1.00
C464   C     0.30351   0.22750   0.55773   0.00000  Uiso   1.00
C465   C     0.04736   0.11768   0.89768   0.00000  Uiso   1.00
C466   C     0.28597   0.21565   0.60232   0.00000  Uiso   1.00
C467   C     0.14276   0.17596   0.90808   0.00000  Uiso   1.00
C468   C     0.19057   0.15737   0.59192   0.00000  Uiso   1.00
C469   C     0.13171   0.15784   0.95093   0.00000  Uiso   1.00
C470   C     0.20163   0.17550   0.54907   0.00000  Uiso   1.00
C471   C     0.07150   0.12581   0.96897   0.00000  Uiso   1.00
C472   C     0.26183   0.20752   0.53103   0.00000  Uiso   1.00
C473   C     0.17695   0.17220   0.97689   0.00000  Uiso   1.00
C474   C     0.15638   0.16113   0.52311   0.00000  Uiso   1.00
Cu475  Cu    0.10737   0.16108   0.74517   0.00000  Uiso   1.00
Cu476  Cu    0.22596   0.17225   0.75484   0.00000  Uiso   1.00
H477   H     0.00338   0.09644   0.52820   0.00000  Uiso   1.00
H478   H     0.32995   0.23689   0.97180   0.00000  Uiso   1.00
H479   H     0.15293   0.12462   0.60451   0.00000  Uiso   1.00
H480   H     0.18041   0.20871   0.89549   0.00000  Uiso   1.00
H481   H     0.31660   0.23385   0.62322   0.00000  Uiso   1.00
H482   H     0.01673   0.09948   0.87678   0.00000  Uiso   1.00
H483   H     0.31756   0.08040   0.95574   0.00000  Uiso   1.00
H484   H     0.01577   0.25293   0.54426   0.00000  Uiso   1.00
H485   H     0.00123   0.20500   0.78437   0.00000  Uiso   1.00
H486   H     0.33210   0.12833   0.71563   0.00000  Uiso   1.00
N487   N     0.31506   0.18068   0.76212   0.00000  Uiso   1.00
N488   N     0.01827   0.15265   0.73788   0.00000  Uiso   1.00
O489   O     0.12815   0.23809   0.74686   0.00000  Uiso   1.00
O490   O     0.20518   0.09524   0.75314   0.00000  Uiso   1.00
O491   O     0.22829   0.24753   0.75503   0.00000  Uiso   1.00
O492   O     0.10504   0.08580   0.74498   0.00000  Uiso   1.00
O493   O     0.08851   0.15930   0.80855   0.00000  Uiso   1.00
O494   O     0.24482   0.17403   0.69146   0.00000  Uiso   1.00
O495   O     0.18866   0.16874   0.81671   0.00000  Uiso   1.00
O496   O     0.14468   0.16460   0.68329   0.00000  Uiso   1.00
Cl497  Cl    0.05035   0.13860   0.59758   0.00000  Uiso   1.00
Cl498  Cl    0.28298   0.19473   0.90242   0.00000  Uiso   1.00
Cl499  Cl    0.22877   0.01795   0.79664   0.00000  Uiso   1.00
Cl500  Cl    0.10457   0.31539   0.70336   0.00000  Uiso   1.00
C501   C     0.51422   0.26645   0.75192   0.00000  Uiso   1.00
C502   C     0.48578   0.06688   0.74808   0.00000  Uiso   1.00
C503   C     0.42444   0.13731   0.54130   0.00000  Uiso   1.00
C504   C     0.57556   0.19603   0.95870   0.00000  Uiso   1.00
C505   C     0.38510   0.11668   0.51384   0.00000  Uiso   1.00
C506   C     0.61490   0.21666   0.98616   0.00000  Uiso   1.00
C507   C     0.51757   0.32127   0.75881   0.00000  Uiso   1.00
C508   C     0.48243   0.01206   0.74119   0.00000  Uiso   1.00
C509   C     0.46117   0.16221   0.83315   0.00000  Uiso   1.00
C510   C     0.53883   0.17113   0.66685   0.00000  Uiso   1.00
C511   C     0.43719   0.15337   0.88056   0.00000  Uiso   1.00
C512   C     0.56281   0.17996   0.61945   0.00000  Uiso   1.00
C513   C     0.36316   0.10583   0.94227   0.00000  Uiso   1.00
C514   C     0.63684   0.22750   0.55773   0.00000  Uiso   1.00
C515   C     0.38070   0.11768   0.89768   0.00000  Uiso   1.00
C516   C     0.61931   0.21565   0.60232   0.00000  Uiso   1.00
C517   C     0.47610   0.17596   0.90808   0.00000  Uiso   1.00
C518   C     0.52390   0.15737   0.59192   0.00000  Uiso   1.00
C519   C     0.46504   0.15784   0.95093   0.00000  Uiso   1.00
C520   C     0.53496   0.17550   0.54907   0.00000  Uiso   1.00
C521   C     0.40484   0.12581   0.96897   0.00000  Uiso   1.00
C522   C     0.59516   0.20752   0.53103   0.00000  Uiso   1.00
C523   C     0.51029   0.17220   0.97689   0.00000  Uiso   1.00
C524   C     0.48971   0.16113   0.52311   0.00000  Uiso   1.00
Cu525  Cu    0.44071   0.16108   0.74517   0.00000  Uiso   1.00
Cu526  Cu    0.55929   0.17225   0.75484   0.00000  Uiso   1.00
H527   H     0.33671   0.09644   0.52820   0.00000  Uiso   1.00
H528   H     0.66329   0.23689   0.97180   0.00000  Uiso   1.00
H529   H     0.48626   0.12462   0.60451   0.00000  Uiso   1.00
H530   H     0.51374   0.20871   0.89549   0.00000  Uiso   1.00
H531   H     0.64994   0.23385   0.62322   0.00000  Uiso   1.00
H532   H     0.35006   0.09948   0.87678   0.00000  Uiso   1.00
H533   H     0.65090   0.08040   0.95574   0.00000  Uiso   1.00
H534   H     0.34910   0.25293   0.54426   0.00000  Uiso   1.00
H535   H     0.33456   0.20500   0.78437   0.00000  Uiso   1.00
H536   H     0.66544   0.12833   0.71563   0.00000  Uiso   1.00
N537   N     0.64839   0.18068   0.76212   0.00000  Uiso   1.00
N538   N     0.35161   0.15265   0.73788   0.00000  Uiso   1.00
O539   O     0.46148   0.23809   0.74686   0.00000  Uiso   1.00
O540   O     0.53852   0.09524   0.75314   0.00000  Uiso   1.00
O541   O     0.56163   0.24753   0.75503   0.00000  Uiso   1.00
O542   O     0.43837   0.08580   0.74498   0.00000  Uiso   1.00
O543   O     0.42185   0.15930   0.80855   0.00000  Uiso   1.00
O544   O     0.57815   0.17403   0.69146   0.00000  Uiso   1.00
O545   O     0.52199   0.16874   0.81671   0.00000  Uiso   1.00
O546   O     0.47801   0.16460   0.68329   0.00000  Uiso   1.00
Cl547  Cl    0.38369   0.13860   0.59758   0.00000  Uiso   1.00
Cl548  Cl    0.61631   0.19473   0.90242   0.00000  Uiso   1.00
Cl549  Cl    0.56210   0.01795   0.79664   0.00000  Uiso   1.00
Cl550  Cl    0.43790   0.31539   0.70336   0.00000  Uiso   1.00
C551   C     0.84755   0.26645   0.75192   0.00000  Uiso   1.00
C552   C     0.81911   0.06688   0.74808   0.00000  Uiso   1.00
C553   C     0.75777   0.13731   0.54130   0.00000  Uiso   1.00
C554   C     0.90890   0.19603   0.95870   0.00000  Uiso   1.00
C555   C     0.71843   0.11668   0.51384   0.00000  Uiso   1.00
C556   C     0.94823   0.21666   0.98616   0.00000  Uiso   1.00
C557   C     0.85090   0.32127   0.75881   0.00000  Uiso   1.00
C558   C     0.81577   0.01206   0.74119   0.00000  Uiso   1.00
C559   C     0.79450   0.16221   0.83315   0.00000  Uiso   1.00
C560   C     0.87217   0.17113   0.66685   0.00000  Uiso   1.00
C561   C     0.77053   0.15337   0.88056   0.00000  Uiso   1.00
C562   C     0.89614   0.17996   0.61945   0.00000  Uiso   1.00
C563   C     0.69649   0.10583   0.94227   0.00000  Uiso   1.00
C564   C     0.97017   0.22750   0.55773   0.00000  Uiso   1.00
C565   C     0.71403   0.11768   0.89768   0.00000  Uiso   1.00
C566   C     0.95264   0.21565   0.60232   0.00000  Uiso   1.00
C567   C     0.80943   0.17596   0.90808   0.00000  Uiso   1.00
C568   C     0.85724   0.15737   0.59192   0.00000  Uiso   1.00
C569   C     0.79837   0.15784   0.95093   0.00000  Uiso   1.00
C570   C     0.86829   0.17550   0.54907   0.00000  Uiso   1.00
C571   C     0.73817   0.12581   0.96897   0.00000  Uiso   1.00
C572   C     0.92850   0.20752   0.53103   0.00000  Uiso   1.00
C573   C     0.84362   0.17220   0.97689   0.00000  Uiso   1.00
C574   C     0.82305   0.16113   0.52311   0.00000  Uiso   1.00
Cu575  Cu    0.77404   0.16108   0.74517   0.00000  Uiso   1.00
Cu576  Cu    0.89263   0.17225   0.75484   0.00000  Uiso   1.00
H577   H     0.67005   0.09644   0.52820   0.00000  Uiso   1.00
H578   H     0.99662   0.23689   0.97180   0.00000  Uiso   1.00
H579   H     0.81960   0.12462   0.60451   0.00000  Uiso   1.00
H580   H     0.84707   0.20871   0.89549   0.00000  Uiso   1.00
H581   H     0.98327   0.23385   0.62322   0.00000  Uiso   1.00
H582   H     0.68340   0.09948   0.87678   0.00000  Uiso   1.00
H583   H     0.98423   0.08040   0.95574   0.00000  Uiso   1.00
H584   H     0.68244   0.25293   0.54426   0.00000  Uiso   1.00
H585   H     0.66790   0.20500   0.78437   0.00000  Uiso   1.00
H586   H     0.99877   0.12833   0.71563   0.00000  Uiso   1.00
N587   N     0.98173   0.18068   0.76212   0.00000  Uiso   1.00
N588   N     0.68494   0.15265   0.73788   0.00000  Uiso   1.00
O589   O     0.79482   0.23809   0.74686   0.00000  Uiso   1.00
O590   O     0.87185   0.09524   0.75314   0.00000  Uiso   1.00
O591   O     0.89496   0.24753   0.75503   0.00000  Uiso   1.00
O592   O     0.77171   0.08580   0.74498   0.00000  Uiso   1.00
O593   O     0.75518   0.15930   0.80855   0.00000  Uiso   1.00
O594   O     0.91149   0.17403   0.69146   0.00000  Uiso   1.00
O595   O     0.85532   0.16874   0.81671   0.00000  Uiso   1.00
O596   O     0.81134   0.16460   0.68329   0.00000  Uiso   1.00
Cl597  Cl    0.71702   0.13860   0.59758   0.00000  Uiso   1.00
Cl598  Cl    0.94965   0.19473   0.90242   0.00000  Uiso   1.00
Cl599  Cl    0.89543   0.01795   0.79664   0.00000  Uiso   1.00
Cl600  Cl    0.77123   0.31539   0.70336   0.00000  Uiso   1.00
C601   C     0.18089   0.59978   0.75192   0.00000  Uiso   1.00
C602   C     0.15245   0.40022   0.74808   0.00000  Uiso   1.00
C603   C     0.09110   0.47064   0.54130   0.00000  Uiso   1.00
C604   C     0.24223   0.52936   0.95870   0.00000  Uiso   1.00
C605   C     0.05177   0.45001   0.51384   0.00000  Uiso   1.00
C606   C     0.28157   0.54999   0.98616   0.00000  Uiso   1.00
C607   C     0.18423   0.65461   0.75881   0.00000  Uiso   1.00
C608   C     0.14910   0.34539   0.74119   0.00000  Uiso   1.00
C609   C     0.12783   0.49554   0.83315   0.00000  Uiso   1.00
C610   C     0.20550   0.50446   0.66685   0.00000  Uiso   1.00
C611   C     0.10386   0.48670   0.88056   0.00000  Uiso   1.00
C612   C     0.22947   0.51330   0.61945   0.00000  Uiso   1.00
C613   C     0.02983   0.43916   0.94227   0.00000  Uiso   1.00
C614   C     0.30351   0.56084   0.55773   0.00000  Uiso   1.00
C615   C     0.04736   0.45102   0.89768   0.00000  Uiso   1.00
C616   C     0.28597   0.54898   0.60232   0.00000  Uiso   1.00
C617   C     0.14276   0.50930   0.90808   0.00000  Uiso   1.00
C618   C     0.19057   0.49070   0.59192   0.00000  Uiso   1.00
C619   C     0.13171   0.49117   0.95093   0.00000  Uiso   1.00
C620   C     0.20163   0.50883   0.54907   0.00000  Uiso   1.00
C621   C     0.07150   0.45915   0.96897   0.00000  Uiso   1.00
C622   C     0.26183   0.54085   0.53103   0.00000  Uiso   1.00
C623   C     0.17695   0.50554   0.97689   0.00000  Uiso   1.00
C624   C     0.15638   0.49446   0.52311   0.00000  Uiso   1.00
Cu625  Cu    0.10737   0.49441   0.74517   0.00000  Uiso   1.00
Cu626  Cu    0.22596   0.50559   0.75484   0.00000  Uiso   1.00
H627   H     0.00338   0.42978   0.52820   0.00000  Uiso   1.00
H628   H     0.32995   0.57022   0.97180   0.00000  Uiso   1.00
H629   H     0.15293   0.45796   0.60451   0.00000  Uiso   1.00
H630   H     0.18041   0.54204   0.89549   0.00000  Uiso   1.00
H631   H     0.31660   0.56719   0.62322   0.00000  Uiso   1.00
H632   H     0.01673   0.43281   0.87678   0.00000  Uiso   1.00
H633   H     0.31756   0.41374   0.95574   0.00000  Uiso   1.00
H634   H     0.01577   0.58626   0.54426   0.00000  Uiso   1.00
H635   H     0.00123   0.53833   0.78437   0.00000  Uiso   1.00
H636   H     0.33210   0.46167   0.71563   0.00000  Uiso   1.00
N637   N     0.31506   0.51401   0.76212   0.00000  Uiso   1.00
N638   N     0.01827   0.48599   0.73788   0.00000  Uiso   1.00
O639   O     0.12815   0.57142   0.74686   0.00000  Uiso   1.00
O640   O     0.20518   0.42858   0.75314   0.00000  Uiso   1.00
O641   O     0.22829   0.58086   0.75503   0.00000  Uiso   1.00
O642   O     0.10504   0.41914   0.74498   0.00000  Uiso   1.00
O643   O     0.08851   0.49263   0.80855   0.00000  Uiso   1.00
O644   O     0.24482   0.50737   0.69146   0.00000  Uiso   1.00
O645   O     0.18866   0.50207   0.81671   0.00000  Uiso   1.00
O646   O     0.14468   0.49793   0.68329   0.00000  Uiso   1.00
Cl647  Cl    0.05035   0.47194   0.59758   0.00000  Uiso   1.00
Cl648  Cl    0.28298   0.52806   0.90242   0.00000  Uiso   1.00
Cl649  Cl    0.22877   0.35128   0.79664   0.00000  Uiso   1.00
Cl650  Cl    0.10457   0.64872   0.70336   0.00000  Uiso   1.00
C651   C     0.51422   0.59978   0.75192   0.00000  Uiso   1.00
C652   C     0.48578   0.40022   0.74808   0.00000  Uiso   1.00
C653   C     0.42444   0.47064   0.54130   0.00000  Uiso   1.00
C654   C     0.57556   0.52936   0.95870   0.00000  Uiso   1.00
C655   C     0.38510   0.45001   0.51384   0.00000  Uiso   1.00
C656   C     0.61490   0.54999   0.98616   0.00000  Uiso   1.00
C657   C     0.51757   0.65461   0.75881   0.00000  Uiso   1.00
C658   C     0.48243   0.34539   0.74119   0.00000  Uiso   1.00
C659   C     0.46117   0.49554   0.83315   0.00000  Uiso   1.00
C660   C     0.53883   0.50446   0.66685   0.00000  Uiso   1.00
C661   C     0.43719   0.48670   0.88056   0.00000  Uiso   1.00
C662   C     0.56281   0.51330   0.61945   0.00000  Uiso   1.00
C663   C     0.36316   0.43916   0.94227   0.00000  Uiso   1.00
C664   C     0.63684   0.56084   0.55773   0.00000  Uiso   1.00
C665   C     0.38070   0.45102   0.89768   0.00000  Uiso   1.00
C666   C     0.61931   0.54898   0.60232   0.00000  Uiso   1.00
C667   C     0.47610   0.50930   0.90808   0.00000  Uiso   1.00
C668   C     0.52390   0.49070   0.59192   0.00000  Uiso   1.00
C669   C     0.46504   0.49117   0.95093   0.00000  Uiso   1.00
C670   C     0.53496   0.50883   0.54907   0.00000  Uiso   1.00
C671   C     0.40484   0.45915   0.96897   0.00000  Uiso   1.00
C672   C     0.59516   0.54085   0.53103   0.00000  Uiso   1.00
C673   C     0.51029   0.50554   0.97689   0.00000  Uiso   1.00
C674   C     0.48971   0.49446   0.52311   0.00000  Uiso   1.00
Cu675  Cu    0.44071   0.49441   0.74517   0.00000  Uiso   1.00
Cu676  Cu    0.55929   0.50559   0.75484   0.00000  Uiso   1.00
H677   H     0.33671   0.42978   0.52820   0.00000  Uiso   1.00
H678   H     0.66329   0.57022   0.97180   0.00000  Uiso   1.00
H679   H     0.48626   0.45796   0.60451   0.00000  Uiso   1.00
H680   H     0.51374   0.54204   0.89549   0.00000  Uiso   1.00
H681   H     0.64994   0.56719   0.62322   0.00000  Uiso   1.00
H682   H     0.35006   0.43281   0.87678   0.00000  Uiso   1.00
H683   H     0.65090   0.41374   0.95574   0.00000  Uiso   1.00
H684   H     0.34910   0.58626   0.54426   0.00000  Uiso   1.00
H685   H     0.33456   0.53833   0.78437   0.00000  Uiso   1.00
H686   H     0.66544   0.46167   0.71563   0.00000  Uiso   1.00
N687   N     0.64839   0.51401   0.76212   0.00000  Uiso   1.00
N688   N     0.35161   0.48599   0.73788   0.00000  Uiso   1.00
O689   O     0.46148   0.57142   0.74686   0.00000  Uiso   1.00
O690   O     0.53852   0.42858   0.75314   0.00000  Uiso   1.00
O691   O     0.56163   0.58086   0.75503   0.00000  Uiso   1.00
O692   O     0.43837   0.41914   0.74498   0.00000  Uiso   1.00
O693   O     0.42185   0.49263   0.80855   0.00000  Uiso   1.00
O694   O     0.57815   0.50737   0.69146   0.00000  Uiso   1.00
O695   O     0.52199   0.50207   0.81671   0.00000  Uiso   1.00
O696   O     0.47801   0.49793   0.68329   0.00000  Uiso   1.00
Cl697  Cl    0.38369   0.47194   0.59758   0.00000  Uiso   1.00
Cl698  Cl    0.61631   0.52806   0.90242   0.00000  Uiso   1.00
Cl699  Cl    0.56210   0.35128   0.79664   0.00000  Uiso   1.00
Cl700  Cl    0.43790   0.64872   0.70336   0.00000  Uiso   1.00
C701   C     0.84755   0.59978   0.75192   0.00000  Uiso   1.00
C702   C     0.81911   0.40022   0.74808   0.00000  Uiso   1.00
C703   C     0.75777   0.47064   0.54130   0.00000  Uiso   1.00
C704   C     0.90890   0.52936   0.95870   0.00000  Uiso   1.00
C705   C     0.71843   0.45001   0.51384   0.00000  Uiso   1.00
C706   C     0.94823   0.54999   0.98616   0.00000  Uiso   1.00
C707   C     0.85090   0.65461   0.75881   0.00000  Uiso   1.00
C708   C     0.81577   0.34539   0.74119   0.00000  Uiso   1.00
C709   C     0.79450   0.49554   0.83315   0.00000  Uiso   1.00
C710   C     0.87217   0.50446   0.66685   0.00000  Uiso   1.00
C711   C     0.77053   0.48670   0.88056   0.00000  Uiso   1.00
C712   C     0.89614   0.51330   0.61945   0.00000  Uiso   1.00
C713   C     0.69649   0.43916   0.94227   0.00000  Uiso   1.00
C714   C     0.97017   0.56084   0.55773   0.00000  Uiso   1.00
C715   C     0.71403   0.45102   0.89768   0.00000  Uiso   1.00
C716   C     0.95264   0.54898   0.60232   0.00000  Uiso   1.00
C717   C     0.80943   0.50930   0.90808   0.00000  Uiso   1.00
C718   C     0.85724   0.49070   0.59192   0.00000  Uiso   1.00
C719   C     0.79837   0.49117   0.95093   0.00000  Uiso   1.00
C720   C     0.86829   0.50883   0.54907   0.00000  Uiso   1.00
C721   C     0.73817   0.45915   0.96897   0.00000  Uiso   1.00
C722   C     0.92850   0.54085   0.53103   0.00000  Uiso   1.00
C723   C     0.84362   0.50554   0.97689   0.00000  Uiso   1.00
C724   C     0.82305   0.49446   0.52311   0.00000  Uiso   1.00
Cu725  Cu    0.77404   0.49441   0.74517   0.00000  Uiso   1.00
Cu726  Cu    0.89263   0.50559   0.75484   0.00000  Uiso   1.00
H727   H     0.67005   0.42978   0.52820   0.00000  Uiso   1.00
H728   H     0.99662   0.57022   0.97180   0.00000  Uiso   1.00
H729   H     0.81960   0.45796   0.60451   0.00000  Uiso   1.00
H730   H     0.84707   0.54204   0.89549   0.00000  Uiso   1.00
H731   H     0.98327   0.56719   0.62322   0.00000  Uiso   1.00
H732   H     0.68340   0.43281   0.87678   0.00000  Uiso   1.00
H733   H     0.98423   0.41374   0.95574   0.00000  Uiso   1.00
H734   H     0.68244   0.58626   0.54426   0.00000  Uiso   1.00
H735   H     0.66790   0.53833   0.78437   0.00000  Uiso   1.00
H736   H     0.99877   0.46167   0.71563   0.00000  Uiso   1.00
N737   N     0.98173   0.51401   0.76212   0.00000  Uiso   1.00
N738   N     0.68494   0.48599   0.73788   0.00000  Uiso   1.00
O739   O     0.79482   0.57142   0.74686   0.00000  Uiso   1.00
O740   O     0.87185   0.42858   0.75314   0.00000  Uiso   1.00
O741   O     0.89496   0.58086   0.75503   0.00000  Uiso   1.00
O742   O     0.77171   0.41914   0.74498   0.00000  Uiso   1.00
O743   O     0.75518   0.49263   0.80855   0.00000  Uiso   1.00
O744   O     0.91149   0.50737   0.69146   0.00000  Uiso   1.00
O745   O     0.85532   0.50207   0.81671   0.00000  Uiso   1.00
O746   O     0.81134   0.49793   0.68329   0.00000  Uiso   1.00
Cl747  Cl    0.71702   0.47194   0.59758   0.00000  Uiso   1.00
Cl748  Cl    0.94965   0.52806   0.90242   0.00000  Uiso   1.00
Cl749  Cl    0.89543   0.35128   0.79664   0.00000  Uiso   1.00
Cl750  Cl    0.77123   0.64872   0.70336   0.00000  Uiso   1.00
C751   C     0.18089   0.93312   0.75192   0.00000  Uiso   1.00
C752   C     0.15245   0.73355   0.74808   0.00000  Uiso   1.00
C753   C     0.09110   0.80397   0.54130   0.00000  Uiso   1.00
C754   C     0.24223   0.86269   0.95870   0.00000  Uiso   1.00
C755   C     0.05177   0.78334   0.51384   0.00000  Uiso   1.00
C756   C     0.28157   0.88332   0.98616   0.00000  Uiso   1.00
C757   C     0.18423   0.98794   0.75881   0.00000  Uiso   1.00
C758   C     0.14910   0.67873   0.74119   0.00000  Uiso   1.00
C759   C     0.12783   0.82887   0.83315   0.00000  Uiso   1.00
C760   C     0.20550   0.83779   0.66685   0.00000  Uiso   1.00
C761   C     0.10386   0.82004   0.88056   0.00000  Uiso   1.00
C762   C     0.22947   0.84663   0.61945   0.00000  Uiso   1.00
C763   C     0.02983   0.77250   0.94227   0.00000  Uiso   1.00
C764   C     0.30351   0.89417   0.55773   0.00000  Uiso   1.00
C765   C     0.04736   0.78435   0.89768   0.00000  Uiso   1.00
C766   C     0.28597   0.88232   0.60232   0.00000  Uiso   1.00
C767   C     0.14276   0.84263   0.90808   0.00000  Uiso   1.00
C768   C     0.19057   0.82404   0.59192   0.00000  Uiso   1.00
C769   C     0.13171   0.82450   0.95093   0.00000  Uiso   1.00
C770   C     0.20163   0.84216   0.54907   0.00000  Uiso   1.00
C771   C     0.07150   0.79248   0.96897   0.00000  Uiso   1.00
C772   C     0.26183   0.87419   0.53103   0.00000  Uiso   1.00
C773   C     0.17695   0.83887   0.97689   0.00000  Uiso   1.00
C774   C     0.15638   0.82780   0.52311   0.00000  Uiso   1.00
Cu775  Cu    0.10737   0.82775   0.74517   0.00000  Uiso   1.00
Cu776  Cu    0.22596   0.83892   0.75484   0.00000  Uiso   1.00
H777   H     0.00338   0.76311   0.52820   0.00000  Uiso   1.00
H778   H     0.32995   0.90355   0.97180   0.00000  Uiso   1.00
H779   H     0.15293   0.79129   0.60451   0.00000  Uiso   1.00
H780   H     0.18041   0.87538   0.89549   0.00000  Uiso   1.00
H781   H     0.31660   0.90052   0.62322   0.00000  Uiso   1.00
H782   H     0.01673   0.76615   0.87678   0.00000  Uiso   1.00
H783   H     0.31756   0.74707   0.95574   0.00000  Uiso   1.00
H784   H     0.01577   0.91960   0.54426   0.00000  Uiso   1.00
H785   H     0.00123   0.87167   0.78437   0.00000  Uiso   1.00
H786   H     0.33210   0.79500   0.71563   0.00000  Uiso   1.00
N787   N     0.31506   0.84735   0.76212   0.00000  Uiso   1.00
N788   N     0.01827   0.81932   0.73788   0.00000  Uiso   1.00
O789   O     0.12815   0.90476   0.74686   0.00000  Uiso   1.00
O790   O     0.20518   0.76191   0.75314   0.00000  Uiso   1.00
O791   O     0.22829   0.91420   0.75503   0.00000  Uiso   1.00
O792   O     0.10504   0.75247   0.74498   0.00000  Uiso   1.00
O793   O     0.08851   0.82597   0.80855   0.00000  Uiso   1.00
O794   O     0.24482   0.84070   0.69146   0.00000  Uiso   1.00
O795   O     0.18866   0.83540   0.81671   0.00000  Uiso   1.00
O796   O     0.14468   0.83126   0.68329   0.00000  Uiso   1.00
Cl797  Cl    0.05035   0.80527   0.59758   0.00000  Uiso   1.00
Cl798  Cl    0.28298   0.86140   0.90242   0.00000  Uiso   1.00
Cl799  Cl    0.22877   0.68461   0.79664   0.00000  Uiso   1.00
Cl800  Cl    0.10457   0.98205   0.70336   0.00000  Uiso   1.00
C801   C     0.51422   0.93312   0.75192   0.00000  Uiso   1.00
C802   C     0.48578   0.73355   0.74808   0.00000  Uiso   1.00
C803   C     0.42444   0.80397   0.54130   0.00000  Uiso   1.00
C804   C     0.57556   0.86269   0.95870   0.00000  Uiso   1.00
C805   C     0.38510   0.78334   0.51384   0.00000  Uiso   1.00
C806   C     0.61490   0.88332   0.98616   0.00000  Uiso   1.00
C807   C     0.51757   0.98794   0.75881   0.00000  Uiso   1.00
C808   C     0.48243   0.67873   0.74119   0.00000  Uiso   1.00
C809   C     0.46117   0.82887   0.83315   0.00000  Uiso   1.00
C810   C     0.53883   0.83779   0.66685   0.00000  Uiso   1.00
C811   C     0.43719   0.82004   0.88056   0.00000  Uiso   1.00
C812   C     0.56281   0.84663   0.61945   0.00000  Uiso   1.00
C813   C     0.36316   0.77250   0.94227   0.00000  Uiso   1.00
C814   C     0.63684   0.89417   0.55773   0.00000  Uiso   1.00
C815   C     0.38070   0.78435   0.89768   0.00000  Uiso   1.00
C816   C     0.61931   0.88232   0.60232   0.00000  Uiso   1.00
C817   C     0.47610   0.84263   0.90808   0.00000  Uiso   1.00
C818   C     0.52390   0.82404   0.59192   0.00000  Uiso   1.00
C819   C     0.46504   0.82450   0.95093   0.00000  Uiso   1.00
C820   C     0.53496   0.84216   0.54907   0.00000  Uiso   1.00
C821   C     0.40484   0.79248   0.96897   0.00000  Uiso   1.00
C822   C     0.59516   0.87419   0.53103   0.00000  Uiso   1.00
C823   C     0.51029   0.83887   0.97689   0.00000  Uiso   1.00
C824   C     0.48971   0.82780   0.52311   0.00000  Uiso   1.00
Cu825  Cu    0.44071   0.82775   0.74517   0.00000  Uiso   1.00
Cu826  Cu    0.55929   0.83892   0.75484   0.00000  Uiso   1.00
H827   H     0.33671   0.76311   0.52820   0.00000  Uiso   1.00
H828   H     0.66329   0.90355   0.97180   0.00000  Uiso   1.00
H829   H     0.48626   0.79129   0.60451   0.00000  Uiso   1.00
H830   H     0.51374   0.87538   0.89549   0.00000  Uiso   1.00
H831   H     0.64994   0.90052   0.62322   0.00000  Uiso   1.00
H832   H     0.35006   0.76615   0.87678   0.00000  Uiso   1.00
H833   H     0.65090   0.74707   0.95574   0.00000  Uiso   1.00
H834   H     0.34910   0.91960   0.54426   0.00000  Uiso   1.00
H835   H     0.33456   0.87167   0.78437   0.00000  Uiso   1.00
H836   H     0.66544   0.79500   0.71563   0.00000  Uiso   1.00
N837   N     0.64839   0.84735   0.76212   0.00000  Uiso   1.00
N838   N     0.35161   0.81932   0.73788   0.00000  Uiso   1.00
O839   O     0.46148   0.90476   0.74686   0.00000  Uiso   1.00
O840   O     0.53852   0.76191   0.75314   0.00000  Uiso   1.00
O841   O     0.56163   0.91420   0.75503   0.00000  Uiso   1.00
O842   O     0.43837   0.75247   0.74498   0.00000  Uiso   1.00
O843   O     0.42185   0.82597   0.80855   0.00000  Uiso   1.00
O844   O     0.57815   0.84070   0.69146   0.00000  Uiso   1.00
O845   O     0.52199   0.83540   0.81671   0.00000  Uiso   1.00
O846   O     0.47801   0.83126   0.68329   0.00000  Uiso   1.00
Cl847  Cl    0.38369   0.80527   0.59758   0.00000  Uiso   1.00
Cl848  Cl    0.61631   0.86140   0.90242   0.00000  Uiso   1.00
Cl849  Cl    0.56210   0.68461   0.79664   0.00000  Uiso   1.00
Cl850  Cl    0.43790   0.98205   0.70336   0.00000  Uiso   1.00
C851   C     0.84755   0.93312   0.75192   0.00000  Uiso   1.00
C852   C     0.81911   0.73355   0.74808   0.00000  Uiso   1.00
C853   C     0.75777   0.80397   0.54130   0.00000  Uiso   1.00
C854   C     0.90890   0.86269   0.95870   0.00000  Uiso   1.00
C855   C     0.71843   0.78334   0.51384   0.00000  Uiso   1.00
C856   C     0.94823   0.88332   0.98616   0.00000  Uiso   1.00
C857   C     0.85090   0.98794   0.75881   0.00000  Uiso   1.00
C858   C     0.81577   0.67873   0.74119   0.00000  Uiso   1.00
C859   C     0.79450   0.82887   0.83315   0.00000  Uiso   1.00
C860   C     0.87217   0.83779   0.66685   0.00000  Uiso   1.00
C861   C     0.77053   0.82004   0.88056   0.00000  Uiso   1.00
C862   C     0.89614   0.84663   0.61945   0.00000  Uiso   1.00
C863   C     0.69649   0.77250   0.94227   0.00000  Uiso   1.00
C864   C     0.97017   0.89417   0.55773   0.00000  Uiso   1.00
C865   C     0.71403   0.78435   0.89768   0.00000  Uiso   1.00
C866   C     0.95264   0.88232   0.60232   0.00000  Uiso   1.00
C867   C     0.80943   0.84263   0.90808   0.00000  Uiso   1.00
C868   C     0.85724   0.82404   0.59192   0.00000  Uiso   1.00
C869   C     0.79837   0.82450   0.95093   0.00000  Uiso   1.00
C870   C     0.86829   0.84216   0.54907   0.00000  Uiso   1.00
C871   C     0.73817   0.79248   0.96897   0.00000  Uiso   1.00
C872   C     0.92850   0.87419   0.53103   0.00000  Uiso   1.00
C873   C     0.84362   0.83887   0.97689   0.00000  Uiso   1.00
C874   C     0.82305   0.82780   0.52311   0.00000  Uiso   1.00
Cu875  Cu    0.77404   0.82775   0.74517   0.00000  Uiso   1.00
Cu876  Cu    0.89263   0.83892   0.75484   0.00000  Uiso   1.00
H877   H     0.67005   0.76311   0.52820   0.00000  Uiso   1.00
H878   H     0.99662   0.90355   0.97180   0.00000  Uiso   1.00
H879   H     0.81960   0.79129   0.60451   0.00000  Uiso   1.00
H880   H     0.84707   0.87538   0.89549   0.00000  Uiso   1.00
H881   H     0.98327   0.90052   0.62322   0.00000  Uiso   1.00
H882   H     0.68340   0.76615   0.87678   0.00000  Uiso   1.00
H883   H     0.98423   0.74707   0.95574   0.00000  Uiso   1.00
H884   H     0.68244   0.91960   0.54426   0.00000  Uiso   1.00
H885   H     0.66790   0.87167   0.78437   0.00000  Uiso   1.00
H886   H     0.99877   0.79500   0.71563   0.00000  Uiso   1.00
N887   N     0.98173   0.84735   0.76212   0.00000  Uiso   1.00
N888   N     0.68494   0.81932   0.73788   0.00000  Uiso   1.00
O889   O     0.79482   0.90476   0.74686   0.00000  Uiso   1.00
O890   O     0.87185   0.76191   0.75314   0.00000  Uiso   1.00
O891   O     0.89496   0.91420   0.75503   0.00000  Uiso   1.00
O892   O     0.77171   0.75247   0.74498   0.00000  Uiso   1.00
O893   O     0.75518   0.82597   0.80855   0.00000  Uiso   1.00
O894   O     0.91149   0.84070   0.69146   0.00000  Uiso   1.00
O895   O     0.85532   0.83540   0.81671   0.00000  Uiso   1.00
O896   O     0.81134   0.83126   0.68329   0.00000  Uiso   1.00
Cl897  Cl    0.71702   0.80527   0.59758   0.00000  Uiso   1.00
Cl898  Cl    0.94965   0.86140   0.90242   0.00000  Uiso   1.00
Cl899  Cl    0.89543   0.68461   0.79664   0.00000  Uiso   1.00
Cl900  Cl    0.77123   0.98205   0.70336   0.00000  Uiso   1.00
loop_
_geom_bond_atom_site_label_1
_geom_bond_atom_site_label_2
_geom_bond_distance
_geom_bond_site_symmetry_2
_ccdc_geom_bond_type
C1     C7      1.427   .     S
C1     O39     1.288   .     A
C1     O41     1.291   .     A
C2     O42     1.291   .     A
C2     O40     1.288   .     A
C2     C8      1.427   .     S
C3     C24     1.433   .     A
C3     Cl47    1.768   .     S
C3     C5      1.389   .     A
C4     C6      1.389   .     A
C4     Cl48    1.768   .     S
C4     C23     1.433   .     A
C5     H27     1.085   .     S
C5     C471    1.386   1_554 S
C6     H28     1.085   .     S
C6     C472    1.386   .     S
C7     C158    1.348   .     S
C7     Cl199   1.779   .     S
C8     C307    1.348   1_545 S
C8     Cl350   1.779   1_545 S
C9     O45     1.297   .     A
C9     C11     1.464   .     S
C9     O43     1.301   .     A
C10    C12     1.464   .     S
C10    O46     1.297   .     A
C10    O44     1.301   .     A
C11    C15     1.397   .     A
C11    C17     1.395   .     A
C12    C16     1.397   .     A
C12    C18     1.395   .     A
C13    C21     1.406   .     A
C13    C15     1.393   .     A
C13    H133    1.084   1_455 S
C14    C22     1.406   .     A
C14    C16     1.393   .     A
C14    H84     1.084   .     S
C15    H32     1.083   .     S
C16    H31     1.083   .     S
C17    H30     1.075   .     S
C17    C19     1.404   .     A
C18    H29     1.075   .     S
C18    C20     1.404   .     A
C19    C23     1.431   .     A
C19    C21     1.415   .     A
C20    C22     1.415   .     A
C20    C24     1.431   .     A
C21    C455    1.386   .     S
C22    C456    1.386   1_554 S
C23    C474    1.436   .     S
C24    C473    1.436   1_554 S
Cu25   O42     1.963   .     S
Cu25   N38     2.022   .     S
Cu25   O43     1.930   .     S
Cu25   O39     1.970   .     S
Cu25   Cu26    2.692   .     S
Cu25   O46     1.907   .     S
Cu26   N37     2.022   .     S
Cu26   O40     1.970   .     S
Cu26   O44     1.930   .     S
Cu26   O45     1.907   .     S
Cu26   O41     1.963   .     S
H33    C63     1.084   .     S
H34    C114    1.084   1_455 S
H35    N137    1.029   1_455 S
H36    N88     1.029   .     S
N37    H85     1.029   .     S
N37    N88     1.283   .     S
N38    H136    1.029   1_455 S
N38    N137    1.283   1_455 S
Cl49   C307    1.779   1_545 S
Cl50   C158    1.779   .     S
C51    C57     1.427   .     S
C51    O89     1.288   .     A
C51    O91     1.291   .     A
C52    O92     1.291   .     A
C52    O90     1.288   .     A
C52    C58     1.427   .     S
C53    C74     1.433   .     A
C53    Cl97    1.768   .     S
C53    C55     1.389   .     A
C54    C56     1.389   .     A
C54    Cl98    1.768   .     S
C54    C73     1.433   .     A
C55    H77     1.085   .     S
C55    C521    1.386   1_554 S
C56    H78     1.085   .     S
C56    C522    1.386   .     S
C57    C208    1.348   .     S
C57    Cl249   1.779   .     S
C58    C357    1.348   1_545 S
C58    Cl400   1.779   1_545 S
C59    O95     1.297   .     A
C59    C61     1.464   .     S
C59    O93     1.301   .     A
C60    C62     1.464   .     S
C60    O96     1.297   .     A
C60    O94     1.301   .     A
C61    C65     1.397   .     A
C61    C67     1.395   .     A
C62    C66     1.397   .     A
C62    C68     1.395   .     A
C63    C71     1.406   .     A
C63    C65     1.393   .     A
C64    C72     1.406   .     A
C64    C66     1.393   .     A
C64    H134    1.084   .     S
C65    H82     1.083   .     S
C66    H81     1.083   .     S
C67    H80     1.075   .     S
C67    C69     1.404   .     A
C68    H79     1.075   .     S
C68    C70     1.404   .     A
C69    C73     1.431   .     A
C69    C71     1.415   .     A
C70    C72     1.415   .     A
C70    C74     1.431   .     A
C71    C505    1.386   .     S
C72    C506    1.386   1_554 S
C73    C524    1.436   .     S
C74    C523    1.436   1_554 S
Cu75   O92     1.963   .     S
Cu75   N88     2.022   .     S
Cu75   O93     1.930   .     S
Cu75   O89     1.970   .     S
Cu75   Cu76    2.692   .     S
Cu75   O96     1.907   .     S
Cu76   N87     2.022   .     S
Cu76   O90     1.970   .     S
Cu76   O94     1.930   .     S
Cu76   O95     1.907   .     S
Cu76   O91     1.963   .     S
H83    C113    1.084   .     S
H86    N138    1.029   .     S
N87    H135    1.029   .     S
N87    N138    1.283   .     S
Cl99   C357    1.779   1_545 S
Cl100  C208    1.779   .     S
C101   C107    1.427   .     S
C101   O139    1.288   .     A
C101   O141    1.291   .     A
C102   O142    1.291   .     A
C102   O140    1.288   .     A
C102   C108    1.427   .     S
C103   C124    1.433   .     A
C103   Cl147   1.768   .     S
C103   C105    1.389   .     A
C104   C106    1.389   .     A
C104   Cl148   1.768   .     S
C104   C123    1.433   .     A
C105   H127    1.085   .     S
C105   C571    1.386   1_554 S
C106   H128    1.085   .     S
C106   C572    1.386   .     S
C107   C258    1.348   .     S
C107   Cl299   1.779   .     S
C108   C407    1.348   1_545 S
C108   Cl450   1.779   1_545 S
C109   O145    1.297   .     A
C109   C111    1.464   .     S
C109   O143    1.301   .     A
C110   C112    1.464   .     S
C110   O146    1.297   .     A
C110   O144    1.301   .     A
C111   C115    1.397   .     A
C111   C117    1.395   .     A
C112   C116    1.397   .     A
C112   C118    1.395   .     A
C113   C121    1.406   .     A
C113   C115    1.393   .     A
C114   C122    1.406   .     A
C114   C116    1.393   .     A
C114   H34     1.084   1_655 S
C115   H132    1.083   .     S
C116   H131    1.083   .     S
C117   H130    1.075   .     S
C117   C119    1.404   .     A
C118   H129    1.075   .     S
C118   C120    1.404   .     A
C119   C123    1.431   .     A
C119   C121    1.415   .     A
C120   C122    1.415   .     A
C120   C124    1.431   .     A
C121   C555    1.386   .     S
C122   C556    1.386   1_554 S
C123   C574    1.436   .     S
C124   C573    1.436   1_554 S
Cu125  O142    1.963   .     S
Cu125  N138    2.022   .     S
Cu125  O143    1.930   .     S
Cu125  O139    1.970   .     S
Cu125  Cu126   2.692   .     S
Cu125  O146    1.907   .     S
Cu126  N137    2.022   .     S
Cu126  O140    1.970   .     S
Cu126  O144    1.930   .     S
Cu126  O145    1.907   .     S
Cu126  O141    1.963   .     S
H133   C13     1.084   1_655 S
H136   N38     1.029   1_655 S
N137   H35     1.029   1_655 S
N137   N38     1.283   1_655 S
Cl149  C407    1.779   1_545 S
Cl150  C258    1.779   .     S
C151   C157    1.427   .     S
C151   O189    1.288   .     A
C151   O191    1.291   .     A
C152   O192    1.291   .     A
C152   O190    1.288   .     A
C152   C158    1.427   .     S
C153   C174    1.433   .     A
C153   Cl197   1.768   .     S
C153   C155    1.389   .     A
C154   C156    1.389   .     A
C154   Cl198   1.768   .     S
C154   C173    1.433   .     A
C155   H177    1.085   .     S
C155   C621    1.386   1_554 S
C156   H178    1.085   .     S
C156   C622    1.386   .     S
C157   C308    1.348   .     S
C157   Cl349   1.779   .     S
C159   O195    1.297   .     A
C159   C161    1.464   .     S
C159   O193    1.301   .     A
C160   C162    1.464   .     S
C160   O196    1.297   .     A
C160   O194    1.301   .     A
C161   C165    1.397   .     A
C161   C167    1.395   .     A
C162   C166    1.397   .     A
C162   C168    1.395   .     A
C163   C171    1.406   .     A
C163   C165    1.393   .     A
C163   H283    1.084   1_455 S
C164   C172    1.406   .     A
C164   C166    1.393   .     A
C164   H234    1.084   .     S
C165   H182    1.083   .     S
C166   H181    1.083   .     S
C167   H180    1.075   .     S
C167   C169    1.404   .     A
C168   H179    1.075   .     S
C168   C170    1.404   .     A
C169   C173    1.431   .     A
C169   C171    1.415   .     A
C170   C172    1.415   .     A
C170   C174    1.431   .     A
C171   C605    1.386   .     S
C172   C606    1.386   1_554 S
C173   C624    1.436   .     S
C174   C623    1.436   1_554 S
Cu175  O192    1.963   .     S
Cu175  N188    2.022   .     S
Cu175  O193    1.930   .     S
Cu175  O189    1.970   .     S
Cu175  Cu176   2.692   .     S
Cu175  O196    1.907   .     S
Cu176  N187    2.022   .     S
Cu176  O190    1.970   .     S
Cu176  O194    1.930   .     S
Cu176  O195    1.907   .     S
Cu176  O191    1.963   .     S
H183   C213    1.084   .     S
H184   C264    1.084   1_455 S
H185   N287    1.029   1_455 S
H186   N238    1.029   .     S
N187   H235    1.029   .     S
N187   N238    1.283   .     S
N188   H286    1.029   1_455 S
N188   N287    1.283   1_455 S
Cl200  C308    1.779   .     S
C201   C207    1.427   .     S
C201   O239    1.288   .     A
C201   O241    1.291   .     A
C202   O242    1.291   .     A
C202   O240    1.288   .     A
C202   C208    1.427   .     S
C203   C224    1.433   .     A
C203   Cl247   1.768   .     S
C203   C205    1.389   .     A
C204   C206    1.389   .     A
C204   Cl248   1.768   .     S
C204   C223    1.433   .     A
C205   H227    1.085   .     S
C205   C671    1.386   1_554 S
C206   H228    1.085   .     S
C206   C672    1.386   .     S
C207   C358    1.348   .     S
C207   Cl399   1.779   .     S
C209   O245    1.297   .     A
C209   C211    1.464   .     S
C209   O243    1.301   .     A
C210   C212    1.464   .     S
C210   O246    1.297   .     A
C210   O244    1.301   .     A
C211   C215    1.397   .     A
C211   C217    1.395   .     A
C212   C216    1.397   .     A
C212   C218    1.395   .     A
C213   C221    1.406   .     A
C213   C215    1.393   .     A
C214   C222    1.406   .     A
C214   C216    1.393   .     A
C214   H284    1.084   .     S
C215   H232    1.083   .     S
C216   H231    1.083   .     S
C217   H230    1.075   .     S
C217   C219    1.404   .     A
C218   H229    1.075   .     S
C218   C220    1.404   .     A
C219   C223    1.431   .     A
C219   C221    1.415   .     A
C220   C222    1.415   .     A
C220   C224    1.431   .     A
C221   C655    1.386   .     S
C222   C656    1.386   1_554 S
C223   C674    1.436   .     S
C224   C673    1.436   1_554 S
Cu225  O242    1.963   .     S
Cu225  N238    2.022   .     S
Cu225  O243    1.930   .     S
Cu225  O239    1.970   .     S
Cu225  Cu226   2.692   .     S
Cu225  O246    1.907   .     S
Cu226  N237    2.022   .     S
Cu226  O240    1.970   .     S
Cu226  O244    1.930   .     S
Cu226  O245    1.907   .     S
Cu226  O241    1.963   .     S
H233   C263    1.084   .     S
H236   N288    1.029   .     S
N237   H285    1.029   .     S
N237   N288    1.283   .     S
Cl250  C358    1.779   .     S
C251   C257    1.427   .     S
C251   O289    1.288   .     A
C251   O291    1.291   .     A
C252   O292    1.291   .     A
C252   O290    1.288   .     A
C252   C258    1.427   .     S
C253   C274    1.433   .     A
C253   Cl297   1.768   .     S
C253   C255    1.389   .     A
C254   C256    1.389   .     A
C254   Cl298   1.768   .     S
C254   C273    1.433   .     A
C255   H277    1.085   .     S
C255   C721    1.386   1_554 S
C256   H278    1.085   .     S
C256   C722    1.386   .     S
C257   C408    1.348   .     S
C257   Cl449   1.779   .     S
C259   O295    1.297   .     A
C259   C261    1.464   .     S
C259   O293    1.301   .     A
C260   C262    1.464   .     S
C260   O296    1.297   .     A
C260   O294    1.301   .     A
C261   C265    1.397   .     A
C261   C267    1.395   .     A
C262   C266    1.397   .     A
C262   C268    1.395   .     A
C263   C271    1.406   .     A
C263   C265    1.393   .     A
C264   C272    1.406   .     A
C264   C266    1.393   .     A
C264   H184    1.084   1_655 S
C265   H282    1.083   .     S
C266   H281    1.083   .     S
C267   H280    1.075   .     S
C267   C269    1.404   .     A
C268   H279    1.075   .     S
C268   C270    1.404   .     A
C269   C273    1.431   .     A
C269   C271    1.415   .     A
C270   C272    1.415   .     A
C270   C274    1.431   .     A
C271   C705    1.386   .     S
C272   C706    1.386   1_554 S
C273   C724    1.436   .     S
C274   C723    1.436   1_554 S
Cu275  O292    1.963   .     S
Cu275  N288    2.022   .     S
Cu275  O293    1.930   .     S
Cu275  O289    1.970   .     S
Cu275  Cu276   2.692   .     S
Cu275  O296    1.907   .     S
Cu276  N287    2.022   .     S
Cu276  O290    1.970   .     S
Cu276  O294    1.930   .     S
Cu276  O295    1.907   .     S
Cu276  O291    1.963   .     S
H283   C163    1.084   1_655 S
H286   N188    1.029   1_655 S
N287   H185    1.029   1_655 S
N287   N188    1.283   1_655 S
Cl300  C408    1.779   .     S
C301   C307    1.427   .     S
C301   O339    1.288   .     A
C301   O341    1.291   .     A
C302   O342    1.291   .     A
C302   O340    1.288   .     A
C302   C308    1.427   .     S
C303   C324    1.433   .     A
C303   Cl347   1.768   .     S
C303   C305    1.389   .     A
C304   C306    1.389   .     A
C304   Cl348   1.768   .     S
C304   C323    1.433   .     A
C305   H327    1.085   .     S
C305   C771    1.386   1_554 S
C306   H328    1.085   .     S
C306   C772    1.386   .     S
C307   C8      1.348   1_565 S
C307   Cl49    1.779   1_565 S
C309   O345    1.297   .     A
C309   C311    1.464   .     S
C309   O343    1.301   .     A
C310   C312    1.464   .     S
C310   O346    1.297   .     A
C310   O344    1.301   .     A
C311   C315    1.397   .     A
C311   C317    1.395   .     A
C312   C316    1.397   .     A
C312   C318    1.395   .     A
C313   C321    1.406   .     A
C313   C315    1.393   .     A
C313   H433    1.084   1_455 S
C314   C322    1.406   .     A
C314   C316    1.393   .     A
C314   H384    1.084   .     S
C315   H332    1.083   .     S
C316   H331    1.083   .     S
C317   H330    1.075   .     S
C317   C319    1.404   .     A
C318   H329    1.075   .     S
C318   C320    1.404   .     A
C319   C323    1.431   .     A
C319   C321    1.415   .     A
C320   C322    1.415   .     A
C320   C324    1.431   .     A
C321   C755    1.386   .     S
C322   C756    1.386   1_554 S
C323   C774    1.436   .     S
C324   C773    1.436   1_554 S
Cu325  O342    1.963   .     S
Cu325  N338    2.022   .     S
Cu325  O343    1.930   .     S
Cu325  O339    1.970   .     S
Cu325  Cu326   2.692   .     S
Cu325  O346    1.907   .     S
Cu326  N337    2.022   .     S
Cu326  O340    1.970   .     S
Cu326  O344    1.930   .     S
Cu326  O345    1.907   .     S
Cu326  O341    1.963   .     S
H333   C363    1.084   .     S
H334   C414    1.084   1_455 S
H335   N437    1.029   1_455 S
H336   N388    1.029   .     S
N337   H385    1.029   .     S
N337   N388    1.283   .     S
N338   H436    1.029   1_455 S
N338   N437    1.283   1_455 S
Cl350  C8      1.779   1_565 S
C351   C357    1.427   .     S
C351   O389    1.288   .     A
C351   O391    1.291   .     A
C352   O392    1.291   .     A
C352   O390    1.288   .     A
C352   C358    1.427   .     S
C353   C374    1.433   .     A
C353   Cl397   1.768   .     S
C353   C355    1.389   .     A
C354   C356    1.389   .     A
C354   Cl398   1.768   .     S
C354   C373    1.433   .     A
C355   H377    1.085   .     S
C355   C821    1.386   1_554 S
C356   H378    1.085   .     S
C356   C822    1.386   .     S
C357   C58     1.348   1_565 S
C357   Cl99    1.779   1_565 S
C359   O395    1.297   .     A
C359   C361    1.464   .     S
C359   O393    1.301   .     A
C360   C362    1.464   .     S
C360   O396    1.297   .     A
C360   O394    1.301   .     A
C361   C365    1.397   .     A
C361   C367    1.395   .     A
C362   C366    1.397   .     A
C362   C368    1.395   .     A
C363   C371    1.406   .     A
C363   C365    1.393   .     A
C364   C372    1.406   .     A
C364   C366    1.393   .     A
C364   H434    1.084   .     S
C365   H382    1.083   .     S
C366   H381    1.083   .     S
C367   H380    1.075   .     S
C367   C369    1.404   .     A
C368   H379    1.075   .     S
C368   C370    1.404   .     A
C369   C373    1.431   .     A
C369   C371    1.415   .     A
C370   C372    1.415   .     A
C370   C374    1.431   .     A
C371   C805    1.386   .     S
C372   C806    1.386   1_554 S
C373   C824    1.436   .     S
C374   C823    1.436   1_554 S
Cu375  O392    1.963   .     S
Cu375  N388    2.022   .     S
Cu375  O393    1.930   .     S
Cu375  O389    1.970   .     S
Cu375  Cu376   2.692   .     S
Cu375  O396    1.907   .     S
Cu376  N387    2.022   .     S
Cu376  O390    1.970   .     S
Cu376  O394    1.930   .     S
Cu376  O395    1.907   .     S
Cu376  O391    1.963   .     S
H383   C413    1.084   .     S
H386   N438    1.029   .     S
N387   H435    1.029   .     S
N387   N438    1.283   .     S
Cl400  C58     1.779   1_565 S
C401   C407    1.427   .     S
C401   O439    1.288   .     A
C401   O441    1.291   .     A
C402   O442    1.291   .     A
C402   O440    1.288   .     A
C402   C408    1.427   .     S
C403   C424    1.433   .     A
C403   Cl447   1.768   .     S
C403   C405    1.389   .     A
C404   C406    1.389   .     A
C404   Cl448   1.768   .     S
C404   C423    1.433   .     A
C405   H427    1.085   .     S
C405   C871    1.386   1_554 S
C406   H428    1.085   .     S
C406   C872    1.386   .     S
C407   C108    1.348   1_565 S
C407   Cl149   1.779   1_565 S
C409   O445    1.297   .     A
C409   C411    1.464   .     S
C409   O443    1.301   .     A
C410   C412    1.464   .     S
C410   O446    1.297   .     A
C410   O444    1.301   .     A
C411   C415    1.397   .     A
C411   C417    1.395   .     A
C412   C416    1.397   .     A
C412   C418    1.395   .     A
C413   C421    1.406   .     A
C413   C415    1.393   .     A
C414   C422    1.406   .     A
C414   C416    1.393   .     A
C414   H334    1.084   1_655 S
C415   H432    1.083   .     S
C416   H431    1.083   .     S
C417   H430    1.075   .     S
C417   C419    1.404   .     A
C418   H429    1.075   .     S
C418   C420    1.404   .     A
C419   C423    1.431   .     A
C419   C421    1.415   .     A
C420   C422    1.415   .     A
C420   C424    1.431   .     A
C421   C855    1.386   .     S
C422   C856    1.386   1_554 S
C423   C874    1.436   .     S
C424   C873    1.436   1_554 S
Cu425  O442    1.963   .     S
Cu425  N438    2.022   .     S
Cu425  O443    1.930   .     S
Cu425  O439    1.970   .     S
Cu425  Cu426   2.692   .     S
Cu425  O446    1.907   .     S
Cu426  N437    2.022   .     S
Cu426  O440    1.970   .     S
Cu426  O444    1.930   .     S
Cu426  O445    1.907   .     S
Cu426  O441    1.963   .     S
H433   C313    1.084   1_655 S
H436   N338    1.029   1_655 S
N437   H335    1.029   1_655 S
N437   N338    1.283   1_655 S
Cl450  C108    1.779   1_565 S
C451   C457    1.427   .     S
C451   O489    1.288   .     A
C451   O491    1.291   .     A
C452   O492    1.291   .     A
C452   O490    1.288   .     A
C452   C458    1.427   .     S
C453   C474    1.433   .     A
C453   Cl497   1.768   .     S
C453   C455    1.389   .     A
C454   C456    1.389   .     A
C454   Cl498   1.768   .     S
C454   C473    1.433   .     A
C455   H477    1.085   .     S
C456   H478    1.085   .     S
C456   C22     1.386   1_556 S
C457   C608    1.348   .     S
C457   Cl649   1.779   .     S
C458   C757    1.348   1_545 S
C458   Cl800   1.779   1_545 S
C459   O495    1.297   .     A
C459   C461    1.464   .     S
C459   O493    1.301   .     A
C460   C462    1.464   .     S
C460   O496    1.297   .     A
C460   O494    1.301   .     A
C461   C465    1.397   .     A
C461   C467    1.395   .     A
C462   C466    1.397   .     A
C462   C468    1.395   .     A
C463   C471    1.406   .     A
C463   C465    1.393   .     A
C463   H583    1.084   1_455 S
C464   C472    1.406   .     A
C464   C466    1.393   .     A
C464   H534    1.084   .     S
C465   H482    1.083   .     S
C466   H481    1.083   .     S
C467   H480    1.075   .     S
C467   C469    1.404   .     A
C468   H479    1.075   .     S
C468   C470    1.404   .     A
C469   C473    1.431   .     A
C469   C471    1.415   .     A
C470   C472    1.415   .     A
C470   C474    1.431   .     A
C471   C5      1.386   1_556 S
C473   C24     1.436   1_556 S
Cu475  O492    1.963   .     S
Cu475  N488    2.022   .     S
Cu475  O493    1.930   .     S
Cu475  O489    1.970   .     S
Cu475  Cu476   2.692   .     S
Cu475  O496    1.907   .     S
Cu476  N487    2.022   .     S
Cu476  O490    1.970   .     S
Cu476  O494    1.930   .     S
Cu476  O495    1.907   .     S
Cu476  O491    1.963   .     S
H483   C513    1.084   .     S
H484   C564    1.084   1_455 S
H485   N587    1.029   1_455 S
H486   N538    1.029   .     S
N487   H535    1.029   .     S
N487   N538    1.283   .     S
N488   H586    1.029   1_455 S
N488   N587    1.283   1_455 S
Cl499  C757    1.779   1_545 S
Cl500  C608    1.779   .     S
C501   C507    1.427   .     S
C501   O539    1.288   .     A
C501   O541    1.291   .     A
C502   O542    1.291   .     A
C502   O540    1.288   .     A
C502   C508    1.427   .     S
C503   C524    1.433   .     A
C503   Cl547   1.768   .     S
C503   C505    1.389   .     A
C504   C506    1.389   .     A
C504   Cl548   1.768   .     S
C504   C523    1.433   .     A
C505   H527    1.085   .     S
C506   H528    1.085   .     S
C506   C72     1.386   1_556 S
C507   C658    1.348   .     S
C507   Cl699   1.779   .     S
C508   C807    1.348   1_545 S
C508   Cl850   1.779   1_545 S
C509   O545    1.297   .     A
C509   C511    1.464   .     S
C509   O543    1.301   .     A
C510   C512    1.464   .     S
C510   O546    1.297   .     A
C510   O544    1.301   .     A
C511   C515    1.397   .     A
C511   C517    1.395   .     A
C512   C516    1.397   .     A
C512   C518    1.395   .     A
C513   C521    1.406   .     A
C513   C515    1.393   .     A
C514   C522    1.406   .     A
C514   C516    1.393   .     A
C514   H584    1.084   .     S
C515   H532    1.083   .     S
C516   H531    1.083   .     S
C517   H530    1.075   .     S
C517   C519    1.404   .     A
C518   H529    1.075   .     S
C518   C520    1.404   .     A
C519   C523    1.431   .     A
C519   C521    1.415   .     A
C520   C522    1.415   .     A
C520   C524    1.431   .     A
C521   C55     1.386   1_556 S
C523   C74     1.436   1_556 S
Cu525  O542    1.963   .     S
Cu525  N538    2.022   .     S
Cu525  O543    1.930   .     S
Cu525  O539    1.970   .     S
Cu525  Cu526   2.692   .     S
Cu525  O546    1.907   .     S
Cu526  N537    2.022   .     S
Cu526  O540    1.970   .     S
Cu526  O544    1.930   .     S
Cu526  O545    1.907   .     S
Cu526  O541    1.963   .     S
H533   C563    1.084   .     S
H536   N588    1.029   .     S
N537   H585    1.029   .     S
N537   N588    1.283   .     S
Cl549  C807    1.779   1_545 S
Cl550  C658    1.779   .     S
C551   C557    1.427   .     S
C551   O589    1.288   .     A
C551   O591    1.291   .     A
C552   O592    1.291   .     A
C552   O590    1.288   .     A
C552   C558    1.427   .     S
C553   C574    1.433   .     A
C553   Cl597   1.768   .     S
C553   C555    1.389   .     A
C554   C556    1.389   .     A
C554   Cl598   1.768   .     S
C554   C573    1.433   .     A
C555   H577    1.085   .     S
C556   H578    1.085   .     S
C556   C122    1.386   1_556 S
C557   C708    1.348   .     S
C557   Cl749   1.779   .     S
C558   C857    1.348   1_545 S
C558   Cl900   1.779   1_545 S
C559   O595    1.297   .     A
C559   C561    1.464   .     S
C559   O593    1.301   .     A
C560   C562    1.464   .     S
C560   O596    1.297   .     A
C560   O594    1.301   .     A
C561   C565    1.397   .     A
C561   C567    1.395   .     A
C562   C566    1.397   .     A
C562   C568    1.395   .     A
C563   C571    1.406   .     A
C563   C565    1.393   .     A
C564   C572    1.406   .     A
C564   C566    1.393   .     A
C564   H484    1.084   1_655 S
C565   H582    1.083   .     S
C566   H581    1.083   .     S
C567   H580    1.075   .     S
C567   C569    1.404   .     A
C568   H579    1.075   .     S
C568   C570    1.404   .     A
C569   C573    1.431   .     A
C569   C571    1.415   .     A
C570   C572    1.415   .     A
C570   C574    1.431   .     A
C571   C105    1.386   1_556 S
C573   C124    1.436   1_556 S
Cu575  O592    1.963   .     S
Cu575  N588    2.022   .     S
Cu575  O593    1.930   .     S
Cu575  O589    1.970   .     S
Cu575  Cu576   2.692   .     S
Cu575  O596    1.907   .     S
Cu576  N587    2.022   .     S
Cu576  O590    1.970   .     S
Cu576  O594    1.930   .     S
Cu576  O595    1.907   .     S
Cu576  O591    1.963   .     S
H583   C463    1.084   1_655 S
H586   N488    1.029   1_655 S
N587   H485    1.029   1_655 S
N587   N488    1.283   1_655 S
Cl599  C857    1.779   1_545 S
Cl600  C708    1.779   .     S
C601   C607    1.427   .     S
C601   O639    1.288   .     A
C601   O641    1.291   .     A
C602   O642    1.291   .     A
C602   O640    1.288   .     A
C602   C608    1.427   .     S
C603   C624    1.433   .     A
C603   Cl647   1.768   .     S
C603   C605    1.389   .     A
C604   C606    1.389   .     A
C604   Cl648   1.768   .     S
C604   C623    1.433   .     A
C605   H627    1.085   .     S
C606   H628    1.085   .     S
C606   C172    1.386   1_556 S
C607   C758    1.348   .     S
C607   Cl799   1.779   .     S
C609   O645    1.297   .     A
C609   C611    1.464   .     S
C609   O643    1.301   .     A
C610   C612    1.464   .     S
C610   O646    1.297   .     A
C610   O644    1.301   .     A
C611   C615    1.397   .     A
C611   C617    1.395   .     A
C612   C616    1.397   .     A
C612   C618    1.395   .     A
C613   C621    1.406   .     A
C613   C615    1.393   .     A
C613   H733    1.084   1_455 S
C614   C622    1.406   .     A
C614   C616    1.393   .     A
C614   H684    1.084   .     S
C615   H632    1.083   .     S
C616   H631    1.083   .     S
C617   H630    1.075   .     S
C617   C619    1.404   .     A
C618   H629    1.075   .     S
C618   C620    1.404   .     A
C619   C623    1.431   .     A
C619   C621    1.415   .     A
C620   C622    1.415   .     A
C620   C624    1.431   .     A
C621   C155    1.386   1_556 S
C623   C174    1.436   1_556 S
Cu625  O642    1.963   .     S
Cu625  N638    2.022   .     S
Cu625  O643    1.930   .     S
Cu625  O639    1.970   .     S
Cu625  Cu626   2.692   .     S
Cu625  O646    1.907   .     S
Cu626  N637    2.022   .     S
Cu626  O640    1.970   .     S
Cu626  O644    1.930   .     S
Cu626  O645    1.907   .     S
Cu626  O641    1.963   .     S
H633   C663    1.084   .     S
H634   C714    1.084   1_455 S
H635   N737    1.029   1_455 S
H636   N688    1.029   .     S
N637   H685    1.029   .     S
N637   N688    1.283   .     S
N638   H736    1.029   1_455 S
N638   N737    1.283   1_455 S
Cl650  C758    1.779   .     S
C651   C657    1.427   .     S
C651   O689    1.288   .     A
C651   O691    1.291   .     A
C652   O692    1.291   .     A
C652   O690    1.288   .     A
C652   C658    1.427   .     S
C653   C674    1.433   .     A
C653   Cl697   1.768   .     S
C653   C655    1.389   .     A
C654   C656    1.389   .     A
C654   Cl698   1.768   .     S
C654   C673    1.433   .     A
C655   H677    1.085   .     S
C656   H678    1.085   .     S
C656   C222    1.386   1_556 S
C657   C808    1.348   .     S
C657   Cl849   1.779   .     S
C659   O695    1.297   .     A
C659   C661    1.464   .     S
C659   O693    1.301   .     A
C660   C662    1.464   .     S
C660   O696    1.297   .     A
C660   O694    1.301   .     A
C661   C665    1.397   .     A
C661   C667    1.395   .     A
C662   C666    1.397   .     A
C662   C668    1.395   .     A
C663   C671    1.406   .     A
C663   C665    1.393   .     A
C664   C672    1.406   .     A
C664   C666    1.393   .     A
C664   H734    1.084   .     S
C665   H682    1.083   .     S
C666   H681    1.083   .     S
C667   H680    1.075   .     S
C667   C669    1.404   .     A
C668   H679    1.075   .     S
C668   C670    1.404   .     A
C669   C673    1.431   .     A
C669   C671    1.415   .     A
C670   C672    1.415   .     A
C670   C674    1.431   .     A
C671   C205    1.386   1_556 S
C673   C224    1.436   1_556 S
Cu675  O692    1.963   .     S
Cu675  N688    2.022   .     S
Cu675  O693    1.930   .     S
Cu675  O689    1.970   .     S
Cu675  Cu676   2.692   .     S
Cu675  O696    1.907   .     S
Cu676  N687    2.022   .     S
Cu676  O690    1.970   .     S
Cu676  O694    1.930   .     S
Cu676  O695    1.907   .     S
Cu676  O691    1.963   .     S
H683   C713    1.084   .     S
H686   N738    1.029   .     S
N687   H735    1.029   .     S
N687   N738    1.283   .     S
Cl700  C808    1.779   .     S
C701   C707    1.427   .     S
C701   O739    1.288   .     A
C701   O741    1.291   .     A
C702   O742    1.291   .     A
C702   O740    1.288   .     A
C702   C708    1.427   .     S
C703   C724    1.433   .     A
C703   Cl747   1.768   .     S
C703   C705    1.389   .     A
C704   C706    1.389   .     A
C704   Cl748   1.768   .     S
C704   C723    1.433   .     A
C705   H727    1.085   .     S
C706   H728    1.085   .     S
C706   C272    1.386   1_556 S
C707   C858    1.348   .     S
C707   Cl899   1.779   .     S
C709   O745    1.297   .     A
C709   C711    1.464   .     S
C709   O743    1.301   .     A
C710   C712    1.464   .     S
C710   O746    1.297   .     A
C710   O744    1.301   .     A
C711   C715    1.397   .     A
C711   C717    1.395   .     A
C712   C716    1.397   .     A
C712   C718    1.395   .     A
C713   C721    1.406   .     A
C713   C715    1.393   .     A
C714   C722    1.406   .     A
C714   C716    1.393   .     A
C714   H634    1.084   1_655 S
C715   H732    1.083   .     S
C716   H731    1.083   .     S
C717   H730    1.075   .     S
C717   C719    1.404   .     A
C718   H729    1.075   .     S
C718   C720    1.404   .     A
C719   C723    1.431   .     A
C719   C721    1.415   .     A
C720   C722    1.415   .     A
C720   C724    1.431   .     A
C721   C255    1.386   1_556 S
C723   C274    1.436   1_556 S
Cu725  O742    1.963   .     S
Cu725  N738    2.022   .     S
Cu725  O743    1.930   .     S
Cu725  O739    1.970   .     S
Cu725  Cu726   2.692   .     S
Cu725  O746    1.907   .     S
Cu726  N737    2.022   .     S
Cu726  O740    1.970   .     S
Cu726  O744    1.930   .     S
Cu726  O745    1.907   .     S
Cu726  O741    1.963   .     S
H733   C613    1.084   1_655 S
H736   N638    1.029   1_655 S
N737   H635    1.029   1_655 S
N737   N638    1.283   1_655 S
Cl750  C858    1.779   .     S
C751   C757    1.427   .     S
C751   O789    1.288   .     A
C751   O791    1.291   .     A
C752   O792    1.291   .     A
C752   O790    1.288   .     A
C752   C758    1.427   .     S
C753   C774    1.433   .     A
C753   Cl797   1.768   .     S
C753   C755    1.389   .     A
C754   C756    1.389   .     A
C754   Cl798   1.768   .     S
C754   C773    1.433   .     A
C755   H777    1.085   .     S
C756   H778    1.085   .     S
C756   C322    1.386   1_556 S
C757   C458    1.348   1_565 S
C757   Cl499   1.779   1_565 S
C759   O795    1.297   .     A
C759   C761    1.464   .     S
C759   O793    1.301   .     A
C760   C762    1.464   .     S
C760   O796    1.297   .     A
C760   O794    1.301   .     A
C761   C765    1.397   .     A
C761   C767    1.395   .     A
C762   C766    1.397   .     A
C762   C768    1.395   .     A
C763   C771    1.406   .     A
C763   C765    1.393   .     A
C763   H883    1.084   1_455 S
C764   C772    1.406   .     A
C764   C766    1.393   .     A
C764   H834    1.084   .     S
C765   H782    1.083   .     S
C766   H781    1.083   .     S
C767   H780    1.075   .     S
C767   C769    1.404   .     A
C768   H779    1.075   .     S
C768   C770    1.404   .     A
C769   C773    1.431   .     A
C769   C771    1.415   .     A
C770   C772    1.415   .     A
C770   C774    1.431   .     A
C771   C305    1.386   1_556 S
C773   C324    1.436   1_556 S
Cu775  O792    1.963   .     S
Cu775  N788    2.022   .     S
Cu775  O793    1.930   .     S
Cu775  O789    1.970   .     S
Cu775  Cu776   2.692   .     S
Cu775  O796    1.907   .     S
Cu776  N787    2.022   .     S
Cu776  O790    1.970   .     S
Cu776  O794    1.930   .     S
Cu776  O795    1.907   .     S
Cu776  O791    1.963   .     S
H783   C813    1.084   .     S
H784   C864    1.084   1_455 S
H785   N887    1.029   1_455 S
H786   N838    1.029   .     S
N787   H835    1.029   .     S
N787   N838    1.283   .     S
N788   H886    1.029   1_455 S
N788   N887    1.283   1_455 S
Cl800  C458    1.779   1_565 S
C801   C807    1.427   .     S
C801   O839    1.288   .     A
C801   O841    1.291   .     A
C802   O842    1.291   .     A
C802   O840    1.288   .     A
C802   C808    1.427   .     S
C803   C824    1.433   .     A
C803   Cl847   1.768   .     S
C803   C805    1.389   .     A
C804   C806    1.389   .     A
C804   Cl848   1.768   .     S
C804   C823    1.433   .     A
C805   H827    1.085   .     S
C806   H828    1.085   .     S
C806   C372    1.386   1_556 S
C807   C508    1.348   1_565 S
C807   Cl549   1.779   1_565 S
C809   O845    1.297   .     A
C809   C811    1.464   .     S
C809   O843    1.301   .     A
C810   C812    1.464   .     S
C810   O846    1.297   .     A
C810   O844    1.301   .     A
C811   C815    1.397   .     A
C811   C817    1.395   .     A
C812   C816    1.397   .     A
C812   C818    1.395   .     A
C813   C821    1.406   .     A
C813   C815    1.393   .     A
C814   C822    1.406   .     A
C814   C816    1.393   .     A
C814   H884    1.084   .     S
C815   H832    1.083   .     S
C816   H831    1.083   .     S
C817   H830    1.075   .     S
C817   C819    1.404   .     A
C818   H829    1.075   .     S
C818   C820    1.404   .     A
C819   C823    1.431   .     A
C819   C821    1.415   .     A
C820   C822    1.415   .     A
C820   C824    1.431   .     A
C821   C355    1.386   1_556 S
C823   C374    1.436   1_556 S
Cu825  O842    1.963   .     S
Cu825  N838    2.022   .     S
Cu825  O843    1.930   .     S
Cu825  O839    1.970   .     S
Cu825  Cu826   2.692   .     S
Cu825  O846    1.907   .     S
Cu826  N837    2.022   .     S
Cu826  O840    1.970   .     S
Cu826  O844    1.930   .     S
Cu826  O845    1.907   .     S
Cu826  O841    1.963   .     S
H833   C863    1.084   .     S
H836   N888    1.029   .     S
N837   H885    1.029   .     S
N837   N888    1.283   .     S
Cl850  C508    1.779   1_565 S
C851   C857    1.427   .     S
C851   O889    1.288   .     A
C851   O891    1.291   .     A
C852   O892    1.291   .     A
C852   O890    1.288   .     A
C852   C858    1.427   .     S
C853   C874    1.433   .     A
C853   Cl897   1.768   .     S
C853   C855    1.389   .     A
C854   C856    1.389   .     A
C854   Cl898   1.768   .     S
C854   C873    1.433   .     A
C855   H877    1.085   .     S
C856   H878    1.085   .     S
C856   C422    1.386   1_556 S
C857   C558    1.348   1_565 S
C857   Cl599   1.779   1_565 S
C859   O895    1.297   .     A
C859   C861    1.464   .     S
C859   O893    1.301   .     A
C860   C862    1.464   .     S
C860   O896    1.297   .     A
C860   O894    1.301   .     A
C861   C865    1.397   .     A
C861   C867    1.395   .     A
C862   C866    1.397   .     A
C862   C868    1.395   .     A
C863   C871    1.406   .     A
C863   C865    1.393   .     A
C864   C872    1.406   .     A
C864   C866    1.393   .     A
C864   H784    1.084   1_655 S
C865   H882    1.083   .     S
C866   H881    1.083   .     S
C867   H880    1.075   .     S
C867   C869    1.404   .     A
C868   H879    1.075   .     S
C868   C870    1.404   .     A
C869   C873    1.431   .     A
C869   C871    1.415   .     A
C870   C872    1.415   .     A
C870   C874    1.431   .     A
C871   C405    1.386   1_556 S
C873   C424    1.436   1_556 S
Cu875  O892    1.963   .     S
Cu875  N888    2.022   .     S
Cu875  O893    1.930   .     S
Cu875  O889    1.970   .     S
Cu875  Cu876   2.692   .     S
Cu875  O896    1.907   .     S
Cu876  N887    2.022   .     S
Cu876  O890    1.970   .     S
Cu876  O894    1.930   .     S
Cu876  O895    1.907   .     S
Cu876  O891    1.963   .     S
H883   C763    1.084   1_655 S
H886   N788    1.029   1_655 S
N887   H785    1.029   1_655 S
N887   N788    1.283   1_655 S
Cl900  C558    1.779   1_565 S
