data_str_m2_o1_o2_pcu_sym.118
_audit_creation_date              2020-01-03
_audit_creation_method            'Materials Studio'
_symmetry_space_group_name_H-M    'P1'
_symmetry_Int_Tables_number       1
_symmetry_cell_setting            triclinic
loop_
_symmetry_equiv_pos_as_xyz
  x,y,z
_cell_length_a                    32.7306
_cell_length_b                    28.4813
_cell_length_c                    30.2700
_cell_angle_alpha                 90.0064
_cell_angle_beta                  89.8391
_cell_angle_gamma                 89.8218
loop_
_atom_site_label
_atom_site_type_symbol
_atom_site_fract_x
_atom_site_fract_y
_atom_site_fract_z
_atom_site_U_iso_or_equiv
_atom_site_adp_type
_atom_site_occupancy
C1     C     0.08734   0.16664   0.24815   0.00000  Uiso   1.00
C2     C     0.24601   0.16656   0.24953   0.00000  Uiso   1.00
C3     C     0.16675   0.16666   0.16495   0.00000  Uiso   1.00
C4     C     0.16664   0.16667   0.33508   0.00000  Uiso   1.00
C5     C     0.18531   0.02474   0.21679   0.00000  Uiso   1.00
C6     C     0.14743   0.30859   0.28282   0.00000  Uiso   1.00
C7     C     0.14738   0.02490   0.28279   0.00000  Uiso   1.00
C8     C     0.18547   0.30844   0.21690   0.00000  Uiso   1.00
C9     C     0.02126   0.12312   0.24714   0.00000  Uiso   1.00
C10    C     0.31179   0.20780   0.23659   0.00000  Uiso   1.00
C11    C     0.31224   0.12365   0.25296   0.00000  Uiso   1.00
C12    C     0.02092   0.20874   0.23985   0.00000  Uiso   1.00
C13    C     0.18032   0.20633   0.04763   0.00000  Uiso   1.00
C14    C     0.17848   0.12620   0.45238   0.00000  Uiso   1.00
C15    C     0.15515   0.20715   0.45251   0.00000  Uiso   1.00
C16    C     0.15355   0.12696   0.04768   0.00000  Uiso   1.00
C17    C     0.18003   0.20644   0.09355   0.00000  Uiso   1.00
C18    C     0.17811   0.12610   0.40647   0.00000  Uiso   1.00
C19    C     0.15530   0.20724   0.40659   0.00000  Uiso   1.00
C20    C     0.15379   0.12685   0.09359   0.00000  Uiso   1.00
C21    C     0.16686   0.16665   0.11675   0.00000  Uiso   1.00
C22    C     0.16667   0.16667   0.38332   0.00000  Uiso   1.00
C23    C     0.16692   0.16666   0.02433   0.00000  Uiso   1.00
C24    C     0.16687   0.16668   0.47577   0.00000  Uiso   1.00
C25    C     0.29061   0.16612   0.24684   0.00000  Uiso   1.00
C26    C     0.04269   0.16622   0.24464   0.00000  Uiso   1.00
Cu27   Cu    0.16667   0.21355   0.25000   0.00000  Uiso   1.00
Cu28   Cu    0.16667   0.11978   0.25000   0.00000  Uiso   1.00
H29    H     0.20054   0.04334   0.19036   0.00000  Uiso   1.00
H30    H     0.13190   0.28996   0.30904   0.00000  Uiso   1.00
H31    H     0.13177   0.04364   0.30896   0.00000  Uiso   1.00
H32    H     0.20061   0.28969   0.19046   0.00000  Uiso   1.00
H33    H     0.19146   0.23706   0.03039   0.00000  Uiso   1.00
H34    H     0.18831   0.09481   0.46955   0.00000  Uiso   1.00
H35    H     0.14538   0.23855   0.46979   0.00000  Uiso   1.00
H36    H     0.14242   0.09624   0.03048   0.00000  Uiso   1.00
H37    H     0.19064   0.23735   0.11089   0.00000  Uiso   1.00
H38    H     0.18731   0.09451   0.38911   0.00000  Uiso   1.00
H39    H     0.14602   0.23882   0.38933   0.00000  Uiso   1.00
H40    H     0.14319   0.09591   0.11096   0.00000  Uiso   1.00
N41    N     0.16667   0.28402   0.25000   0.00000  Uiso   1.00
N42    N     0.16667   0.04931   0.25000   0.00000  Uiso   1.00
O43    O     0.10655   0.20625   0.24999   0.00000  Uiso   1.00
O44    O     0.22679   0.12709   0.25000   0.00000  Uiso   1.00
O45    O     0.22679   0.20625   0.25000   0.00000  Uiso   1.00
O46    O     0.10655   0.12709   0.24999   0.00000  Uiso   1.00
O47    O     0.16666   0.20626   0.18573   0.00000  Uiso   1.00
O48    O     0.16667   0.12707   0.31427   0.00000  Uiso   1.00
O49    O     0.16667   0.20626   0.31427   0.00000  Uiso   1.00
O50    O     0.16666   0.12707   0.18573   0.00000  Uiso   1.00
O51    O     0.04152   0.08042   0.24806   0.00000  Uiso   1.00
C52    C     0.04954   0.06639   0.20397   0.00000  Uiso   1.00
H53    H     0.06500   0.03169   0.20452   0.00000  Uiso   1.00
H54    H     0.07011   0.09131   0.18655   0.00000  Uiso   1.00
H55    H     0.02099   0.06267   0.18449   0.00000  Uiso   1.00
O56    O     0.29121   0.24907   0.22703   0.00000  Uiso   1.00
C57    C     0.28921   0.25395   0.18073   0.00000  Uiso   1.00
H58    H     0.27444   0.28804   0.17297   0.00000  Uiso   1.00
H59    H     0.27034   0.22563   0.16584   0.00000  Uiso   1.00
H60    H     0.32017   0.25444   0.16539   0.00000  Uiso   1.00
O61    O     0.29305   0.08516   0.27194   0.00000  Uiso   1.00
C62    C     0.28757   0.04908   0.24059   0.00000  Uiso   1.00
H63    H     0.27995   0.06250   0.20700   0.00000  Uiso   1.00
H64    H     0.26182   0.02691   0.25180   0.00000  Uiso   1.00
H65    H     0.31460   0.02562   0.23959   0.00000  Uiso   1.00
O66    O     0.04103   0.25109   0.23449   0.00000  Uiso   1.00
C67    C     0.03904   0.27623   0.27466   0.00000  Uiso   1.00
H68    H     0.05653   0.30926   0.27084   0.00000  Uiso   1.00
H69    H     0.05311   0.25601   0.30221   0.00000  Uiso   1.00
H70    H     0.00712   0.28607   0.28331   0.00000  Uiso   1.00
C71    C     0.42067   0.16664   0.24815   0.00000  Uiso   1.00
C72    C     0.57934   0.16656   0.24953   0.00000  Uiso   1.00
C73    C     0.50008   0.16666   0.16495   0.00000  Uiso   1.00
C74    C     0.49997   0.16667   0.33508   0.00000  Uiso   1.00
C75    C     0.51865   0.02474   0.21679   0.00000  Uiso   1.00
C76    C     0.48076   0.30859   0.28282   0.00000  Uiso   1.00
C77    C     0.48071   0.02490   0.28279   0.00000  Uiso   1.00
C78    C     0.51881   0.30844   0.21690   0.00000  Uiso   1.00
C79    C     0.35459   0.12312   0.24714   0.00000  Uiso   1.00
C80    C     0.64512   0.20780   0.23659   0.00000  Uiso   1.00
C81    C     0.64557   0.12365   0.25296   0.00000  Uiso   1.00
C82    C     0.35425   0.20874   0.23985   0.00000  Uiso   1.00
C83    C     0.51365   0.20633   0.04763   0.00000  Uiso   1.00
C84    C     0.51181   0.12620   0.45238   0.00000  Uiso   1.00
C85    C     0.48848   0.20715   0.45251   0.00000  Uiso   1.00
C86    C     0.48689   0.12696   0.04768   0.00000  Uiso   1.00
C87    C     0.51337   0.20644   0.09355   0.00000  Uiso   1.00
C88    C     0.51145   0.12610   0.40647   0.00000  Uiso   1.00
C89    C     0.48864   0.20724   0.40659   0.00000  Uiso   1.00
C90    C     0.48713   0.12685   0.09359   0.00000  Uiso   1.00
C91    C     0.50020   0.16665   0.11675   0.00000  Uiso   1.00
C92    C     0.50001   0.16667   0.38332   0.00000  Uiso   1.00
C93    C     0.50026   0.16666   0.02433   0.00000  Uiso   1.00
C94    C     0.50020   0.16668   0.47577   0.00000  Uiso   1.00
C95    C     0.62394   0.16612   0.24684   0.00000  Uiso   1.00
C96    C     0.37602   0.16622   0.24464   0.00000  Uiso   1.00
Cu97   Cu    0.50000   0.21355   0.25000   0.00000  Uiso   1.00
Cu98   Cu    0.50000   0.11978   0.25000   0.00000  Uiso   1.00
H99    H     0.53388   0.04334   0.19036   0.00000  Uiso   1.00
H100   H     0.46523   0.28996   0.30904   0.00000  Uiso   1.00
H101   H     0.46511   0.04364   0.30896   0.00000  Uiso   1.00
H102   H     0.53394   0.28969   0.19046   0.00000  Uiso   1.00
H103   H     0.52479   0.23706   0.03039   0.00000  Uiso   1.00
H104   H     0.52164   0.09481   0.46955   0.00000  Uiso   1.00
H105   H     0.47871   0.23855   0.46979   0.00000  Uiso   1.00
H106   H     0.47575   0.09624   0.03048   0.00000  Uiso   1.00
H107   H     0.52397   0.23735   0.11089   0.00000  Uiso   1.00
H108   H     0.52065   0.09451   0.38911   0.00000  Uiso   1.00
H109   H     0.47936   0.23882   0.38933   0.00000  Uiso   1.00
H110   H     0.47652   0.09591   0.11096   0.00000  Uiso   1.00
N111   N     0.50000   0.28402   0.25000   0.00000  Uiso   1.00
N112   N     0.50000   0.04931   0.25000   0.00000  Uiso   1.00
O113   O     0.43988   0.20625   0.24999   0.00000  Uiso   1.00
O114   O     0.56012   0.12709   0.25000   0.00000  Uiso   1.00
O115   O     0.56012   0.20625   0.25000   0.00000  Uiso   1.00
O116   O     0.43988   0.12709   0.24999   0.00000  Uiso   1.00
O117   O     0.50000   0.20626   0.18573   0.00000  Uiso   1.00
O118   O     0.50000   0.12707   0.31427   0.00000  Uiso   1.00
O119   O     0.50000   0.20626   0.31427   0.00000  Uiso   1.00
O120   O     0.50000   0.12707   0.18573   0.00000  Uiso   1.00
O121   O     0.37486   0.08042   0.24806   0.00000  Uiso   1.00
C122   C     0.38287   0.06639   0.20397   0.00000  Uiso   1.00
H123   H     0.39834   0.03169   0.20452   0.00000  Uiso   1.00
H124   H     0.40344   0.09131   0.18655   0.00000  Uiso   1.00
H125   H     0.35432   0.06267   0.18449   0.00000  Uiso   1.00
O126   O     0.62454   0.24907   0.22703   0.00000  Uiso   1.00
C127   C     0.62255   0.25395   0.18073   0.00000  Uiso   1.00
H128   H     0.60777   0.28804   0.17297   0.00000  Uiso   1.00
H129   H     0.60368   0.22563   0.16584   0.00000  Uiso   1.00
H130   H     0.65350   0.25444   0.16539   0.00000  Uiso   1.00
O131   O     0.62639   0.08516   0.27194   0.00000  Uiso   1.00
C132   C     0.62090   0.04908   0.24059   0.00000  Uiso   1.00
H133   H     0.61328   0.06250   0.20700   0.00000  Uiso   1.00
H134   H     0.59516   0.02691   0.25180   0.00000  Uiso   1.00
H135   H     0.64793   0.02562   0.23959   0.00000  Uiso   1.00
O136   O     0.37436   0.25109   0.23449   0.00000  Uiso   1.00
C137   C     0.37237   0.27623   0.27466   0.00000  Uiso   1.00
H138   H     0.38986   0.30926   0.27084   0.00000  Uiso   1.00
H139   H     0.38644   0.25601   0.30221   0.00000  Uiso   1.00
H140   H     0.34045   0.28607   0.28331   0.00000  Uiso   1.00
C141   C     0.75401   0.16664   0.24815   0.00000  Uiso   1.00
C142   C     0.91267   0.16656   0.24953   0.00000  Uiso   1.00
C143   C     0.83341   0.16666   0.16495   0.00000  Uiso   1.00
C144   C     0.83331   0.16667   0.33508   0.00000  Uiso   1.00
C145   C     0.85198   0.02474   0.21679   0.00000  Uiso   1.00
C146   C     0.81409   0.30859   0.28282   0.00000  Uiso   1.00
C147   C     0.81404   0.02490   0.28279   0.00000  Uiso   1.00
C148   C     0.85214   0.30844   0.21690   0.00000  Uiso   1.00
C149   C     0.68792   0.12312   0.24714   0.00000  Uiso   1.00
C150   C     0.97845   0.20780   0.23659   0.00000  Uiso   1.00
C151   C     0.97891   0.12365   0.25296   0.00000  Uiso   1.00
C152   C     0.68758   0.20874   0.23985   0.00000  Uiso   1.00
C153   C     0.84698   0.20633   0.04763   0.00000  Uiso   1.00
C154   C     0.84514   0.12620   0.45238   0.00000  Uiso   1.00
C155   C     0.82181   0.20715   0.45251   0.00000  Uiso   1.00
C156   C     0.82022   0.12696   0.04768   0.00000  Uiso   1.00
C157   C     0.84670   0.20644   0.09355   0.00000  Uiso   1.00
C158   C     0.84478   0.12610   0.40647   0.00000  Uiso   1.00
C159   C     0.82197   0.20724   0.40659   0.00000  Uiso   1.00
C160   C     0.82046   0.12685   0.09359   0.00000  Uiso   1.00
C161   C     0.83353   0.16665   0.11675   0.00000  Uiso   1.00
C162   C     0.83334   0.16667   0.38332   0.00000  Uiso   1.00
C163   C     0.83359   0.16666   0.02433   0.00000  Uiso   1.00
C164   C     0.83353   0.16668   0.47577   0.00000  Uiso   1.00
C165   C     0.95727   0.16612   0.24684   0.00000  Uiso   1.00
C166   C     0.70935   0.16622   0.24464   0.00000  Uiso   1.00
Cu167  Cu    0.83333   0.21355   0.25000   0.00000  Uiso   1.00
Cu168  Cu    0.83333   0.11978   0.25000   0.00000  Uiso   1.00
H169   H     0.86721   0.04334   0.19036   0.00000  Uiso   1.00
H170   H     0.79856   0.28996   0.30904   0.00000  Uiso   1.00
H171   H     0.79844   0.04364   0.30896   0.00000  Uiso   1.00
H172   H     0.86728   0.28969   0.19046   0.00000  Uiso   1.00
H173   H     0.85813   0.23706   0.03039   0.00000  Uiso   1.00
H174   H     0.85498   0.09481   0.46955   0.00000  Uiso   1.00
H175   H     0.81205   0.23855   0.46979   0.00000  Uiso   1.00
H176   H     0.80909   0.09624   0.03048   0.00000  Uiso   1.00
H177   H     0.85731   0.23735   0.11089   0.00000  Uiso   1.00
H178   H     0.85398   0.09451   0.38911   0.00000  Uiso   1.00
H179   H     0.81269   0.23882   0.38933   0.00000  Uiso   1.00
H180   H     0.80986   0.09591   0.11096   0.00000  Uiso   1.00
N181   N     0.83333   0.28402   0.25000   0.00000  Uiso   1.00
N182   N     0.83333   0.04931   0.25000   0.00000  Uiso   1.00
O183   O     0.77321   0.20625   0.24999   0.00000  Uiso   1.00
O184   O     0.89345   0.12709   0.25000   0.00000  Uiso   1.00
O185   O     0.89345   0.20625   0.25000   0.00000  Uiso   1.00
O186   O     0.77321   0.12709   0.24999   0.00000  Uiso   1.00
O187   O     0.83333   0.20626   0.18573   0.00000  Uiso   1.00
O188   O     0.83334   0.12707   0.31427   0.00000  Uiso   1.00
O189   O     0.83334   0.20626   0.31427   0.00000  Uiso   1.00
O190   O     0.83333   0.12707   0.18573   0.00000  Uiso   1.00
O191   O     0.70819   0.08042   0.24806   0.00000  Uiso   1.00
C192   C     0.71620   0.06639   0.20397   0.00000  Uiso   1.00
H193   H     0.73167   0.03169   0.20452   0.00000  Uiso   1.00
H194   H     0.73677   0.09131   0.18655   0.00000  Uiso   1.00
H195   H     0.68766   0.06267   0.18449   0.00000  Uiso   1.00
O196   O     0.95787   0.24907   0.22703   0.00000  Uiso   1.00
C197   C     0.95588   0.25395   0.18073   0.00000  Uiso   1.00
H198   H     0.94110   0.28804   0.17297   0.00000  Uiso   1.00
H199   H     0.93701   0.22563   0.16584   0.00000  Uiso   1.00
H200   H     0.98683   0.25444   0.16539   0.00000  Uiso   1.00
O201   O     0.95972   0.08516   0.27194   0.00000  Uiso   1.00
C202   C     0.95423   0.04908   0.24059   0.00000  Uiso   1.00
H203   H     0.94662   0.06250   0.20700   0.00000  Uiso   1.00
H204   H     0.92849   0.02691   0.25180   0.00000  Uiso   1.00
H205   H     0.98126   0.02562   0.23959   0.00000  Uiso   1.00
O206   O     0.70770   0.25109   0.23449   0.00000  Uiso   1.00
C207   C     0.70571   0.27623   0.27466   0.00000  Uiso   1.00
H208   H     0.72320   0.30926   0.27084   0.00000  Uiso   1.00
H209   H     0.71977   0.25601   0.30221   0.00000  Uiso   1.00
H210   H     0.67378   0.28607   0.28331   0.00000  Uiso   1.00
C211   C     0.08734   0.49998   0.24815   0.00000  Uiso   1.00
C212   C     0.24601   0.49989   0.24953   0.00000  Uiso   1.00
C213   C     0.16675   0.50000   0.16495   0.00000  Uiso   1.00
C214   C     0.16664   0.50000   0.33508   0.00000  Uiso   1.00
C215   C     0.18531   0.35807   0.21679   0.00000  Uiso   1.00
C216   C     0.14743   0.64192   0.28282   0.00000  Uiso   1.00
C217   C     0.14738   0.35823   0.28279   0.00000  Uiso   1.00
C218   C     0.18547   0.64177   0.21690   0.00000  Uiso   1.00
C219   C     0.02126   0.45646   0.24714   0.00000  Uiso   1.00
C220   C     0.31179   0.54113   0.23659   0.00000  Uiso   1.00
C221   C     0.31224   0.45699   0.25296   0.00000  Uiso   1.00
C222   C     0.02092   0.54207   0.23985   0.00000  Uiso   1.00
C223   C     0.18032   0.53966   0.04763   0.00000  Uiso   1.00
C224   C     0.17848   0.45954   0.45238   0.00000  Uiso   1.00
C225   C     0.15515   0.54048   0.45251   0.00000  Uiso   1.00
C226   C     0.15355   0.46030   0.04768   0.00000  Uiso   1.00
C227   C     0.18003   0.53977   0.09355   0.00000  Uiso   1.00
C228   C     0.17811   0.45943   0.40647   0.00000  Uiso   1.00
C229   C     0.15530   0.54057   0.40659   0.00000  Uiso   1.00
C230   C     0.15379   0.46018   0.09359   0.00000  Uiso   1.00
C231   C     0.16686   0.49998   0.11675   0.00000  Uiso   1.00
C232   C     0.16667   0.50000   0.38332   0.00000  Uiso   1.00
C233   C     0.16692   0.49999   0.02433   0.00000  Uiso   1.00
C234   C     0.16687   0.50001   0.47577   0.00000  Uiso   1.00
C235   C     0.29061   0.49945   0.24684   0.00000  Uiso   1.00
C236   C     0.04269   0.49955   0.24464   0.00000  Uiso   1.00
Cu237  Cu    0.16667   0.54689   0.25000   0.00000  Uiso   1.00
Cu238  Cu    0.16667   0.45311   0.25000   0.00000  Uiso   1.00
H239   H     0.20054   0.37668   0.19036   0.00000  Uiso   1.00
H240   H     0.13190   0.62329   0.30904   0.00000  Uiso   1.00
H241   H     0.13177   0.37698   0.30896   0.00000  Uiso   1.00
H242   H     0.20061   0.62303   0.19046   0.00000  Uiso   1.00
H243   H     0.19146   0.57039   0.03039   0.00000  Uiso   1.00
H244   H     0.18831   0.42814   0.46955   0.00000  Uiso   1.00
H245   H     0.14538   0.57188   0.46979   0.00000  Uiso   1.00
H246   H     0.14242   0.42957   0.03048   0.00000  Uiso   1.00
H247   H     0.19064   0.57068   0.11089   0.00000  Uiso   1.00
H248   H     0.18731   0.42784   0.38911   0.00000  Uiso   1.00
H249   H     0.14602   0.57215   0.38933   0.00000  Uiso   1.00
H250   H     0.14319   0.42925   0.11096   0.00000  Uiso   1.00
N251   N     0.16667   0.61736   0.25000   0.00000  Uiso   1.00
N252   N     0.16667   0.38264   0.25000   0.00000  Uiso   1.00
O253   O     0.10655   0.53958   0.24999   0.00000  Uiso   1.00
O254   O     0.22679   0.46042   0.25000   0.00000  Uiso   1.00
O255   O     0.22679   0.53958   0.25000   0.00000  Uiso   1.00
O256   O     0.10655   0.46042   0.24999   0.00000  Uiso   1.00
O257   O     0.16666   0.53959   0.18573   0.00000  Uiso   1.00
O258   O     0.16667   0.46041   0.31427   0.00000  Uiso   1.00
O259   O     0.16667   0.53959   0.31427   0.00000  Uiso   1.00
O260   O     0.16666   0.46041   0.18573   0.00000  Uiso   1.00
O261   O     0.04152   0.41375   0.24806   0.00000  Uiso   1.00
C262   C     0.04954   0.39973   0.20397   0.00000  Uiso   1.00
H263   H     0.06500   0.36502   0.20452   0.00000  Uiso   1.00
H264   H     0.07011   0.42465   0.18655   0.00000  Uiso   1.00
H265   H     0.02099   0.39600   0.18449   0.00000  Uiso   1.00
O266   O     0.29121   0.58240   0.22703   0.00000  Uiso   1.00
C267   C     0.28921   0.58728   0.18073   0.00000  Uiso   1.00
H268   H     0.27444   0.62137   0.17297   0.00000  Uiso   1.00
H269   H     0.27034   0.55897   0.16584   0.00000  Uiso   1.00
H270   H     0.32017   0.58777   0.16539   0.00000  Uiso   1.00
O271   O     0.29305   0.41849   0.27194   0.00000  Uiso   1.00
C272   C     0.28757   0.38242   0.24059   0.00000  Uiso   1.00
H273   H     0.27995   0.39583   0.20700   0.00000  Uiso   1.00
H274   H     0.26182   0.36024   0.25180   0.00000  Uiso   1.00
H275   H     0.31460   0.35895   0.23959   0.00000  Uiso   1.00
O276   O     0.04103   0.58442   0.23449   0.00000  Uiso   1.00
C277   C     0.03904   0.60956   0.27466   0.00000  Uiso   1.00
H278   H     0.05653   0.64259   0.27084   0.00000  Uiso   1.00
H279   H     0.05311   0.58935   0.30221   0.00000  Uiso   1.00
H280   H     0.00712   0.61940   0.28331   0.00000  Uiso   1.00
C281   C     0.42067   0.49998   0.24815   0.00000  Uiso   1.00
C282   C     0.57934   0.49989   0.24953   0.00000  Uiso   1.00
C283   C     0.50008   0.50000   0.16495   0.00000  Uiso   1.00
C284   C     0.49997   0.50000   0.33508   0.00000  Uiso   1.00
C285   C     0.51865   0.35807   0.21679   0.00000  Uiso   1.00
C286   C     0.48076   0.64192   0.28282   0.00000  Uiso   1.00
C287   C     0.48071   0.35823   0.28279   0.00000  Uiso   1.00
C288   C     0.51881   0.64177   0.21690   0.00000  Uiso   1.00
C289   C     0.35459   0.45646   0.24714   0.00000  Uiso   1.00
C290   C     0.64512   0.54113   0.23659   0.00000  Uiso   1.00
C291   C     0.64557   0.45699   0.25296   0.00000  Uiso   1.00
C292   C     0.35425   0.54207   0.23985   0.00000  Uiso   1.00
C293   C     0.51365   0.53966   0.04763   0.00000  Uiso   1.00
C294   C     0.51181   0.45954   0.45238   0.00000  Uiso   1.00
C295   C     0.48848   0.54048   0.45251   0.00000  Uiso   1.00
C296   C     0.48689   0.46030   0.04768   0.00000  Uiso   1.00
C297   C     0.51337   0.53977   0.09355   0.00000  Uiso   1.00
C298   C     0.51145   0.45943   0.40647   0.00000  Uiso   1.00
C299   C     0.48864   0.54057   0.40659   0.00000  Uiso   1.00
C300   C     0.48713   0.46018   0.09359   0.00000  Uiso   1.00
C301   C     0.50020   0.49998   0.11675   0.00000  Uiso   1.00
C302   C     0.50001   0.50000   0.38332   0.00000  Uiso   1.00
C303   C     0.50026   0.49999   0.02433   0.00000  Uiso   1.00
C304   C     0.50020   0.50001   0.47577   0.00000  Uiso   1.00
C305   C     0.62394   0.49945   0.24684   0.00000  Uiso   1.00
C306   C     0.37602   0.49955   0.24464   0.00000  Uiso   1.00
Cu307  Cu    0.50000   0.54689   0.25000   0.00000  Uiso   1.00
Cu308  Cu    0.50000   0.45311   0.25000   0.00000  Uiso   1.00
H309   H     0.53388   0.37668   0.19036   0.00000  Uiso   1.00
H310   H     0.46523   0.62329   0.30904   0.00000  Uiso   1.00
H311   H     0.46511   0.37698   0.30896   0.00000  Uiso   1.00
H312   H     0.53394   0.62303   0.19046   0.00000  Uiso   1.00
H313   H     0.52479   0.57039   0.03039   0.00000  Uiso   1.00
H314   H     0.52164   0.42814   0.46955   0.00000  Uiso   1.00
H315   H     0.47871   0.57188   0.46979   0.00000  Uiso   1.00
H316   H     0.47575   0.42957   0.03048   0.00000  Uiso   1.00
H317   H     0.52397   0.57068   0.11089   0.00000  Uiso   1.00
H318   H     0.52065   0.42784   0.38911   0.00000  Uiso   1.00
H319   H     0.47936   0.57215   0.38933   0.00000  Uiso   1.00
H320   H     0.47652   0.42925   0.11096   0.00000  Uiso   1.00
N321   N     0.50000   0.61736   0.25000   0.00000  Uiso   1.00
N322   N     0.50000   0.38264   0.25000   0.00000  Uiso   1.00
O323   O     0.43988   0.53958   0.24999   0.00000  Uiso   1.00
O324   O     0.56012   0.46042   0.25000   0.00000  Uiso   1.00
O325   O     0.56012   0.53958   0.25000   0.00000  Uiso   1.00
O326   O     0.43988   0.46042   0.24999   0.00000  Uiso   1.00
O327   O     0.50000   0.53959   0.18573   0.00000  Uiso   1.00
O328   O     0.50000   0.46041   0.31427   0.00000  Uiso   1.00
O329   O     0.50000   0.53959   0.31427   0.00000  Uiso   1.00
O330   O     0.50000   0.46041   0.18573   0.00000  Uiso   1.00
O331   O     0.37486   0.41375   0.24806   0.00000  Uiso   1.00
C332   C     0.38287   0.39973   0.20397   0.00000  Uiso   1.00
H333   H     0.39834   0.36502   0.20452   0.00000  Uiso   1.00
H334   H     0.40344   0.42465   0.18655   0.00000  Uiso   1.00
H335   H     0.35432   0.39600   0.18449   0.00000  Uiso   1.00
O336   O     0.62454   0.58240   0.22703   0.00000  Uiso   1.00
C337   C     0.62255   0.58728   0.18073   0.00000  Uiso   1.00
H338   H     0.60777   0.62137   0.17297   0.00000  Uiso   1.00
H339   H     0.60368   0.55897   0.16584   0.00000  Uiso   1.00
H340   H     0.65350   0.58777   0.16539   0.00000  Uiso   1.00
O341   O     0.62639   0.41849   0.27194   0.00000  Uiso   1.00
C342   C     0.62090   0.38242   0.24059   0.00000  Uiso   1.00
H343   H     0.61328   0.39583   0.20700   0.00000  Uiso   1.00
H344   H     0.59516   0.36024   0.25180   0.00000  Uiso   1.00
H345   H     0.64793   0.35895   0.23959   0.00000  Uiso   1.00
O346   O     0.37436   0.58442   0.23449   0.00000  Uiso   1.00
C347   C     0.37237   0.60956   0.27466   0.00000  Uiso   1.00
H348   H     0.38986   0.64259   0.27084   0.00000  Uiso   1.00
H349   H     0.38644   0.58935   0.30221   0.00000  Uiso   1.00
H350   H     0.34045   0.61940   0.28331   0.00000  Uiso   1.00
C351   C     0.75401   0.49998   0.24815   0.00000  Uiso   1.00
C352   C     0.91267   0.49989   0.24953   0.00000  Uiso   1.00
C353   C     0.83341   0.50000   0.16495   0.00000  Uiso   1.00
C354   C     0.83331   0.50000   0.33508   0.00000  Uiso   1.00
C355   C     0.85198   0.35807   0.21679   0.00000  Uiso   1.00
C356   C     0.81409   0.64192   0.28282   0.00000  Uiso   1.00
C357   C     0.81404   0.35823   0.28279   0.00000  Uiso   1.00
C358   C     0.85214   0.64177   0.21690   0.00000  Uiso   1.00
C359   C     0.68792   0.45646   0.24714   0.00000  Uiso   1.00
C360   C     0.97845   0.54113   0.23659   0.00000  Uiso   1.00
C361   C     0.97891   0.45699   0.25296   0.00000  Uiso   1.00
C362   C     0.68758   0.54207   0.23985   0.00000  Uiso   1.00
C363   C     0.84698   0.53966   0.04763   0.00000  Uiso   1.00
C364   C     0.84514   0.45954   0.45238   0.00000  Uiso   1.00
C365   C     0.82181   0.54048   0.45251   0.00000  Uiso   1.00
C366   C     0.82022   0.46030   0.04768   0.00000  Uiso   1.00
C367   C     0.84670   0.53977   0.09355   0.00000  Uiso   1.00
C368   C     0.84478   0.45943   0.40647   0.00000  Uiso   1.00
C369   C     0.82197   0.54057   0.40659   0.00000  Uiso   1.00
C370   C     0.82046   0.46018   0.09359   0.00000  Uiso   1.00
C371   C     0.83353   0.49998   0.11675   0.00000  Uiso   1.00
C372   C     0.83334   0.50000   0.38332   0.00000  Uiso   1.00
C373   C     0.83359   0.49999   0.02433   0.00000  Uiso   1.00
C374   C     0.83353   0.50001   0.47577   0.00000  Uiso   1.00
C375   C     0.95727   0.49945   0.24684   0.00000  Uiso   1.00
C376   C     0.70935   0.49955   0.24464   0.00000  Uiso   1.00
Cu377  Cu    0.83333   0.54689   0.25000   0.00000  Uiso   1.00
Cu378  Cu    0.83333   0.45311   0.25000   0.00000  Uiso   1.00
H379   H     0.86721   0.37668   0.19036   0.00000  Uiso   1.00
H380   H     0.79856   0.62329   0.30904   0.00000  Uiso   1.00
H381   H     0.79844   0.37698   0.30896   0.00000  Uiso   1.00
H382   H     0.86728   0.62303   0.19046   0.00000  Uiso   1.00
H383   H     0.85813   0.57039   0.03039   0.00000  Uiso   1.00
H384   H     0.85498   0.42814   0.46955   0.00000  Uiso   1.00
H385   H     0.81205   0.57188   0.46979   0.00000  Uiso   1.00
H386   H     0.80909   0.42957   0.03048   0.00000  Uiso   1.00
H387   H     0.85731   0.57068   0.11089   0.00000  Uiso   1.00
H388   H     0.85398   0.42784   0.38911   0.00000  Uiso   1.00
H389   H     0.81269   0.57215   0.38933   0.00000  Uiso   1.00
H390   H     0.80986   0.42925   0.11096   0.00000  Uiso   1.00
N391   N     0.83333   0.61736   0.25000   0.00000  Uiso   1.00
N392   N     0.83333   0.38264   0.25000   0.00000  Uiso   1.00
O393   O     0.77321   0.53958   0.24999   0.00000  Uiso   1.00
O394   O     0.89345   0.46042   0.25000   0.00000  Uiso   1.00
O395   O     0.89345   0.53958   0.25000   0.00000  Uiso   1.00
O396   O     0.77321   0.46042   0.24999   0.00000  Uiso   1.00
O397   O     0.83333   0.53959   0.18573   0.00000  Uiso   1.00
O398   O     0.83334   0.46041   0.31427   0.00000  Uiso   1.00
O399   O     0.83334   0.53959   0.31427   0.00000  Uiso   1.00
O400   O     0.83333   0.46041   0.18573   0.00000  Uiso   1.00
O401   O     0.70819   0.41375   0.24806   0.00000  Uiso   1.00
C402   C     0.71620   0.39973   0.20397   0.00000  Uiso   1.00
H403   H     0.73167   0.36502   0.20452   0.00000  Uiso   1.00
H404   H     0.73677   0.42465   0.18655   0.00000  Uiso   1.00
H405   H     0.68766   0.39600   0.18449   0.00000  Uiso   1.00
O406   O     0.95787   0.58240   0.22703   0.00000  Uiso   1.00
C407   C     0.95588   0.58728   0.18073   0.00000  Uiso   1.00
H408   H     0.94110   0.62137   0.17297   0.00000  Uiso   1.00
H409   H     0.93701   0.55897   0.16584   0.00000  Uiso   1.00
H410   H     0.98683   0.58777   0.16539   0.00000  Uiso   1.00
O411   O     0.95972   0.41849   0.27194   0.00000  Uiso   1.00
C412   C     0.95423   0.38242   0.24059   0.00000  Uiso   1.00
H413   H     0.94662   0.39583   0.20700   0.00000  Uiso   1.00
H414   H     0.92849   0.36024   0.25180   0.00000  Uiso   1.00
H415   H     0.98126   0.35895   0.23959   0.00000  Uiso   1.00
O416   O     0.70770   0.58442   0.23449   0.00000  Uiso   1.00
C417   C     0.70571   0.60956   0.27466   0.00000  Uiso   1.00
H418   H     0.72320   0.64259   0.27084   0.00000  Uiso   1.00
H419   H     0.71977   0.58935   0.30221   0.00000  Uiso   1.00
H420   H     0.67378   0.61940   0.28331   0.00000  Uiso   1.00
C421   C     0.08734   0.83331   0.24815   0.00000  Uiso   1.00
C422   C     0.24601   0.83322   0.24953   0.00000  Uiso   1.00
C423   C     0.16675   0.83333   0.16495   0.00000  Uiso   1.00
C424   C     0.16664   0.83334   0.33508   0.00000  Uiso   1.00
C425   C     0.18531   0.69140   0.21679   0.00000  Uiso   1.00
C426   C     0.14743   0.97525   0.28282   0.00000  Uiso   1.00
C427   C     0.14738   0.69156   0.28279   0.00000  Uiso   1.00
C428   C     0.18547   0.97511   0.21690   0.00000  Uiso   1.00
C429   C     0.02126   0.78979   0.24714   0.00000  Uiso   1.00
C430   C     0.31179   0.87446   0.23659   0.00000  Uiso   1.00
C431   C     0.31224   0.79032   0.25296   0.00000  Uiso   1.00
C432   C     0.02092   0.87541   0.23985   0.00000  Uiso   1.00
C433   C     0.18032   0.87300   0.04763   0.00000  Uiso   1.00
C434   C     0.17848   0.79287   0.45238   0.00000  Uiso   1.00
C435   C     0.15515   0.87382   0.45251   0.00000  Uiso   1.00
C436   C     0.15355   0.79363   0.04768   0.00000  Uiso   1.00
C437   C     0.18003   0.87310   0.09355   0.00000  Uiso   1.00
C438   C     0.17811   0.79277   0.40647   0.00000  Uiso   1.00
C439   C     0.15530   0.87390   0.40659   0.00000  Uiso   1.00
C440   C     0.15379   0.79351   0.09359   0.00000  Uiso   1.00
C441   C     0.16686   0.83332   0.11675   0.00000  Uiso   1.00
C442   C     0.16667   0.83334   0.38332   0.00000  Uiso   1.00
C443   C     0.16692   0.83333   0.02433   0.00000  Uiso   1.00
C444   C     0.16687   0.83335   0.47577   0.00000  Uiso   1.00
C445   C     0.29061   0.83279   0.24684   0.00000  Uiso   1.00
C446   C     0.04269   0.83288   0.24464   0.00000  Uiso   1.00
Cu447  Cu    0.16667   0.88022   0.25000   0.00000  Uiso   1.00
Cu448  Cu    0.16667   0.78645   0.25000   0.00000  Uiso   1.00
H449   H     0.20054   0.71001   0.19036   0.00000  Uiso   1.00
H450   H     0.13190   0.95662   0.30904   0.00000  Uiso   1.00
H451   H     0.13177   0.71031   0.30896   0.00000  Uiso   1.00
H452   H     0.20061   0.95636   0.19046   0.00000  Uiso   1.00
H453   H     0.19146   0.90372   0.03039   0.00000  Uiso   1.00
H454   H     0.18831   0.76147   0.46955   0.00000  Uiso   1.00
H455   H     0.14538   0.90521   0.46979   0.00000  Uiso   1.00
H456   H     0.14242   0.76291   0.03048   0.00000  Uiso   1.00
H457   H     0.19064   0.90402   0.11089   0.00000  Uiso   1.00
H458   H     0.18731   0.76118   0.38911   0.00000  Uiso   1.00
H459   H     0.14602   0.90548   0.38933   0.00000  Uiso   1.00
H460   H     0.14319   0.76258   0.11096   0.00000  Uiso   1.00
N461   N     0.16667   0.95069   0.25000   0.00000  Uiso   1.00
N462   N     0.16667   0.71598   0.25000   0.00000  Uiso   1.00
O463   O     0.10655   0.87291   0.24999   0.00000  Uiso   1.00
O464   O     0.22679   0.79375   0.25000   0.00000  Uiso   1.00
O465   O     0.22679   0.87291   0.25000   0.00000  Uiso   1.00
O466   O     0.10655   0.79375   0.24999   0.00000  Uiso   1.00
O467   O     0.16666   0.87293   0.18573   0.00000  Uiso   1.00
O468   O     0.16667   0.79374   0.31427   0.00000  Uiso   1.00
O469   O     0.16667   0.87293   0.31427   0.00000  Uiso   1.00
O470   O     0.16666   0.79374   0.18573   0.00000  Uiso   1.00
O471   O     0.04152   0.74708   0.24806   0.00000  Uiso   1.00
C472   C     0.04954   0.73306   0.20397   0.00000  Uiso   1.00
H473   H     0.06500   0.69836   0.20452   0.00000  Uiso   1.00
H474   H     0.07011   0.75798   0.18655   0.00000  Uiso   1.00
H475   H     0.02099   0.72933   0.18449   0.00000  Uiso   1.00
O476   O     0.29121   0.91573   0.22703   0.00000  Uiso   1.00
C477   C     0.28921   0.92062   0.18073   0.00000  Uiso   1.00
H478   H     0.27444   0.95471   0.17297   0.00000  Uiso   1.00
H479   H     0.27034   0.89230   0.16584   0.00000  Uiso   1.00
H480   H     0.32017   0.92110   0.16539   0.00000  Uiso   1.00
O481   O     0.29305   0.75182   0.27194   0.00000  Uiso   1.00
C482   C     0.28757   0.71575   0.24059   0.00000  Uiso   1.00
H483   H     0.27995   0.72917   0.20700   0.00000  Uiso   1.00
H484   H     0.26182   0.69357   0.25180   0.00000  Uiso   1.00
H485   H     0.31460   0.69229   0.23959   0.00000  Uiso   1.00
O486   O     0.04103   0.91775   0.23449   0.00000  Uiso   1.00
C487   C     0.03904   0.94289   0.27466   0.00000  Uiso   1.00
H488   H     0.05653   0.97592   0.27084   0.00000  Uiso   1.00
H489   H     0.05311   0.92268   0.30221   0.00000  Uiso   1.00
H490   H     0.00712   0.95274   0.28331   0.00000  Uiso   1.00
C491   C     0.42067   0.83331   0.24815   0.00000  Uiso   1.00
C492   C     0.57934   0.83322   0.24953   0.00000  Uiso   1.00
C493   C     0.50008   0.83333   0.16495   0.00000  Uiso   1.00
C494   C     0.49997   0.83334   0.33508   0.00000  Uiso   1.00
C495   C     0.51865   0.69140   0.21679   0.00000  Uiso   1.00
C496   C     0.48076   0.97525   0.28282   0.00000  Uiso   1.00
C497   C     0.48071   0.69156   0.28279   0.00000  Uiso   1.00
C498   C     0.51881   0.97511   0.21690   0.00000  Uiso   1.00
C499   C     0.35459   0.78979   0.24714   0.00000  Uiso   1.00
C500   C     0.64512   0.87446   0.23659   0.00000  Uiso   1.00
C501   C     0.64557   0.79032   0.25296   0.00000  Uiso   1.00
C502   C     0.35425   0.87541   0.23985   0.00000  Uiso   1.00
C503   C     0.51365   0.87300   0.04763   0.00000  Uiso   1.00
C504   C     0.51181   0.79287   0.45238   0.00000  Uiso   1.00
C505   C     0.48848   0.87382   0.45251   0.00000  Uiso   1.00
C506   C     0.48689   0.79363   0.04768   0.00000  Uiso   1.00
C507   C     0.51337   0.87310   0.09355   0.00000  Uiso   1.00
C508   C     0.51145   0.79277   0.40647   0.00000  Uiso   1.00
C509   C     0.48864   0.87390   0.40659   0.00000  Uiso   1.00
C510   C     0.48713   0.79351   0.09359   0.00000  Uiso   1.00
C511   C     0.50020   0.83332   0.11675   0.00000  Uiso   1.00
C512   C     0.50001   0.83334   0.38332   0.00000  Uiso   1.00
C513   C     0.50026   0.83333   0.02433   0.00000  Uiso   1.00
C514   C     0.50020   0.83335   0.47577   0.00000  Uiso   1.00
C515   C     0.62394   0.83279   0.24684   0.00000  Uiso   1.00
C516   C     0.37602   0.83288   0.24464   0.00000  Uiso   1.00
Cu517  Cu    0.50000   0.88022   0.25000   0.00000  Uiso   1.00
Cu518  Cu    0.50000   0.78645   0.25000   0.00000  Uiso   1.00
H519   H     0.53388   0.71001   0.19036   0.00000  Uiso   1.00
H520   H     0.46523   0.95662   0.30904   0.00000  Uiso   1.00
H521   H     0.46511   0.71031   0.30896   0.00000  Uiso   1.00
H522   H     0.53394   0.95636   0.19046   0.00000  Uiso   1.00
H523   H     0.52479   0.90372   0.03039   0.00000  Uiso   1.00
H524   H     0.52164   0.76147   0.46955   0.00000  Uiso   1.00
H525   H     0.47871   0.90521   0.46979   0.00000  Uiso   1.00
H526   H     0.47575   0.76291   0.03048   0.00000  Uiso   1.00
H527   H     0.52397   0.90402   0.11089   0.00000  Uiso   1.00
H528   H     0.52065   0.76118   0.38911   0.00000  Uiso   1.00
H529   H     0.47936   0.90548   0.38933   0.00000  Uiso   1.00
H530   H     0.47652   0.76258   0.11096   0.00000  Uiso   1.00
N531   N     0.50000   0.95069   0.25000   0.00000  Uiso   1.00
N532   N     0.50000   0.71598   0.25000   0.00000  Uiso   1.00
O533   O     0.43988   0.87291   0.24999   0.00000  Uiso   1.00
O534   O     0.56012   0.79375   0.25000   0.00000  Uiso   1.00
O535   O     0.56012   0.87291   0.25000   0.00000  Uiso   1.00
O536   O     0.43988   0.79375   0.24999   0.00000  Uiso   1.00
O537   O     0.50000   0.87293   0.18573   0.00000  Uiso   1.00
O538   O     0.50000   0.79374   0.31427   0.00000  Uiso   1.00
O539   O     0.50000   0.87293   0.31427   0.00000  Uiso   1.00
O540   O     0.50000   0.79374   0.18573   0.00000  Uiso   1.00
O541   O     0.37486   0.74708   0.24806   0.00000  Uiso   1.00
C542   C     0.38287   0.73306   0.20397   0.00000  Uiso   1.00
H543   H     0.39834   0.69836   0.20452   0.00000  Uiso   1.00
H544   H     0.40344   0.75798   0.18655   0.00000  Uiso   1.00
H545   H     0.35432   0.72933   0.18449   0.00000  Uiso   1.00
O546   O     0.62454   0.91573   0.22703   0.00000  Uiso   1.00
C547   C     0.62255   0.92062   0.18073   0.00000  Uiso   1.00
H548   H     0.60777   0.95471   0.17297   0.00000  Uiso   1.00
H549   H     0.60368   0.89230   0.16584   0.00000  Uiso   1.00
H550   H     0.65350   0.92110   0.16539   0.00000  Uiso   1.00
O551   O     0.62639   0.75182   0.27194   0.00000  Uiso   1.00
C552   C     0.62090   0.71575   0.24059   0.00000  Uiso   1.00
H553   H     0.61328   0.72917   0.20700   0.00000  Uiso   1.00
H554   H     0.59516   0.69357   0.25180   0.00000  Uiso   1.00
H555   H     0.64793   0.69229   0.23959   0.00000  Uiso   1.00
O556   O     0.37436   0.91775   0.23449   0.00000  Uiso   1.00
C557   C     0.37237   0.94289   0.27466   0.00000  Uiso   1.00
H558   H     0.38986   0.97592   0.27084   0.00000  Uiso   1.00
H559   H     0.38644   0.92268   0.30221   0.00000  Uiso   1.00
H560   H     0.34045   0.95274   0.28331   0.00000  Uiso   1.00
C561   C     0.75401   0.83331   0.24815   0.00000  Uiso   1.00
C562   C     0.91267   0.83322   0.24953   0.00000  Uiso   1.00
C563   C     0.83341   0.83333   0.16495   0.00000  Uiso   1.00
C564   C     0.83331   0.83334   0.33508   0.00000  Uiso   1.00
C565   C     0.85198   0.69140   0.21679   0.00000  Uiso   1.00
C566   C     0.81409   0.97525   0.28282   0.00000  Uiso   1.00
C567   C     0.81404   0.69156   0.28279   0.00000  Uiso   1.00
C568   C     0.85214   0.97511   0.21690   0.00000  Uiso   1.00
C569   C     0.68792   0.78979   0.24714   0.00000  Uiso   1.00
C570   C     0.97845   0.87446   0.23659   0.00000  Uiso   1.00
C571   C     0.97891   0.79032   0.25296   0.00000  Uiso   1.00
C572   C     0.68758   0.87541   0.23985   0.00000  Uiso   1.00
C573   C     0.84698   0.87300   0.04763   0.00000  Uiso   1.00
C574   C     0.84514   0.79287   0.45238   0.00000  Uiso   1.00
C575   C     0.82181   0.87382   0.45251   0.00000  Uiso   1.00
C576   C     0.82022   0.79363   0.04768   0.00000  Uiso   1.00
C577   C     0.84670   0.87310   0.09355   0.00000  Uiso   1.00
C578   C     0.84478   0.79277   0.40647   0.00000  Uiso   1.00
C579   C     0.82197   0.87390   0.40659   0.00000  Uiso   1.00
C580   C     0.82046   0.79351   0.09359   0.00000  Uiso   1.00
C581   C     0.83353   0.83332   0.11675   0.00000  Uiso   1.00
C582   C     0.83334   0.83334   0.38332   0.00000  Uiso   1.00
C583   C     0.83359   0.83333   0.02433   0.00000  Uiso   1.00
C584   C     0.83353   0.83335   0.47577   0.00000  Uiso   1.00
C585   C     0.95727   0.83279   0.24684   0.00000  Uiso   1.00
C586   C     0.70935   0.83288   0.24464   0.00000  Uiso   1.00
Cu587  Cu    0.83333   0.88022   0.25000   0.00000  Uiso   1.00
Cu588  Cu    0.83333   0.78645   0.25000   0.00000  Uiso   1.00
H589   H     0.86721   0.71001   0.19036   0.00000  Uiso   1.00
H590   H     0.79856   0.95662   0.30904   0.00000  Uiso   1.00
H591   H     0.79844   0.71031   0.30896   0.00000  Uiso   1.00
H592   H     0.86728   0.95636   0.19046   0.00000  Uiso   1.00
H593   H     0.85813   0.90372   0.03039   0.00000  Uiso   1.00
H594   H     0.85498   0.76147   0.46955   0.00000  Uiso   1.00
H595   H     0.81205   0.90521   0.46979   0.00000  Uiso   1.00
H596   H     0.80909   0.76291   0.03048   0.00000  Uiso   1.00
H597   H     0.85731   0.90402   0.11089   0.00000  Uiso   1.00
H598   H     0.85398   0.76118   0.38911   0.00000  Uiso   1.00
H599   H     0.81269   0.90548   0.38933   0.00000  Uiso   1.00
H600   H     0.80986   0.76258   0.11096   0.00000  Uiso   1.00
N601   N     0.83333   0.95069   0.25000   0.00000  Uiso   1.00
N602   N     0.83333   0.71598   0.25000   0.00000  Uiso   1.00
O603   O     0.77321   0.87291   0.24999   0.00000  Uiso   1.00
O604   O     0.89345   0.79375   0.25000   0.00000  Uiso   1.00
O605   O     0.89345   0.87291   0.25000   0.00000  Uiso   1.00
O606   O     0.77321   0.79375   0.24999   0.00000  Uiso   1.00
O607   O     0.83333   0.87293   0.18573   0.00000  Uiso   1.00
O608   O     0.83334   0.79374   0.31427   0.00000  Uiso   1.00
O609   O     0.83334   0.87293   0.31427   0.00000  Uiso   1.00
O610   O     0.83333   0.79374   0.18573   0.00000  Uiso   1.00
O611   O     0.70819   0.74708   0.24806   0.00000  Uiso   1.00
C612   C     0.71620   0.73306   0.20397   0.00000  Uiso   1.00
H613   H     0.73167   0.69836   0.20452   0.00000  Uiso   1.00
H614   H     0.73677   0.75798   0.18655   0.00000  Uiso   1.00
H615   H     0.68766   0.72933   0.18449   0.00000  Uiso   1.00
O616   O     0.95787   0.91573   0.22703   0.00000  Uiso   1.00
C617   C     0.95588   0.92062   0.18073   0.00000  Uiso   1.00
H618   H     0.94110   0.95471   0.17297   0.00000  Uiso   1.00
H619   H     0.93701   0.89230   0.16584   0.00000  Uiso   1.00
H620   H     0.98683   0.92110   0.16539   0.00000  Uiso   1.00
O621   O     0.95972   0.75182   0.27194   0.00000  Uiso   1.00
C622   C     0.95423   0.71575   0.24059   0.00000  Uiso   1.00
H623   H     0.94662   0.72917   0.20700   0.00000  Uiso   1.00
H624   H     0.92849   0.69357   0.25180   0.00000  Uiso   1.00
H625   H     0.98126   0.69229   0.23959   0.00000  Uiso   1.00
O626   O     0.70770   0.91775   0.23449   0.00000  Uiso   1.00
C627   C     0.70571   0.94289   0.27466   0.00000  Uiso   1.00
H628   H     0.72320   0.97592   0.27084   0.00000  Uiso   1.00
H629   H     0.71977   0.92268   0.30221   0.00000  Uiso   1.00
H630   H     0.67378   0.95274   0.28331   0.00000  Uiso   1.00
C631   C     0.08734   0.16664   0.74815   0.00000  Uiso   1.00
C632   C     0.24601   0.16656   0.74953   0.00000  Uiso   1.00
C633   C     0.16675   0.16666   0.66495   0.00000  Uiso   1.00
C634   C     0.16664   0.16667   0.83508   0.00000  Uiso   1.00
C635   C     0.18531   0.02474   0.71679   0.00000  Uiso   1.00
C636   C     0.14743   0.30859   0.78282   0.00000  Uiso   1.00
C637   C     0.14738   0.02490   0.78279   0.00000  Uiso   1.00
C638   C     0.18547   0.30844   0.71690   0.00000  Uiso   1.00
C639   C     0.02126   0.12312   0.74714   0.00000  Uiso   1.00
C640   C     0.31179   0.20780   0.73659   0.00000  Uiso   1.00
C641   C     0.31224   0.12365   0.75296   0.00000  Uiso   1.00
C642   C     0.02092   0.20874   0.73985   0.00000  Uiso   1.00
C643   C     0.18032   0.20633   0.54763   0.00000  Uiso   1.00
C644   C     0.17848   0.12620   0.95238   0.00000  Uiso   1.00
C645   C     0.15515   0.20715   0.95251   0.00000  Uiso   1.00
C646   C     0.15355   0.12696   0.54768   0.00000  Uiso   1.00
C647   C     0.18003   0.20644   0.59355   0.00000  Uiso   1.00
C648   C     0.17811   0.12610   0.90647   0.00000  Uiso   1.00
C649   C     0.15530   0.20724   0.90659   0.00000  Uiso   1.00
C650   C     0.15379   0.12685   0.59359   0.00000  Uiso   1.00
C651   C     0.16686   0.16665   0.61675   0.00000  Uiso   1.00
C652   C     0.16667   0.16667   0.88332   0.00000  Uiso   1.00
C653   C     0.16692   0.16666   0.52433   0.00000  Uiso   1.00
C654   C     0.16687   0.16668   0.97577   0.00000  Uiso   1.00
C655   C     0.29061   0.16612   0.74684   0.00000  Uiso   1.00
C656   C     0.04269   0.16622   0.74464   0.00000  Uiso   1.00
Cu657  Cu    0.16667   0.21355   0.75000   0.00000  Uiso   1.00
Cu658  Cu    0.16667   0.11978   0.75000   0.00000  Uiso   1.00
H659   H     0.20054   0.04334   0.69036   0.00000  Uiso   1.00
H660   H     0.13190   0.28996   0.80904   0.00000  Uiso   1.00
H661   H     0.13177   0.04364   0.80896   0.00000  Uiso   1.00
H662   H     0.20061   0.28969   0.69046   0.00000  Uiso   1.00
H663   H     0.19146   0.23706   0.53039   0.00000  Uiso   1.00
H664   H     0.18831   0.09481   0.96955   0.00000  Uiso   1.00
H665   H     0.14538   0.23855   0.96979   0.00000  Uiso   1.00
H666   H     0.14242   0.09624   0.53048   0.00000  Uiso   1.00
H667   H     0.19064   0.23735   0.61089   0.00000  Uiso   1.00
H668   H     0.18731   0.09451   0.88911   0.00000  Uiso   1.00
H669   H     0.14602   0.23882   0.88933   0.00000  Uiso   1.00
H670   H     0.14319   0.09591   0.61096   0.00000  Uiso   1.00
N671   N     0.16667   0.28402   0.75000   0.00000  Uiso   1.00
N672   N     0.16667   0.04931   0.75000   0.00000  Uiso   1.00
O673   O     0.10655   0.20625   0.74999   0.00000  Uiso   1.00
O674   O     0.22679   0.12709   0.75000   0.00000  Uiso   1.00
O675   O     0.22679   0.20625   0.75000   0.00000  Uiso   1.00
O676   O     0.10655   0.12709   0.74999   0.00000  Uiso   1.00
O677   O     0.16666   0.20626   0.68573   0.00000  Uiso   1.00
O678   O     0.16667   0.12707   0.81427   0.00000  Uiso   1.00
O679   O     0.16667   0.20626   0.81427   0.00000  Uiso   1.00
O680   O     0.16666   0.12707   0.68573   0.00000  Uiso   1.00
O681   O     0.04152   0.08042   0.74806   0.00000  Uiso   1.00
C682   C     0.04954   0.06639   0.70397   0.00000  Uiso   1.00
H683   H     0.06500   0.03169   0.70452   0.00000  Uiso   1.00
H684   H     0.07011   0.09131   0.68655   0.00000  Uiso   1.00
H685   H     0.02099   0.06267   0.68449   0.00000  Uiso   1.00
O686   O     0.29121   0.24907   0.72703   0.00000  Uiso   1.00
C687   C     0.28921   0.25395   0.68073   0.00000  Uiso   1.00
H688   H     0.27444   0.28804   0.67297   0.00000  Uiso   1.00
H689   H     0.27034   0.22563   0.66584   0.00000  Uiso   1.00
H690   H     0.32017   0.25444   0.66539   0.00000  Uiso   1.00
O691   O     0.29305   0.08516   0.77194   0.00000  Uiso   1.00
C692   C     0.28757   0.04908   0.74059   0.00000  Uiso   1.00
H693   H     0.27995   0.06250   0.70700   0.00000  Uiso   1.00
H694   H     0.26182   0.02691   0.75180   0.00000  Uiso   1.00
H695   H     0.31460   0.02562   0.73959   0.00000  Uiso   1.00
O696   O     0.04103   0.25109   0.73449   0.00000  Uiso   1.00
C697   C     0.03904   0.27623   0.77466   0.00000  Uiso   1.00
H698   H     0.05653   0.30926   0.77084   0.00000  Uiso   1.00
H699   H     0.05311   0.25601   0.80221   0.00000  Uiso   1.00
H700   H     0.00712   0.28607   0.78331   0.00000  Uiso   1.00
C701   C     0.42067   0.16664   0.74815   0.00000  Uiso   1.00
C702   C     0.57934   0.16656   0.74953   0.00000  Uiso   1.00
C703   C     0.50008   0.16666   0.66495   0.00000  Uiso   1.00
C704   C     0.49997   0.16667   0.83508   0.00000  Uiso   1.00
C705   C     0.51865   0.02474   0.71679   0.00000  Uiso   1.00
C706   C     0.48076   0.30859   0.78282   0.00000  Uiso   1.00
C707   C     0.48071   0.02490   0.78279   0.00000  Uiso   1.00
C708   C     0.51881   0.30844   0.71690   0.00000  Uiso   1.00
C709   C     0.35459   0.12312   0.74714   0.00000  Uiso   1.00
C710   C     0.64512   0.20780   0.73659   0.00000  Uiso   1.00
C711   C     0.64557   0.12365   0.75296   0.00000  Uiso   1.00
C712   C     0.35425   0.20874   0.73985   0.00000  Uiso   1.00
C713   C     0.51365   0.20633   0.54763   0.00000  Uiso   1.00
C714   C     0.51181   0.12620   0.95238   0.00000  Uiso   1.00
C715   C     0.48848   0.20715   0.95251   0.00000  Uiso   1.00
C716   C     0.48689   0.12696   0.54768   0.00000  Uiso   1.00
C717   C     0.51337   0.20644   0.59355   0.00000  Uiso   1.00
C718   C     0.51145   0.12610   0.90647   0.00000  Uiso   1.00
C719   C     0.48864   0.20724   0.90659   0.00000  Uiso   1.00
C720   C     0.48713   0.12685   0.59359   0.00000  Uiso   1.00
C721   C     0.50020   0.16665   0.61675   0.00000  Uiso   1.00
C722   C     0.50001   0.16667   0.88332   0.00000  Uiso   1.00
C723   C     0.50026   0.16666   0.52433   0.00000  Uiso   1.00
C724   C     0.50020   0.16668   0.97577   0.00000  Uiso   1.00
C725   C     0.62394   0.16612   0.74684   0.00000  Uiso   1.00
C726   C     0.37602   0.16622   0.74464   0.00000  Uiso   1.00
Cu727  Cu    0.50000   0.21355   0.75000   0.00000  Uiso   1.00
Cu728  Cu    0.50000   0.11978   0.75000   0.00000  Uiso   1.00
H729   H     0.53388   0.04334   0.69036   0.00000  Uiso   1.00
H730   H     0.46523   0.28996   0.80904   0.00000  Uiso   1.00
H731   H     0.46511   0.04364   0.80896   0.00000  Uiso   1.00
H732   H     0.53394   0.28969   0.69046   0.00000  Uiso   1.00
H733   H     0.52479   0.23706   0.53039   0.00000  Uiso   1.00
H734   H     0.52164   0.09481   0.96955   0.00000  Uiso   1.00
H735   H     0.47871   0.23855   0.96979   0.00000  Uiso   1.00
H736   H     0.47575   0.09624   0.53048   0.00000  Uiso   1.00
H737   H     0.52397   0.23735   0.61089   0.00000  Uiso   1.00
H738   H     0.52065   0.09451   0.88911   0.00000  Uiso   1.00
H739   H     0.47936   0.23882   0.88933   0.00000  Uiso   1.00
H740   H     0.47652   0.09591   0.61096   0.00000  Uiso   1.00
N741   N     0.50000   0.28402   0.75000   0.00000  Uiso   1.00
N742   N     0.50000   0.04931   0.75000   0.00000  Uiso   1.00
O743   O     0.43988   0.20625   0.74999   0.00000  Uiso   1.00
O744   O     0.56012   0.12709   0.75000   0.00000  Uiso   1.00
O745   O     0.56012   0.20625   0.75000   0.00000  Uiso   1.00
O746   O     0.43988   0.12709   0.74999   0.00000  Uiso   1.00
O747   O     0.50000   0.20626   0.68573   0.00000  Uiso   1.00
O748   O     0.50000   0.12707   0.81427   0.00000  Uiso   1.00
O749   O     0.50000   0.20626   0.81427   0.00000  Uiso   1.00
O750   O     0.50000   0.12707   0.68573   0.00000  Uiso   1.00
O751   O     0.37486   0.08042   0.74806   0.00000  Uiso   1.00
C752   C     0.38287   0.06639   0.70397   0.00000  Uiso   1.00
H753   H     0.39834   0.03169   0.70452   0.00000  Uiso   1.00
H754   H     0.40344   0.09131   0.68655   0.00000  Uiso   1.00
H755   H     0.35432   0.06267   0.68449   0.00000  Uiso   1.00
O756   O     0.62454   0.24907   0.72703   0.00000  Uiso   1.00
C757   C     0.62255   0.25395   0.68073   0.00000  Uiso   1.00
H758   H     0.60777   0.28804   0.67297   0.00000  Uiso   1.00
H759   H     0.60368   0.22563   0.66584   0.00000  Uiso   1.00
H760   H     0.65350   0.25444   0.66539   0.00000  Uiso   1.00
O761   O     0.62639   0.08516   0.77194   0.00000  Uiso   1.00
C762   C     0.62090   0.04908   0.74059   0.00000  Uiso   1.00
H763   H     0.61328   0.06250   0.70700   0.00000  Uiso   1.00
H764   H     0.59516   0.02691   0.75180   0.00000  Uiso   1.00
H765   H     0.64793   0.02562   0.73959   0.00000  Uiso   1.00
O766   O     0.37436   0.25109   0.73449   0.00000  Uiso   1.00
C767   C     0.37237   0.27623   0.77466   0.00000  Uiso   1.00
H768   H     0.38986   0.30926   0.77084   0.00000  Uiso   1.00
H769   H     0.38644   0.25601   0.80221   0.00000  Uiso   1.00
H770   H     0.34045   0.28607   0.78331   0.00000  Uiso   1.00
C771   C     0.75401   0.16664   0.74815   0.00000  Uiso   1.00
C772   C     0.91267   0.16656   0.74953   0.00000  Uiso   1.00
C773   C     0.83341   0.16666   0.66495   0.00000  Uiso   1.00
C774   C     0.83331   0.16667   0.83508   0.00000  Uiso   1.00
C775   C     0.85198   0.02474   0.71679   0.00000  Uiso   1.00
C776   C     0.81409   0.30859   0.78282   0.00000  Uiso   1.00
C777   C     0.81404   0.02490   0.78279   0.00000  Uiso   1.00
C778   C     0.85214   0.30844   0.71690   0.00000  Uiso   1.00
C779   C     0.68792   0.12312   0.74714   0.00000  Uiso   1.00
C780   C     0.97845   0.20780   0.73659   0.00000  Uiso   1.00
C781   C     0.97891   0.12365   0.75296   0.00000  Uiso   1.00
C782   C     0.68758   0.20874   0.73985   0.00000  Uiso   1.00
C783   C     0.84698   0.20633   0.54763   0.00000  Uiso   1.00
C784   C     0.84514   0.12620   0.95238   0.00000  Uiso   1.00
C785   C     0.82181   0.20715   0.95251   0.00000  Uiso   1.00
C786   C     0.82022   0.12696   0.54768   0.00000  Uiso   1.00
C787   C     0.84670   0.20644   0.59355   0.00000  Uiso   1.00
C788   C     0.84478   0.12610   0.90647   0.00000  Uiso   1.00
C789   C     0.82197   0.20724   0.90659   0.00000  Uiso   1.00
C790   C     0.82046   0.12685   0.59359   0.00000  Uiso   1.00
C791   C     0.83353   0.16665   0.61675   0.00000  Uiso   1.00
C792   C     0.83334   0.16667   0.88332   0.00000  Uiso   1.00
C793   C     0.83359   0.16666   0.52433   0.00000  Uiso   1.00
C794   C     0.83353   0.16668   0.97577   0.00000  Uiso   1.00
C795   C     0.95727   0.16612   0.74684   0.00000  Uiso   1.00
C796   C     0.70935   0.16622   0.74464   0.00000  Uiso   1.00
Cu797  Cu    0.83333   0.21355   0.75000   0.00000  Uiso   1.00
Cu798  Cu    0.83333   0.11978   0.75000   0.00000  Uiso   1.00
H799   H     0.86721   0.04334   0.69036   0.00000  Uiso   1.00
H800   H     0.79856   0.28996   0.80904   0.00000  Uiso   1.00
H801   H     0.79844   0.04364   0.80896   0.00000  Uiso   1.00
H802   H     0.86728   0.28969   0.69046   0.00000  Uiso   1.00
H803   H     0.85813   0.23706   0.53039   0.00000  Uiso   1.00
H804   H     0.85498   0.09481   0.96955   0.00000  Uiso   1.00
H805   H     0.81205   0.23855   0.96979   0.00000  Uiso   1.00
H806   H     0.80909   0.09624   0.53048   0.00000  Uiso   1.00
H807   H     0.85731   0.23735   0.61089   0.00000  Uiso   1.00
H808   H     0.85398   0.09451   0.88911   0.00000  Uiso   1.00
H809   H     0.81269   0.23882   0.88933   0.00000  Uiso   1.00
H810   H     0.80986   0.09591   0.61096   0.00000  Uiso   1.00
N811   N     0.83333   0.28402   0.75000   0.00000  Uiso   1.00
N812   N     0.83333   0.04931   0.75000   0.00000  Uiso   1.00
O813   O     0.77321   0.20625   0.74999   0.00000  Uiso   1.00
O814   O     0.89345   0.12709   0.75000   0.00000  Uiso   1.00
O815   O     0.89345   0.20625   0.75000   0.00000  Uiso   1.00
O816   O     0.77321   0.12709   0.74999   0.00000  Uiso   1.00
O817   O     0.83333   0.20626   0.68573   0.00000  Uiso   1.00
O818   O     0.83334   0.12707   0.81427   0.00000  Uiso   1.00
O819   O     0.83334   0.20626   0.81427   0.00000  Uiso   1.00
O820   O     0.83333   0.12707   0.68573   0.00000  Uiso   1.00
O821   O     0.70819   0.08042   0.74806   0.00000  Uiso   1.00
C822   C     0.71620   0.06639   0.70397   0.00000  Uiso   1.00
H823   H     0.73167   0.03169   0.70452   0.00000  Uiso   1.00
H824   H     0.73677   0.09131   0.68655   0.00000  Uiso   1.00
H825   H     0.68766   0.06267   0.68449   0.00000  Uiso   1.00
O826   O     0.95787   0.24907   0.72703   0.00000  Uiso   1.00
C827   C     0.95588   0.25395   0.68073   0.00000  Uiso   1.00
H828   H     0.94110   0.28804   0.67297   0.00000  Uiso   1.00
H829   H     0.93701   0.22563   0.66584   0.00000  Uiso   1.00
H830   H     0.98683   0.25444   0.66539   0.00000  Uiso   1.00
O831   O     0.95972   0.08516   0.77194   0.00000  Uiso   1.00
C832   C     0.95423   0.04908   0.74059   0.00000  Uiso   1.00
H833   H     0.94662   0.06250   0.70700   0.00000  Uiso   1.00
H834   H     0.92849   0.02691   0.75180   0.00000  Uiso   1.00
H835   H     0.98126   0.02562   0.73959   0.00000  Uiso   1.00
O836   O     0.70770   0.25109   0.73449   0.00000  Uiso   1.00
C837   C     0.70571   0.27623   0.77466   0.00000  Uiso   1.00
H838   H     0.72320   0.30926   0.77084   0.00000  Uiso   1.00
H839   H     0.71977   0.25601   0.80221   0.00000  Uiso   1.00
H840   H     0.67378   0.28607   0.78331   0.00000  Uiso   1.00
C841   C     0.08734   0.49998   0.74815   0.00000  Uiso   1.00
C842   C     0.24601   0.49989   0.74953   0.00000  Uiso   1.00
C843   C     0.16675   0.50000   0.66495   0.00000  Uiso   1.00
C844   C     0.16664   0.50000   0.83508   0.00000  Uiso   1.00
C845   C     0.18531   0.35807   0.71679   0.00000  Uiso   1.00
C846   C     0.14743   0.64192   0.78282   0.00000  Uiso   1.00
C847   C     0.14738   0.35823   0.78279   0.00000  Uiso   1.00
C848   C     0.18547   0.64177   0.71690   0.00000  Uiso   1.00
C849   C     0.02126   0.45646   0.74714   0.00000  Uiso   1.00
C850   C     0.31179   0.54113   0.73659   0.00000  Uiso   1.00
C851   C     0.31224   0.45699   0.75296   0.00000  Uiso   1.00
C852   C     0.02092   0.54207   0.73985   0.00000  Uiso   1.00
C853   C     0.18032   0.53966   0.54763   0.00000  Uiso   1.00
C854   C     0.17848   0.45954   0.95238   0.00000  Uiso   1.00
C855   C     0.15515   0.54048   0.95251   0.00000  Uiso   1.00
C856   C     0.15355   0.46030   0.54768   0.00000  Uiso   1.00
C857   C     0.18003   0.53977   0.59355   0.00000  Uiso   1.00
C858   C     0.17811   0.45943   0.90647   0.00000  Uiso   1.00
C859   C     0.15530   0.54057   0.90659   0.00000  Uiso   1.00
C860   C     0.15379   0.46018   0.59359   0.00000  Uiso   1.00
C861   C     0.16686   0.49998   0.61675   0.00000  Uiso   1.00
C862   C     0.16667   0.50000   0.88332   0.00000  Uiso   1.00
C863   C     0.16692   0.49999   0.52433   0.00000  Uiso   1.00
C864   C     0.16687   0.50001   0.97577   0.00000  Uiso   1.00
C865   C     0.29061   0.49945   0.74684   0.00000  Uiso   1.00
C866   C     0.04269   0.49955   0.74464   0.00000  Uiso   1.00
Cu867  Cu    0.16667   0.54689   0.75000   0.00000  Uiso   1.00
Cu868  Cu    0.16667   0.45311   0.75000   0.00000  Uiso   1.00
H869   H     0.20054   0.37668   0.69036   0.00000  Uiso   1.00
H870   H     0.13190   0.62329   0.80904   0.00000  Uiso   1.00
H871   H     0.13177   0.37698   0.80896   0.00000  Uiso   1.00
H872   H     0.20061   0.62303   0.69046   0.00000  Uiso   1.00
H873   H     0.19146   0.57039   0.53039   0.00000  Uiso   1.00
H874   H     0.18831   0.42814   0.96955   0.00000  Uiso   1.00
H875   H     0.14538   0.57188   0.96979   0.00000  Uiso   1.00
H876   H     0.14242   0.42957   0.53048   0.00000  Uiso   1.00
H877   H     0.19064   0.57068   0.61089   0.00000  Uiso   1.00
H878   H     0.18731   0.42784   0.88911   0.00000  Uiso   1.00
H879   H     0.14602   0.57215   0.88933   0.00000  Uiso   1.00
H880   H     0.14319   0.42925   0.61096   0.00000  Uiso   1.00
N881   N     0.16667   0.61736   0.75000   0.00000  Uiso   1.00
N882   N     0.16667   0.38264   0.75000   0.00000  Uiso   1.00
O883   O     0.10655   0.53958   0.74999   0.00000  Uiso   1.00
O884   O     0.22679   0.46042   0.75000   0.00000  Uiso   1.00
O885   O     0.22679   0.53958   0.75000   0.00000  Uiso   1.00
O886   O     0.10655   0.46042   0.74999   0.00000  Uiso   1.00
O887   O     0.16666   0.53959   0.68573   0.00000  Uiso   1.00
O888   O     0.16667   0.46041   0.81427   0.00000  Uiso   1.00
O889   O     0.16667   0.53959   0.81427   0.00000  Uiso   1.00
O890   O     0.16666   0.46041   0.68573   0.00000  Uiso   1.00
O891   O     0.04152   0.41375   0.74806   0.00000  Uiso   1.00
C892   C     0.04954   0.39973   0.70397   0.00000  Uiso   1.00
H893   H     0.06500   0.36502   0.70452   0.00000  Uiso   1.00
H894   H     0.07011   0.42465   0.68655   0.00000  Uiso   1.00
H895   H     0.02099   0.39600   0.68449   0.00000  Uiso   1.00
O896   O     0.29121   0.58240   0.72703   0.00000  Uiso   1.00
C897   C     0.28921   0.58728   0.68073   0.00000  Uiso   1.00
H898   H     0.27444   0.62137   0.67297   0.00000  Uiso   1.00
H899   H     0.27034   0.55897   0.66584   0.00000  Uiso   1.00
H900   H     0.32017   0.58777   0.66539   0.00000  Uiso   1.00
O901   O     0.29305   0.41849   0.77194   0.00000  Uiso   1.00
C902   C     0.28757   0.38242   0.74059   0.00000  Uiso   1.00
H903   H     0.27995   0.39583   0.70700   0.00000  Uiso   1.00
H904   H     0.26182   0.36024   0.75180   0.00000  Uiso   1.00
H905   H     0.31460   0.35895   0.73959   0.00000  Uiso   1.00
O906   O     0.04103   0.58442   0.73449   0.00000  Uiso   1.00
C907   C     0.03904   0.60956   0.77466   0.00000  Uiso   1.00
H908   H     0.05653   0.64259   0.77084   0.00000  Uiso   1.00
H909   H     0.05311   0.58935   0.80221   0.00000  Uiso   1.00
H910   H     0.00712   0.61940   0.78331   0.00000  Uiso   1.00
C911   C     0.42067   0.49998   0.74815   0.00000  Uiso   1.00
C912   C     0.57934   0.49989   0.74953   0.00000  Uiso   1.00
C913   C     0.50008   0.50000   0.66495   0.00000  Uiso   1.00
C914   C     0.49997   0.50000   0.83508   0.00000  Uiso   1.00
C915   C     0.51865   0.35807   0.71679   0.00000  Uiso   1.00
C916   C     0.48076   0.64192   0.78282   0.00000  Uiso   1.00
C917   C     0.48071   0.35823   0.78279   0.00000  Uiso   1.00
C918   C     0.51881   0.64177   0.71690   0.00000  Uiso   1.00
C919   C     0.35459   0.45646   0.74714   0.00000  Uiso   1.00
C920   C     0.64512   0.54113   0.73659   0.00000  Uiso   1.00
C921   C     0.64557   0.45699   0.75296   0.00000  Uiso   1.00
C922   C     0.35425   0.54207   0.73985   0.00000  Uiso   1.00
C923   C     0.51365   0.53966   0.54763   0.00000  Uiso   1.00
C924   C     0.51181   0.45954   0.95238   0.00000  Uiso   1.00
C925   C     0.48848   0.54048   0.95251   0.00000  Uiso   1.00
C926   C     0.48689   0.46030   0.54768   0.00000  Uiso   1.00
C927   C     0.51337   0.53977   0.59355   0.00000  Uiso   1.00
C928   C     0.51145   0.45943   0.90647   0.00000  Uiso   1.00
C929   C     0.48864   0.54057   0.90659   0.00000  Uiso   1.00
C930   C     0.48713   0.46018   0.59359   0.00000  Uiso   1.00
C931   C     0.50020   0.49998   0.61675   0.00000  Uiso   1.00
C932   C     0.50001   0.50000   0.88332   0.00000  Uiso   1.00
C933   C     0.50026   0.49999   0.52433   0.00000  Uiso   1.00
C934   C     0.50020   0.50001   0.97577   0.00000  Uiso   1.00
C935   C     0.62394   0.49945   0.74684   0.00000  Uiso   1.00
C936   C     0.37602   0.49955   0.74464   0.00000  Uiso   1.00
Cu937  Cu    0.50000   0.54689   0.75000   0.00000  Uiso   1.00
Cu938  Cu    0.50000   0.45311   0.75000   0.00000  Uiso   1.00
H939   H     0.53388   0.37668   0.69036   0.00000  Uiso   1.00
H940   H     0.46523   0.62329   0.80904   0.00000  Uiso   1.00
H941   H     0.46511   0.37698   0.80896   0.00000  Uiso   1.00
H942   H     0.53394   0.62303   0.69046   0.00000  Uiso   1.00
H943   H     0.52479   0.57039   0.53039   0.00000  Uiso   1.00
H944   H     0.52164   0.42814   0.96955   0.00000  Uiso   1.00
H945   H     0.47871   0.57188   0.96979   0.00000  Uiso   1.00
H946   H     0.47575   0.42957   0.53048   0.00000  Uiso   1.00
H947   H     0.52397   0.57068   0.61089   0.00000  Uiso   1.00
H948   H     0.52065   0.42784   0.88911   0.00000  Uiso   1.00
H949   H     0.47936   0.57215   0.88933   0.00000  Uiso   1.00
H950   H     0.47652   0.42925   0.61096   0.00000  Uiso   1.00
N951   N     0.50000   0.61736   0.75000   0.00000  Uiso   1.00
N952   N     0.50000   0.38264   0.75000   0.00000  Uiso   1.00
O953   O     0.43988   0.53958   0.74999   0.00000  Uiso   1.00
O954   O     0.56012   0.46042   0.75000   0.00000  Uiso   1.00
O955   O     0.56012   0.53958   0.75000   0.00000  Uiso   1.00
O956   O     0.43988   0.46042   0.74999   0.00000  Uiso   1.00
O957   O     0.50000   0.53959   0.68573   0.00000  Uiso   1.00
O958   O     0.50000   0.46041   0.81427   0.00000  Uiso   1.00
O959   O     0.50000   0.53959   0.81427   0.00000  Uiso   1.00
O960   O     0.50000   0.46041   0.68573   0.00000  Uiso   1.00
O961   O     0.37486   0.41375   0.74806   0.00000  Uiso   1.00
C962   C     0.38287   0.39973   0.70397   0.00000  Uiso   1.00
H963   H     0.39834   0.36502   0.70452   0.00000  Uiso   1.00
H964   H     0.40344   0.42465   0.68655   0.00000  Uiso   1.00
H965   H     0.35432   0.39600   0.68449   0.00000  Uiso   1.00
O966   O     0.62454   0.58240   0.72703   0.00000  Uiso   1.00
C967   C     0.62255   0.58728   0.68073   0.00000  Uiso   1.00
H968   H     0.60777   0.62137   0.67297   0.00000  Uiso   1.00
H969   H     0.60368   0.55897   0.66584   0.00000  Uiso   1.00
H970   H     0.65350   0.58777   0.66539   0.00000  Uiso   1.00
O971   O     0.62639   0.41849   0.77194   0.00000  Uiso   1.00
C972   C     0.62090   0.38242   0.74059   0.00000  Uiso   1.00
H973   H     0.61328   0.39583   0.70700   0.00000  Uiso   1.00
H974   H     0.59516   0.36024   0.75180   0.00000  Uiso   1.00
H975   H     0.64793   0.35895   0.73959   0.00000  Uiso   1.00
O976   O     0.37436   0.58442   0.73449   0.00000  Uiso   1.00
C977   C     0.37237   0.60956   0.77466   0.00000  Uiso   1.00
H978   H     0.38986   0.64259   0.77084   0.00000  Uiso   1.00
H979   H     0.38644   0.58935   0.80221   0.00000  Uiso   1.00
H980   H     0.34045   0.61940   0.78331   0.00000  Uiso   1.00
C981   C     0.75401   0.49998   0.74815   0.00000  Uiso   1.00
C982   C     0.91267   0.49989   0.74953   0.00000  Uiso   1.00
C983   C     0.83341   0.50000   0.66495   0.00000  Uiso   1.00
C984   C     0.83331   0.50000   0.83508   0.00000  Uiso   1.00
C985   C     0.85198   0.35807   0.71679   0.00000  Uiso   1.00
C986   C     0.81409   0.64192   0.78282   0.00000  Uiso   1.00
C987   C     0.81404   0.35823   0.78279   0.00000  Uiso   1.00
C988   C     0.85214   0.64177   0.71690   0.00000  Uiso   1.00
C989   C     0.68792   0.45646   0.74714   0.00000  Uiso   1.00
C990   C     0.97845   0.54113   0.73659   0.00000  Uiso   1.00
C991   C     0.97891   0.45699   0.75296   0.00000  Uiso   1.00
C992   C     0.68758   0.54207   0.73985   0.00000  Uiso   1.00
C993   C     0.84698   0.53966   0.54763   0.00000  Uiso   1.00
C994   C     0.84514   0.45954   0.95238   0.00000  Uiso   1.00
C995   C     0.82181   0.54048   0.95251   0.00000  Uiso   1.00
C996   C     0.82022   0.46030   0.54768   0.00000  Uiso   1.00
C997   C     0.84670   0.53977   0.59355   0.00000  Uiso   1.00
C998   C     0.84478   0.45943   0.90647   0.00000  Uiso   1.00
C999   C     0.82197   0.54057   0.90659   0.00000  Uiso   1.00
C1000  C     0.82046   0.46018   0.59359   0.00000  Uiso   1.00
C1001  C     0.83353   0.49998   0.61675   0.00000  Uiso   1.00
C1002  C     0.83334   0.50000   0.88332   0.00000  Uiso   1.00
C1003  C     0.83359   0.49999   0.52433   0.00000  Uiso   1.00
C1004  C     0.83353   0.50001   0.97577   0.00000  Uiso   1.00
C1005  C     0.95727   0.49945   0.74684   0.00000  Uiso   1.00
C1006  C     0.70935   0.49955   0.74464   0.00000  Uiso   1.00
Cu1007 Cu    0.83333   0.54689   0.75000   0.00000  Uiso   1.00
Cu1008 Cu    0.83333   0.45311   0.75000   0.00000  Uiso   1.00
H1009  H     0.86721   0.37668   0.69036   0.00000  Uiso   1.00
H1010  H     0.79856   0.62329   0.80904   0.00000  Uiso   1.00
H1011  H     0.79844   0.37698   0.80896   0.00000  Uiso   1.00
H1012  H     0.86728   0.62303   0.69046   0.00000  Uiso   1.00
H1013  H     0.85813   0.57039   0.53039   0.00000  Uiso   1.00
H1014  H     0.85498   0.42814   0.96955   0.00000  Uiso   1.00
H1015  H     0.81205   0.57188   0.96979   0.00000  Uiso   1.00
H1016  H     0.80909   0.42957   0.53048   0.00000  Uiso   1.00
H1017  H     0.85731   0.57068   0.61089   0.00000  Uiso   1.00
H1018  H     0.85398   0.42784   0.88911   0.00000  Uiso   1.00
H1019  H     0.81269   0.57215   0.88933   0.00000  Uiso   1.00
H1020  H     0.80986   0.42925   0.61096   0.00000  Uiso   1.00
N1021  N     0.83333   0.61736   0.75000   0.00000  Uiso   1.00
N1022  N     0.83333   0.38264   0.75000   0.00000  Uiso   1.00
O1023  O     0.77321   0.53958   0.74999   0.00000  Uiso   1.00
O1024  O     0.89345   0.46042   0.75000   0.00000  Uiso   1.00
O1025  O     0.89345   0.53958   0.75000   0.00000  Uiso   1.00
O1026  O     0.77321   0.46042   0.74999   0.00000  Uiso   1.00
O1027  O     0.83333   0.53959   0.68573   0.00000  Uiso   1.00
O1028  O     0.83334   0.46041   0.81427   0.00000  Uiso   1.00
O1029  O     0.83334   0.53959   0.81427   0.00000  Uiso   1.00
O1030  O     0.83333   0.46041   0.68573   0.00000  Uiso   1.00
O1031  O     0.70819   0.41375   0.74806   0.00000  Uiso   1.00
C1032  C     0.71620   0.39973   0.70397   0.00000  Uiso   1.00
H1033  H     0.73167   0.36502   0.70452   0.00000  Uiso   1.00
H1034  H     0.73677   0.42465   0.68655   0.00000  Uiso   1.00
H1035  H     0.68766   0.39600   0.68449   0.00000  Uiso   1.00
O1036  O     0.95787   0.58240   0.72703   0.00000  Uiso   1.00
C1037  C     0.95588   0.58728   0.68073   0.00000  Uiso   1.00
H1038  H     0.94110   0.62137   0.67297   0.00000  Uiso   1.00
H1039  H     0.93701   0.55897   0.66584   0.00000  Uiso   1.00
H1040  H     0.98683   0.58777   0.66539   0.00000  Uiso   1.00
O1041  O     0.95972   0.41849   0.77194   0.00000  Uiso   1.00
C1042  C     0.95423   0.38242   0.74059   0.00000  Uiso   1.00
H1043  H     0.94662   0.39583   0.70700   0.00000  Uiso   1.00
H1044  H     0.92849   0.36024   0.75180   0.00000  Uiso   1.00
H1045  H     0.98126   0.35895   0.73959   0.00000  Uiso   1.00
O1046  O     0.70770   0.58442   0.73449   0.00000  Uiso   1.00
C1047  C     0.70571   0.60956   0.77466   0.00000  Uiso   1.00
H1048  H     0.72320   0.64259   0.77084   0.00000  Uiso   1.00
H1049  H     0.71977   0.58935   0.80221   0.00000  Uiso   1.00
H1050  H     0.67378   0.61940   0.78331   0.00000  Uiso   1.00
C1051  C     0.08734   0.83331   0.74815   0.00000  Uiso   1.00
C1052  C     0.24601   0.83322   0.74953   0.00000  Uiso   1.00
C1053  C     0.16675   0.83333   0.66495   0.00000  Uiso   1.00
C1054  C     0.16664   0.83334   0.83508   0.00000  Uiso   1.00
C1055  C     0.18531   0.69140   0.71679   0.00000  Uiso   1.00
C1056  C     0.14743   0.97525   0.78282   0.00000  Uiso   1.00
C1057  C     0.14738   0.69156   0.78279   0.00000  Uiso   1.00
C1058  C     0.18547   0.97511   0.71690   0.00000  Uiso   1.00
C1059  C     0.02126   0.78979   0.74714   0.00000  Uiso   1.00
C1060  C     0.31179   0.87446   0.73659   0.00000  Uiso   1.00
C1061  C     0.31224   0.79032   0.75296   0.00000  Uiso   1.00
C1062  C     0.02092   0.87541   0.73985   0.00000  Uiso   1.00
C1063  C     0.18032   0.87300   0.54763   0.00000  Uiso   1.00
C1064  C     0.17848   0.79287   0.95238   0.00000  Uiso   1.00
C1065  C     0.15515   0.87382   0.95251   0.00000  Uiso   1.00
C1066  C     0.15355   0.79363   0.54768   0.00000  Uiso   1.00
C1067  C     0.18003   0.87310   0.59355   0.00000  Uiso   1.00
C1068  C     0.17811   0.79277   0.90647   0.00000  Uiso   1.00
C1069  C     0.15530   0.87390   0.90659   0.00000  Uiso   1.00
C1070  C     0.15379   0.79351   0.59359   0.00000  Uiso   1.00
C1071  C     0.16686   0.83332   0.61675   0.00000  Uiso   1.00
C1072  C     0.16667   0.83334   0.88332   0.00000  Uiso   1.00
C1073  C     0.16692   0.83333   0.52433   0.00000  Uiso   1.00
C1074  C     0.16687   0.83335   0.97577   0.00000  Uiso   1.00
C1075  C     0.29061   0.83279   0.74684   0.00000  Uiso   1.00
C1076  C     0.04269   0.83288   0.74464   0.00000  Uiso   1.00
Cu1077 Cu    0.16667   0.88022   0.75000   0.00000  Uiso   1.00
Cu1078 Cu    0.16667   0.78645   0.75000   0.00000  Uiso   1.00
H1079  H     0.20054   0.71001   0.69036   0.00000  Uiso   1.00
H1080  H     0.13190   0.95662   0.80904   0.00000  Uiso   1.00
H1081  H     0.13177   0.71031   0.80896   0.00000  Uiso   1.00
H1082  H     0.20061   0.95636   0.69046   0.00000  Uiso   1.00
H1083  H     0.19146   0.90372   0.53039   0.00000  Uiso   1.00
H1084  H     0.18831   0.76147   0.96955   0.00000  Uiso   1.00
H1085  H     0.14538   0.90521   0.96979   0.00000  Uiso   1.00
H1086  H     0.14242   0.76291   0.53048   0.00000  Uiso   1.00
H1087  H     0.19064   0.90402   0.61089   0.00000  Uiso   1.00
H1088  H     0.18731   0.76118   0.88911   0.00000  Uiso   1.00
H1089  H     0.14602   0.90548   0.88933   0.00000  Uiso   1.00
H1090  H     0.14319   0.76258   0.61096   0.00000  Uiso   1.00
N1091  N     0.16667   0.95069   0.75000   0.00000  Uiso   1.00
N1092  N     0.16667   0.71598   0.75000   0.00000  Uiso   1.00
O1093  O     0.10655   0.87291   0.74999   0.00000  Uiso   1.00
O1094  O     0.22679   0.79375   0.75000   0.00000  Uiso   1.00
O1095  O     0.22679   0.87291   0.75000   0.00000  Uiso   1.00
O1096  O     0.10655   0.79375   0.74999   0.00000  Uiso   1.00
O1097  O     0.16666   0.87293   0.68573   0.00000  Uiso   1.00
O1098  O     0.16667   0.79374   0.81427   0.00000  Uiso   1.00
O1099  O     0.16667   0.87293   0.81427   0.00000  Uiso   1.00
O1100  O     0.16666   0.79374   0.68573   0.00000  Uiso   1.00
O1101  O     0.04152   0.74708   0.74806   0.00000  Uiso   1.00
C1102  C     0.04954   0.73306   0.70397   0.00000  Uiso   1.00
H1103  H     0.06500   0.69836   0.70452   0.00000  Uiso   1.00
H1104  H     0.07011   0.75798   0.68655   0.00000  Uiso   1.00
H1105  H     0.02099   0.72933   0.68449   0.00000  Uiso   1.00
O1106  O     0.29121   0.91573   0.72703   0.00000  Uiso   1.00
C1107  C     0.28921   0.92062   0.68073   0.00000  Uiso   1.00
H1108  H     0.27444   0.95471   0.67297   0.00000  Uiso   1.00
H1109  H     0.27034   0.89230   0.66584   0.00000  Uiso   1.00
H1110  H     0.32017   0.92110   0.66539   0.00000  Uiso   1.00
O1111  O     0.29305   0.75182   0.77194   0.00000  Uiso   1.00
C1112  C     0.28757   0.71575   0.74059   0.00000  Uiso   1.00
H1113  H     0.27995   0.72917   0.70700   0.00000  Uiso   1.00
H1114  H     0.26182   0.69357   0.75180   0.00000  Uiso   1.00
H1115  H     0.31460   0.69229   0.73959   0.00000  Uiso   1.00
O1116  O     0.04103   0.91775   0.73449   0.00000  Uiso   1.00
C1117  C     0.03904   0.94289   0.77466   0.00000  Uiso   1.00
H1118  H     0.05653   0.97592   0.77084   0.00000  Uiso   1.00
H1119  H     0.05311   0.92268   0.80221   0.00000  Uiso   1.00
H1120  H     0.00712   0.95274   0.78331   0.00000  Uiso   1.00
C1121  C     0.42067   0.83331   0.74815   0.00000  Uiso   1.00
C1122  C     0.57934   0.83322   0.74953   0.00000  Uiso   1.00
C1123  C     0.50008   0.83333   0.66495   0.00000  Uiso   1.00
C1124  C     0.49997   0.83334   0.83508   0.00000  Uiso   1.00
C1125  C     0.51865   0.69140   0.71679   0.00000  Uiso   1.00
C1126  C     0.48076   0.97525   0.78282   0.00000  Uiso   1.00
C1127  C     0.48071   0.69156   0.78279   0.00000  Uiso   1.00
C1128  C     0.51881   0.97511   0.71690   0.00000  Uiso   1.00
C1129  C     0.35459   0.78979   0.74714   0.00000  Uiso   1.00
C1130  C     0.64512   0.87446   0.73659   0.00000  Uiso   1.00
C1131  C     0.64557   0.79032   0.75296   0.00000  Uiso   1.00
C1132  C     0.35425   0.87541   0.73985   0.00000  Uiso   1.00
C1133  C     0.51365   0.87300   0.54763   0.00000  Uiso   1.00
C1134  C     0.51181   0.79287   0.95238   0.00000  Uiso   1.00
C1135  C     0.48848   0.87382   0.95251   0.00000  Uiso   1.00
C1136  C     0.48689   0.79363   0.54768   0.00000  Uiso   1.00
C1137  C     0.51337   0.87310   0.59355   0.00000  Uiso   1.00
C1138  C     0.51145   0.79277   0.90647   0.00000  Uiso   1.00
C1139  C     0.48864   0.87390   0.90659   0.00000  Uiso   1.00
C1140  C     0.48713   0.79351   0.59359   0.00000  Uiso   1.00
C1141  C     0.50020   0.83332   0.61675   0.00000  Uiso   1.00
C1142  C     0.50001   0.83334   0.88332   0.00000  Uiso   1.00
C1143  C     0.50026   0.83333   0.52433   0.00000  Uiso   1.00
C1144  C     0.50020   0.83335   0.97577   0.00000  Uiso   1.00
C1145  C     0.62394   0.83279   0.74684   0.00000  Uiso   1.00
C1146  C     0.37602   0.83288   0.74464   0.00000  Uiso   1.00
Cu1147 Cu    0.50000   0.88022   0.75000   0.00000  Uiso   1.00
Cu1148 Cu    0.50000   0.78645   0.75000   0.00000  Uiso   1.00
H1149  H     0.53388   0.71001   0.69036   0.00000  Uiso   1.00
H1150  H     0.46523   0.95662   0.80904   0.00000  Uiso   1.00
H1151  H     0.46511   0.71031   0.80896   0.00000  Uiso   1.00
H1152  H     0.53394   0.95636   0.69046   0.00000  Uiso   1.00
H1153  H     0.52479   0.90372   0.53039   0.00000  Uiso   1.00
H1154  H     0.52164   0.76147   0.96955   0.00000  Uiso   1.00
H1155  H     0.47871   0.90521   0.96979   0.00000  Uiso   1.00
H1156  H     0.47575   0.76291   0.53048   0.00000  Uiso   1.00
H1157  H     0.52397   0.90402   0.61089   0.00000  Uiso   1.00
H1158  H     0.52065   0.76118   0.88911   0.00000  Uiso   1.00
H1159  H     0.47936   0.90548   0.88933   0.00000  Uiso   1.00
H1160  H     0.47652   0.76258   0.61096   0.00000  Uiso   1.00
N1161  N     0.50000   0.95069   0.75000   0.00000  Uiso   1.00
N1162  N     0.50000   0.71598   0.75000   0.00000  Uiso   1.00
O1163  O     0.43988   0.87291   0.74999   0.00000  Uiso   1.00
O1164  O     0.56012   0.79375   0.75000   0.00000  Uiso   1.00
O1165  O     0.56012   0.87291   0.75000   0.00000  Uiso   1.00
O1166  O     0.43988   0.79375   0.74999   0.00000  Uiso   1.00
O1167  O     0.50000   0.87293   0.68573   0.00000  Uiso   1.00
O1168  O     0.50000   0.79374   0.81427   0.00000  Uiso   1.00
O1169  O     0.50000   0.87293   0.81427   0.00000  Uiso   1.00
O1170  O     0.50000   0.79374   0.68573   0.00000  Uiso   1.00
O1171  O     0.37486   0.74708   0.74806   0.00000  Uiso   1.00
C1172  C     0.38287   0.73306   0.70397   0.00000  Uiso   1.00
H1173  H     0.39834   0.69836   0.70452   0.00000  Uiso   1.00
H1174  H     0.40344   0.75798   0.68655   0.00000  Uiso   1.00
H1175  H     0.35432   0.72933   0.68449   0.00000  Uiso   1.00
O1176  O     0.62454   0.91573   0.72703   0.00000  Uiso   1.00
C1177  C     0.62255   0.92062   0.68073   0.00000  Uiso   1.00
H1178  H     0.60777   0.95471   0.67297   0.00000  Uiso   1.00
H1179  H     0.60368   0.89230   0.66584   0.00000  Uiso   1.00
H1180  H     0.65350   0.92110   0.66539   0.00000  Uiso   1.00
O1181  O     0.62639   0.75182   0.77194   0.00000  Uiso   1.00
C1182  C     0.62090   0.71575   0.74059   0.00000  Uiso   1.00
H1183  H     0.61328   0.72917   0.70700   0.00000  Uiso   1.00
H1184  H     0.59516   0.69357   0.75180   0.00000  Uiso   1.00
H1185  H     0.64793   0.69229   0.73959   0.00000  Uiso   1.00
O1186  O     0.37436   0.91775   0.73449   0.00000  Uiso   1.00
C1187  C     0.37237   0.94289   0.77466   0.00000  Uiso   1.00
H1188  H     0.38986   0.97592   0.77084   0.00000  Uiso   1.00
H1189  H     0.38644   0.92268   0.80221   0.00000  Uiso   1.00
H1190  H     0.34045   0.95274   0.78331   0.00000  Uiso   1.00
C1191  C     0.75401   0.83331   0.74815   0.00000  Uiso   1.00
C1192  C     0.91267   0.83322   0.74953   0.00000  Uiso   1.00
C1193  C     0.83341   0.83333   0.66495   0.00000  Uiso   1.00
C1194  C     0.83331   0.83334   0.83508   0.00000  Uiso   1.00
C1195  C     0.85198   0.69140   0.71679   0.00000  Uiso   1.00
C1196  C     0.81409   0.97525   0.78282   0.00000  Uiso   1.00
C1197  C     0.81404   0.69156   0.78279   0.00000  Uiso   1.00
C1198  C     0.85214   0.97511   0.71690   0.00000  Uiso   1.00
C1199  C     0.68792   0.78979   0.74714   0.00000  Uiso   1.00
C1200  C     0.97845   0.87446   0.73659   0.00000  Uiso   1.00
C1201  C     0.97891   0.79032   0.75296   0.00000  Uiso   1.00
C1202  C     0.68758   0.87541   0.73985   0.00000  Uiso   1.00
C1203  C     0.84698   0.87300   0.54763   0.00000  Uiso   1.00
C1204  C     0.84514   0.79287   0.95238   0.00000  Uiso   1.00
C1205  C     0.82181   0.87382   0.95251   0.00000  Uiso   1.00
C1206  C     0.82022   0.79363   0.54768   0.00000  Uiso   1.00
C1207  C     0.84670   0.87310   0.59355   0.00000  Uiso   1.00
C1208  C     0.84478   0.79277   0.90647   0.00000  Uiso   1.00
C1209  C     0.82197   0.87390   0.90659   0.00000  Uiso   1.00
C1210  C     0.82046   0.79351   0.59359   0.00000  Uiso   1.00
C1211  C     0.83353   0.83332   0.61675   0.00000  Uiso   1.00
C1212  C     0.83334   0.83334   0.88332   0.00000  Uiso   1.00
C1213  C     0.83359   0.83333   0.52433   0.00000  Uiso   1.00
C1214  C     0.83353   0.83335   0.97577   0.00000  Uiso   1.00
C1215  C     0.95727   0.83279   0.74684   0.00000  Uiso   1.00
C1216  C     0.70935   0.83288   0.74464   0.00000  Uiso   1.00
Cu1217 Cu    0.83333   0.88022   0.75000   0.00000  Uiso   1.00
Cu1218 Cu    0.83333   0.78645   0.75000   0.00000  Uiso   1.00
H1219  H     0.86721   0.71001   0.69036   0.00000  Uiso   1.00
H1220  H     0.79856   0.95662   0.80904   0.00000  Uiso   1.00
H1221  H     0.79844   0.71031   0.80896   0.00000  Uiso   1.00
H1222  H     0.86728   0.95636   0.69046   0.00000  Uiso   1.00
H1223  H     0.85813   0.90372   0.53039   0.00000  Uiso   1.00
H1224  H     0.85498   0.76147   0.96955   0.00000  Uiso   1.00
H1225  H     0.81205   0.90521   0.96979   0.00000  Uiso   1.00
H1226  H     0.80909   0.76291   0.53048   0.00000  Uiso   1.00
H1227  H     0.85731   0.90402   0.61089   0.00000  Uiso   1.00
H1228  H     0.85398   0.76118   0.88911   0.00000  Uiso   1.00
H1229  H     0.81269   0.90548   0.88933   0.00000  Uiso   1.00
H1230  H     0.80986   0.76258   0.61096   0.00000  Uiso   1.00
N1231  N     0.83333   0.95069   0.75000   0.00000  Uiso   1.00
N1232  N     0.83333   0.71598   0.75000   0.00000  Uiso   1.00
O1233  O     0.77321   0.87291   0.74999   0.00000  Uiso   1.00
O1234  O     0.89345   0.79375   0.75000   0.00000  Uiso   1.00
O1235  O     0.89345   0.87291   0.75000   0.00000  Uiso   1.00
O1236  O     0.77321   0.79375   0.74999   0.00000  Uiso   1.00
O1237  O     0.83333   0.87293   0.68573   0.00000  Uiso   1.00
O1238  O     0.83334   0.79374   0.81427   0.00000  Uiso   1.00
O1239  O     0.83334   0.87293   0.81427   0.00000  Uiso   1.00
O1240  O     0.83333   0.79374   0.68573   0.00000  Uiso   1.00
O1241  O     0.70819   0.74708   0.74806   0.00000  Uiso   1.00
C1242  C     0.71620   0.73306   0.70397   0.00000  Uiso   1.00
H1243  H     0.73167   0.69836   0.70452   0.00000  Uiso   1.00
H1244  H     0.73677   0.75798   0.68655   0.00000  Uiso   1.00
H1245  H     0.68766   0.72933   0.68449   0.00000  Uiso   1.00
O1246  O     0.95787   0.91573   0.72703   0.00000  Uiso   1.00
C1247  C     0.95588   0.92062   0.68073   0.00000  Uiso   1.00
H1248  H     0.94110   0.95471   0.67297   0.00000  Uiso   1.00
H1249  H     0.93701   0.89230   0.66584   0.00000  Uiso   1.00
H1250  H     0.98683   0.92110   0.66539   0.00000  Uiso   1.00
O1251  O     0.95972   0.75182   0.77194   0.00000  Uiso   1.00
C1252  C     0.95423   0.71575   0.74059   0.00000  Uiso   1.00
H1253  H     0.94662   0.72917   0.70700   0.00000  Uiso   1.00
H1254  H     0.92849   0.69357   0.75180   0.00000  Uiso   1.00
H1255  H     0.98126   0.69229   0.73959   0.00000  Uiso   1.00
O1256  O     0.70770   0.91775   0.73449   0.00000  Uiso   1.00
C1257  C     0.70571   0.94289   0.77466   0.00000  Uiso   1.00
H1258  H     0.72320   0.97592   0.77084   0.00000  Uiso   1.00
H1259  H     0.71977   0.92268   0.80221   0.00000  Uiso   1.00
H1260  H     0.67378   0.95274   0.78331   0.00000  Uiso   1.00
loop_
_geom_bond_atom_site_label_1
_geom_bond_atom_site_label_2
_geom_bond_distance
_geom_bond_site_symmetry_2
_ccdc_geom_bond_type
C1     O43     1.294   .     A
C1     C26     1.466   .     S
C1     O46     1.290   .     A
C2     O44     1.290   .     A
C2     C25     1.462   .     S
C2     O45     1.292   .     A
C3     O47     1.291   .     A
C3     O50     1.291   .     A
C3     C21     1.459   .     S
C4     O49     1.292   .     A
C4     O48     1.292   .     A
C4     C22     1.460   .     S
C5     H29     1.081   .     S
C5     N42     1.366   .     A
C5     C428    1.414   1_545 S
C6     H30     1.081   .     S
C6     N41     1.366   .     A
C6     C217    1.414   .     S
C7     H31     1.081   .     S
C7     N42     1.366   .     A
C7     C426    1.414   1_545 S
C8     N41     1.366   .     A
C8     H32     1.080   .     S
C8     C215    1.414   .     S
C9     O51     1.384   .     S
C9     C26     1.417   .     A
C9     C151    1.397   1_455 S
C10    O56     1.384   .     S
C10    C25     1.411   .     A
C10    C82     1.394   .     S
C11    C25     1.412   .     A
C11    O61     1.389   .     S
C11    C79     1.397   .     S
C12    O66     1.385   .     S
C12    C26     1.411   .     A
C12    C150    1.394   1_455 S
C13    H33     1.083   .     S
C13    C17     1.390   .     A
C13    C23     1.404   .     A
C14    H34     1.083   .     S
C14    C18     1.390   .     A
C14    C24     1.404   .     A
C15    C19     1.390   .     A
C15    C24     1.404   .     A
C15    H35     1.083   .     S
C16    C23     1.404   .     A
C16    C20     1.390   .     A
C16    H36     1.083   .     S
C17    H37     1.083   .     S
C17    C21     1.402   .     A
C18    H38     1.083   .     S
C18    C22     1.402   .     A
C19    H39     1.083   .     S
C19    C22     1.402   .     A
C20    H40     1.083   .     S
C20    C21     1.401   .     A
C23    C654    1.470   1_554 S
C24    C653    1.470   .     S
Cu27   O45     1.978   .     S
Cu27   O49     1.957   .     S
Cu27   O43     1.979   .     S
Cu27   O47     1.956   .     S
Cu27   Cu28    2.671   .     S
Cu27   N41     2.007   .     S
Cu28   O46     1.978   .     S
Cu28   O48     1.956   .     S
Cu28   N42     2.007   .     S
Cu28   O50     1.957   .     S
Cu28   O44     1.979   .     S
O51    C52     1.417   .     S
C52    H55     1.112   .     S
C52    H53     1.109   .     S
C52    H54     1.112   .     S
O56    C57     1.410   .     S
C57    H58     1.109   .     S
C57    H59     1.113   .     S
C57    H60     1.113   .     S
O61    C62     1.411   .     S
C62    H63     1.115   .     S
C62    H64     1.107   .     S
C62    H65     1.107   .     S
O66    C67     1.412   .     S
C67    H70     1.112   .     S
C67    H69     1.114   .     S
C67    H68     1.109   .     S
C71    O113    1.294   .     A
C71    C96     1.466   .     S
C71    O116    1.290   .     A
C72    O114    1.290   .     A
C72    C95     1.462   .     S
C72    O115    1.292   .     A
C73    O117    1.291   .     A
C73    O120    1.291   .     A
C73    C91     1.459   .     S
C74    O119    1.292   .     A
C74    O118    1.292   .     A
C74    C92     1.460   .     S
C75    H99     1.081   .     S
C75    N112    1.366   .     A
C75    C498    1.414   1_545 S
C76    H100    1.081   .     S
C76    N111    1.366   .     A
C76    C287    1.414   .     S
C77    H101    1.081   .     S
C77    N112    1.366   .     A
C77    C496    1.414   1_545 S
C78    N111    1.366   .     A
C78    H102    1.080   .     S
C78    C285    1.414   .     S
C79    O121    1.384   .     S
C79    C96     1.417   .     A
C80    O126    1.384   .     S
C80    C95     1.411   .     A
C80    C152    1.394   .     S
C81    C95     1.412   .     A
C81    O131    1.389   .     S
C81    C149    1.397   .     S
C82    O136    1.385   .     S
C82    C96     1.411   .     A
C83    H103    1.083   .     S
C83    C87     1.390   .     A
C83    C93     1.404   .     A
C84    H104    1.083   .     S
C84    C88     1.390   .     A
C84    C94     1.404   .     A
C85    C89     1.390   .     A
C85    C94     1.404   .     A
C85    H105    1.083   .     S
C86    C93     1.404   .     A
C86    C90     1.390   .     A
C86    H106    1.083   .     S
C87    H107    1.083   .     S
C87    C91     1.402   .     A
C88    H108    1.083   .     S
C88    C92     1.402   .     A
C89    H109    1.083   .     S
C89    C92     1.402   .     A
C90    H110    1.083   .     S
C90    C91     1.401   .     A
C93    C724    1.470   1_554 S
C94    C723    1.470   .     S
Cu97   O115    1.978   .     S
Cu97   O119    1.957   .     S
Cu97   O113    1.979   .     S
Cu97   O117    1.956   .     S
Cu97   Cu98    2.671   .     S
Cu97   N111    2.007   .     S
Cu98   O116    1.978   .     S
Cu98   O118    1.956   .     S
Cu98   N112    2.007   .     S
Cu98   O120    1.957   .     S
Cu98   O114    1.979   .     S
O121   C122    1.417   .     S
C122   H125    1.112   .     S
C122   H123    1.109   .     S
C122   H124    1.112   .     S
O126   C127    1.410   .     S
C127   H128    1.109   .     S
C127   H129    1.113   .     S
C127   H130    1.113   .     S
O131   C132    1.411   .     S
C132   H133    1.115   .     S
C132   H134    1.107   .     S
C132   H135    1.107   .     S
O136   C137    1.412   .     S
C137   H140    1.112   .     S
C137   H139    1.114   .     S
C137   H138    1.109   .     S
C141   O183    1.294   .     A
C141   C166    1.466   .     S
C141   O186    1.290   .     A
C142   O184    1.290   .     A
C142   C165    1.462   .     S
C142   O185    1.292   .     A
C143   O187    1.291   .     A
C143   O190    1.291   .     A
C143   C161    1.459   .     S
C144   O189    1.292   .     A
C144   O188    1.292   .     A
C144   C162    1.460   .     S
C145   H169    1.081   .     S
C145   N182    1.366   .     A
C145   C568    1.414   1_545 S
C146   H170    1.081   .     S
C146   N181    1.366   .     A
C146   C357    1.414   .     S
C147   H171    1.081   .     S
C147   N182    1.366   .     A
C147   C566    1.414   1_545 S
C148   N181    1.366   .     A
C148   H172    1.080   .     S
C148   C355    1.414   .     S
C149   O191    1.384   .     S
C149   C166    1.417   .     A
C150   O196    1.384   .     S
C150   C165    1.411   .     A
C150   C12     1.394   1_655 S
C151   C165    1.412   .     A
C151   O201    1.389   .     S
C151   C9      1.397   1_655 S
C152   O206    1.385   .     S
C152   C166    1.411   .     A
C153   H173    1.083   .     S
C153   C157    1.390   .     A
C153   C163    1.404   .     A
C154   H174    1.083   .     S
C154   C158    1.390   .     A
C154   C164    1.404   .     A
C155   C159    1.390   .     A
C155   C164    1.404   .     A
C155   H175    1.083   .     S
C156   C163    1.404   .     A
C156   C160    1.390   .     A
C156   H176    1.083   .     S
C157   H177    1.083   .     S
C157   C161    1.402   .     A
C158   H178    1.083   .     S
C158   C162    1.402   .     A
C159   H179    1.083   .     S
C159   C162    1.402   .     A
C160   H180    1.083   .     S
C160   C161    1.401   .     A
C163   C794    1.470   1_554 S
C164   C793    1.470   .     S
Cu167  O185    1.978   .     S
Cu167  O189    1.957   .     S
Cu167  O183    1.979   .     S
Cu167  O187    1.956   .     S
Cu167  Cu168   2.671   .     S
Cu167  N181    2.007   .     S
Cu168  O186    1.978   .     S
Cu168  O188    1.956   .     S
Cu168  N182    2.007   .     S
Cu168  O190    1.957   .     S
Cu168  O184    1.979   .     S
O191   C192    1.417   .     S
C192   H195    1.112   .     S
C192   H193    1.109   .     S
C192   H194    1.112   .     S
O196   C197    1.410   .     S
C197   H198    1.109   .     S
C197   H199    1.113   .     S
C197   H200    1.113   .     S
O201   C202    1.411   .     S
C202   H203    1.115   .     S
C202   H204    1.107   .     S
C202   H205    1.107   .     S
O206   C207    1.412   .     S
C207   H210    1.112   .     S
C207   H209    1.114   .     S
C207   H208    1.109   .     S
C211   O253    1.294   .     A
C211   C236    1.466   .     S
C211   O256    1.290   .     A
C212   O254    1.290   .     A
C212   C235    1.462   .     S
C212   O255    1.292   .     A
C213   O257    1.291   .     A
C213   O260    1.291   .     A
C213   C231    1.459   .     S
C214   O259    1.292   .     A
C214   O258    1.292   .     A
C214   C232    1.460   .     S
C215   H239    1.081   .     S
C215   N252    1.366   .     A
C216   H240    1.081   .     S
C216   N251    1.366   .     A
C216   C427    1.414   .     S
C217   H241    1.081   .     S
C217   N252    1.366   .     A
C218   N251    1.366   .     A
C218   H242    1.080   .     S
C218   C425    1.414   .     S
C219   O261    1.384   .     S
C219   C236    1.417   .     A
C219   C361    1.397   1_455 S
C220   O266    1.384   .     S
C220   C235    1.411   .     A
C220   C292    1.394   .     S
C221   C235    1.412   .     A
C221   O271    1.389   .     S
C221   C289    1.397   .     S
C222   O276    1.385   .     S
C222   C236    1.411   .     A
C222   C360    1.394   1_455 S
C223   H243    1.083   .     S
C223   C227    1.390   .     A
C223   C233    1.404   .     A
C224   H244    1.083   .     S
C224   C228    1.390   .     A
C224   C234    1.404   .     A
C225   C229    1.390   .     A
C225   C234    1.404   .     A
C225   H245    1.083   .     S
C226   C233    1.404   .     A
C226   C230    1.390   .     A
C226   H246    1.083   .     S
C227   H247    1.083   .     S
C227   C231    1.402   .     A
C228   H248    1.083   .     S
C228   C232    1.402   .     A
C229   H249    1.083   .     S
C229   C232    1.402   .     A
C230   H250    1.083   .     S
C230   C231    1.401   .     A
C233   C864    1.470   1_554 S
C234   C863    1.470   .     S
Cu237  O255    1.978   .     S
Cu237  O259    1.957   .     S
Cu237  O253    1.979   .     S
Cu237  O257    1.956   .     S
Cu237  Cu238   2.671   .     S
Cu237  N251    2.007   .     S
Cu238  O256    1.978   .     S
Cu238  O258    1.956   .     S
Cu238  N252    2.007   .     S
Cu238  O260    1.957   .     S
Cu238  O254    1.979   .     S
O261   C262    1.417   .     S
C262   H265    1.112   .     S
C262   H263    1.109   .     S
C262   H264    1.112   .     S
O266   C267    1.410   .     S
C267   H268    1.109   .     S
C267   H269    1.113   .     S
C267   H270    1.113   .     S
O271   C272    1.411   .     S
C272   H273    1.115   .     S
C272   H274    1.107   .     S
C272   H275    1.107   .     S
O276   C277    1.412   .     S
C277   H280    1.112   .     S
C277   H279    1.114   .     S
C277   H278    1.109   .     S
C281   O323    1.294   .     A
C281   C306    1.466   .     S
C281   O326    1.290   .     A
C282   O324    1.290   .     A
C282   C305    1.462   .     S
C282   O325    1.292   .     A
C283   O327    1.291   .     A
C283   O330    1.291   .     A
C283   C301    1.459   .     S
C284   O329    1.292   .     A
C284   O328    1.292   .     A
C284   C302    1.460   .     S
C285   H309    1.081   .     S
C285   N322    1.366   .     A
C286   H310    1.081   .     S
C286   N321    1.366   .     A
C286   C497    1.414   .     S
C287   H311    1.081   .     S
C287   N322    1.366   .     A
C288   N321    1.366   .     A
C288   H312    1.080   .     S
C288   C495    1.414   .     S
C289   O331    1.384   .     S
C289   C306    1.417   .     A
C290   O336    1.384   .     S
C290   C305    1.411   .     A
C290   C362    1.394   .     S
C291   C305    1.412   .     A
C291   O341    1.389   .     S
C291   C359    1.397   .     S
C292   O346    1.385   .     S
C292   C306    1.411   .     A
C293   H313    1.083   .     S
C293   C297    1.390   .     A
C293   C303    1.404   .     A
C294   H314    1.083   .     S
C294   C298    1.390   .     A
C294   C304    1.404   .     A
C295   C299    1.390   .     A
C295   C304    1.404   .     A
C295   H315    1.083   .     S
C296   C303    1.404   .     A
C296   C300    1.390   .     A
C296   H316    1.083   .     S
C297   H317    1.083   .     S
C297   C301    1.402   .     A
C298   H318    1.083   .     S
C298   C302    1.402   .     A
C299   H319    1.083   .     S
C299   C302    1.402   .     A
C300   H320    1.083   .     S
C300   C301    1.401   .     A
C303   C934    1.470   1_554 S
C304   C933    1.470   .     S
Cu307  O325    1.978   .     S
Cu307  O329    1.957   .     S
Cu307  O323    1.979   .     S
Cu307  O327    1.956   .     S
Cu307  Cu308   2.671   .     S
Cu307  N321    2.007   .     S
Cu308  O326    1.978   .     S
Cu308  O328    1.956   .     S
Cu308  N322    2.007   .     S
Cu308  O330    1.957   .     S
Cu308  O324    1.979   .     S
O331   C332    1.417   .     S
C332   H335    1.112   .     S
C332   H333    1.109   .     S
C332   H334    1.112   .     S
O336   C337    1.410   .     S
C337   H338    1.109   .     S
C337   H339    1.113   .     S
C337   H340    1.113   .     S
O341   C342    1.411   .     S
C342   H343    1.115   .     S
C342   H344    1.107   .     S
C342   H345    1.107   .     S
O346   C347    1.412   .     S
C347   H350    1.112   .     S
C347   H349    1.114   .     S
C347   H348    1.109   .     S
C351   O393    1.294   .     A
C351   C376    1.466   .     S
C351   O396    1.290   .     A
C352   O394    1.290   .     A
C352   C375    1.462   .     S
C352   O395    1.292   .     A
C353   O397    1.291   .     A
C353   O400    1.291   .     A
C353   C371    1.459   .     S
C354   O399    1.292   .     A
C354   O398    1.292   .     A
C354   C372    1.460   .     S
C355   H379    1.081   .     S
C355   N392    1.366   .     A
C356   H380    1.081   .     S
C356   N391    1.366   .     A
C356   C567    1.414   .     S
C357   H381    1.081   .     S
C357   N392    1.366   .     A
C358   N391    1.366   .     A
C358   H382    1.080   .     S
C358   C565    1.414   .     S
C359   O401    1.384   .     S
C359   C376    1.417   .     A
C360   O406    1.384   .     S
C360   C375    1.411   .     A
C360   C222    1.394   1_655 S
C361   C375    1.412   .     A
C361   O411    1.389   .     S
C361   C219    1.397   1_655 S
C362   O416    1.385   .     S
C362   C376    1.411   .     A
C363   H383    1.083   .     S
C363   C367    1.390   .     A
C363   C373    1.404   .     A
C364   H384    1.083   .     S
C364   C368    1.390   .     A
C364   C374    1.404   .     A
C365   C369    1.390   .     A
C365   C374    1.404   .     A
C365   H385    1.083   .     S
C366   C373    1.404   .     A
C366   C370    1.390   .     A
C366   H386    1.083   .     S
C367   H387    1.083   .     S
C367   C371    1.402   .     A
C368   H388    1.083   .     S
C368   C372    1.402   .     A
C369   H389    1.083   .     S
C369   C372    1.402   .     A
C370   H390    1.083   .     S
C370   C371    1.401   .     A
C373   C1004   1.470   1_554 S
C374   C1003   1.470   .     S
Cu377  O395    1.978   .     S
Cu377  O399    1.957   .     S
Cu377  O393    1.979   .     S
Cu377  O397    1.956   .     S
Cu377  Cu378   2.671   .     S
Cu377  N391    2.007   .     S
Cu378  O396    1.978   .     S
Cu378  O398    1.956   .     S
Cu378  N392    2.007   .     S
Cu378  O400    1.957   .     S
Cu378  O394    1.979   .     S
O401   C402    1.417   .     S
C402   H405    1.112   .     S
C402   H403    1.109   .     S
C402   H404    1.112   .     S
O406   C407    1.410   .     S
C407   H408    1.109   .     S
C407   H409    1.113   .     S
C407   H410    1.113   .     S
O411   C412    1.411   .     S
C412   H413    1.115   .     S
C412   H414    1.107   .     S
C412   H415    1.107   .     S
O416   C417    1.412   .     S
C417   H420    1.112   .     S
C417   H419    1.114   .     S
C417   H418    1.109   .     S
C421   O463    1.294   .     A
C421   C446    1.466   .     S
C421   O466    1.290   .     A
C422   O464    1.290   .     A
C422   C445    1.462   .     S
C422   O465    1.292   .     A
C423   O467    1.291   .     A
C423   O470    1.291   .     A
C423   C441    1.459   .     S
C424   O469    1.292   .     A
C424   O468    1.292   .     A
C424   C442    1.460   .     S
C425   H449    1.081   .     S
C425   N462    1.366   .     A
C426   H450    1.081   .     S
C426   N461    1.366   .     A
C426   C7      1.414   1_565 S
C427   H451    1.081   .     S
C427   N462    1.366   .     A
C428   N461    1.366   .     A
C428   H452    1.080   .     S
C428   C5      1.414   1_565 S
C429   O471    1.384   .     S
C429   C446    1.417   .     A
C429   C571    1.397   1_455 S
C430   O476    1.384   .     S
C430   C445    1.411   .     A
C430   C502    1.394   .     S
C431   C445    1.412   .     A
C431   O481    1.389   .     S
C431   C499    1.397   .     S
C432   O486    1.385   .     S
C432   C446    1.411   .     A
C432   C570    1.394   1_455 S
C433   H453    1.083   .     S
C433   C437    1.390   .     A
C433   C443    1.404   .     A
C434   H454    1.083   .     S
C434   C438    1.390   .     A
C434   C444    1.404   .     A
C435   C439    1.390   .     A
C435   C444    1.404   .     A
C435   H455    1.083   .     S
C436   C443    1.404   .     A
C436   C440    1.390   .     A
C436   H456    1.083   .     S
C437   H457    1.083   .     S
C437   C441    1.402   .     A
C438   H458    1.083   .     S
C438   C442    1.402   .     A
C439   H459    1.083   .     S
C439   C442    1.402   .     A
C440   H460    1.083   .     S
C440   C441    1.401   .     A
C443   C1074   1.470   1_554 S
C444   C1073   1.470   .     S
Cu447  O465    1.978   .     S
Cu447  O469    1.957   .     S
Cu447  O463    1.979   .     S
Cu447  O467    1.956   .     S
Cu447  Cu448   2.671   .     S
Cu447  N461    2.007   .     S
Cu448  O466    1.978   .     S
Cu448  O468    1.956   .     S
Cu448  N462    2.007   .     S
Cu448  O470    1.957   .     S
Cu448  O464    1.979   .     S
O471   C472    1.417   .     S
C472   H475    1.112   .     S
C472   H473    1.109   .     S
C472   H474    1.112   .     S
O476   C477    1.410   .     S
C477   H478    1.109   .     S
C477   H479    1.113   .     S
C477   H480    1.113   .     S
O481   C482    1.411   .     S
C482   H483    1.115   .     S
C482   H484    1.107   .     S
C482   H485    1.107   .     S
O486   C487    1.412   .     S
C487   H490    1.112   .     S
C487   H489    1.114   .     S
C487   H488    1.109   .     S
C491   O533    1.294   .     A
C491   C516    1.466   .     S
C491   O536    1.290   .     A
C492   O534    1.290   .     A
C492   C515    1.462   .     S
C492   O535    1.292   .     A
C493   O537    1.291   .     A
C493   O540    1.291   .     A
C493   C511    1.459   .     S
C494   O539    1.292   .     A
C494   O538    1.292   .     A
C494   C512    1.460   .     S
C495   H519    1.081   .     S
C495   N532    1.366   .     A
C496   H520    1.081   .     S
C496   N531    1.366   .     A
C496   C77     1.414   1_565 S
C497   H521    1.081   .     S
C497   N532    1.366   .     A
C498   N531    1.366   .     A
C498   H522    1.080   .     S
C498   C75     1.414   1_565 S
C499   O541    1.384   .     S
C499   C516    1.417   .     A
C500   O546    1.384   .     S
C500   C515    1.411   .     A
C500   C572    1.394   .     S
C501   C515    1.412   .     A
C501   O551    1.389   .     S
C501   C569    1.397   .     S
C502   O556    1.385   .     S
C502   C516    1.411   .     A
C503   H523    1.083   .     S
C503   C507    1.390   .     A
C503   C513    1.404   .     A
C504   H524    1.083   .     S
C504   C508    1.390   .     A
C504   C514    1.404   .     A
C505   C509    1.390   .     A
C505   C514    1.404   .     A
C505   H525    1.083   .     S
C506   C513    1.404   .     A
C506   C510    1.390   .     A
C506   H526    1.083   .     S
C507   H527    1.083   .     S
C507   C511    1.402   .     A
C508   H528    1.083   .     S
C508   C512    1.402   .     A
C509   H529    1.083   .     S
C509   C512    1.402   .     A
C510   H530    1.083   .     S
C510   C511    1.401   .     A
C513   C1144   1.470   1_554 S
C514   C1143   1.470   .     S
Cu517  O535    1.978   .     S
Cu517  O539    1.957   .     S
Cu517  O533    1.979   .     S
Cu517  O537    1.956   .     S
Cu517  Cu518   2.671   .     S
Cu517  N531    2.007   .     S
Cu518  O536    1.978   .     S
Cu518  O538    1.956   .     S
Cu518  N532    2.007   .     S
Cu518  O540    1.957   .     S
Cu518  O534    1.979   .     S
O541   C542    1.417   .     S
C542   H545    1.112   .     S
C542   H543    1.109   .     S
C542   H544    1.112   .     S
O546   C547    1.410   .     S
C547   H548    1.109   .     S
C547   H549    1.113   .     S
C547   H550    1.113   .     S
O551   C552    1.411   .     S
C552   H553    1.115   .     S
C552   H554    1.107   .     S
C552   H555    1.107   .     S
O556   C557    1.412   .     S
C557   H560    1.112   .     S
C557   H559    1.114   .     S
C557   H558    1.109   .     S
C561   O603    1.294   .     A
C561   C586    1.466   .     S
C561   O606    1.290   .     A
C562   O604    1.290   .     A
C562   C585    1.462   .     S
C562   O605    1.292   .     A
C563   O607    1.291   .     A
C563   O610    1.291   .     A
C563   C581    1.459   .     S
C564   O609    1.292   .     A
C564   O608    1.292   .     A
C564   C582    1.460   .     S
C565   H589    1.081   .     S
C565   N602    1.366   .     A
C566   H590    1.081   .     S
C566   N601    1.366   .     A
C566   C147    1.414   1_565 S
C567   H591    1.081   .     S
C567   N602    1.366   .     A
C568   N601    1.366   .     A
C568   H592    1.080   .     S
C568   C145    1.414   1_565 S
C569   O611    1.384   .     S
C569   C586    1.417   .     A
C570   O616    1.384   .     S
C570   C585    1.411   .     A
C570   C432    1.394   1_655 S
C571   C585    1.412   .     A
C571   O621    1.389   .     S
C571   C429    1.397   1_655 S
C572   O626    1.385   .     S
C572   C586    1.411   .     A
C573   H593    1.083   .     S
C573   C577    1.390   .     A
C573   C583    1.404   .     A
C574   H594    1.083   .     S
C574   C578    1.390   .     A
C574   C584    1.404   .     A
C575   C579    1.390   .     A
C575   C584    1.404   .     A
C575   H595    1.083   .     S
C576   C583    1.404   .     A
C576   C580    1.390   .     A
C576   H596    1.083   .     S
C577   H597    1.083   .     S
C577   C581    1.402   .     A
C578   H598    1.083   .     S
C578   C582    1.402   .     A
C579   H599    1.083   .     S
C579   C582    1.402   .     A
C580   H600    1.083   .     S
C580   C581    1.401   .     A
C583   C1214   1.470   1_554 S
C584   C1213   1.470   .     S
Cu587  O605    1.978   .     S
Cu587  O609    1.957   .     S
Cu587  O603    1.979   .     S
Cu587  O607    1.956   .     S
Cu587  Cu588   2.671   .     S
Cu587  N601    2.007   .     S
Cu588  O606    1.978   .     S
Cu588  O608    1.956   .     S
Cu588  N602    2.007   .     S
Cu588  O610    1.957   .     S
Cu588  O604    1.979   .     S
O611   C612    1.417   .     S
C612   H615    1.112   .     S
C612   H613    1.109   .     S
C612   H614    1.112   .     S
O616   C617    1.410   .     S
C617   H618    1.109   .     S
C617   H619    1.113   .     S
C617   H620    1.113   .     S
O621   C622    1.411   .     S
C622   H623    1.115   .     S
C622   H624    1.107   .     S
C622   H625    1.107   .     S
O626   C627    1.412   .     S
C627   H630    1.112   .     S
C627   H629    1.114   .     S
C627   H628    1.109   .     S
C631   O673    1.294   .     A
C631   C656    1.466   .     S
C631   O676    1.290   .     A
C632   O674    1.290   .     A
C632   C655    1.462   .     S
C632   O675    1.292   .     A
C633   O677    1.291   .     A
C633   O680    1.291   .     A
C633   C651    1.459   .     S
C634   O679    1.292   .     A
C634   O678    1.292   .     A
C634   C652    1.460   .     S
C635   H659    1.081   .     S
C635   N672    1.366   .     A
C635   C1058   1.414   1_545 S
C636   H660    1.081   .     S
C636   N671    1.366   .     A
C636   C847    1.414   .     S
C637   H661    1.081   .     S
C637   N672    1.366   .     A
C637   C1056   1.414   1_545 S
C638   N671    1.366   .     A
C638   H662    1.080   .     S
C638   C845    1.414   .     S
C639   O681    1.384   .     S
C639   C656    1.417   .     A
C639   C781    1.397   1_455 S
C640   O686    1.384   .     S
C640   C655    1.411   .     A
C640   C712    1.394   .     S
C641   C655    1.412   .     A
C641   O691    1.389   .     S
C641   C709    1.397   .     S
C642   O696    1.385   .     S
C642   C656    1.411   .     A
C642   C780    1.394   1_455 S
C643   H663    1.083   .     S
C643   C647    1.390   .     A
C643   C653    1.404   .     A
C644   H664    1.083   .     S
C644   C648    1.390   .     A
C644   C654    1.404   .     A
C645   C649    1.390   .     A
C645   C654    1.404   .     A
C645   H665    1.083   .     S
C646   C653    1.404   .     A
C646   C650    1.390   .     A
C646   H666    1.083   .     S
C647   H667    1.083   .     S
C647   C651    1.402   .     A
C648   H668    1.083   .     S
C648   C652    1.402   .     A
C649   H669    1.083   .     S
C649   C652    1.402   .     A
C650   H670    1.083   .     S
C650   C651    1.401   .     A
C654   C23     1.470   1_556 S
Cu657  O675    1.978   .     S
Cu657  O679    1.957   .     S
Cu657  O673    1.979   .     S
Cu657  O677    1.956   .     S
Cu657  Cu658   2.671   .     S
Cu657  N671    2.007   .     S
Cu658  O676    1.978   .     S
Cu658  O678    1.956   .     S
Cu658  N672    2.007   .     S
Cu658  O680    1.957   .     S
Cu658  O674    1.979   .     S
O681   C682    1.417   .     S
C682   H685    1.112   .     S
C682   H683    1.109   .     S
C682   H684    1.112   .     S
O686   C687    1.410   .     S
C687   H688    1.109   .     S
C687   H689    1.113   .     S
C687   H690    1.113   .     S
O691   C692    1.411   .     S
C692   H693    1.115   .     S
C692   H694    1.107   .     S
C692   H695    1.107   .     S
O696   C697    1.412   .     S
C697   H700    1.112   .     S
C697   H699    1.114   .     S
C697   H698    1.109   .     S
C701   O743    1.294   .     A
C701   C726    1.466   .     S
C701   O746    1.290   .     A
C702   O744    1.290   .     A
C702   C725    1.462   .     S
C702   O745    1.292   .     A
C703   O747    1.291   .     A
C703   O750    1.291   .     A
C703   C721    1.459   .     S
C704   O749    1.292   .     A
C704   O748    1.292   .     A
C704   C722    1.460   .     S
C705   H729    1.081   .     S
C705   N742    1.366   .     A
C705   C1128   1.414   1_545 S
C706   H730    1.081   .     S
C706   N741    1.366   .     A
C706   C917    1.414   .     S
C707   H731    1.081   .     S
C707   N742    1.366   .     A
C707   C1126   1.414   1_545 S
C708   N741    1.366   .     A
C708   H732    1.080   .     S
C708   C915    1.414   .     S
C709   O751    1.384   .     S
C709   C726    1.417   .     A
C710   O756    1.384   .     S
C710   C725    1.411   .     A
C710   C782    1.394   .     S
C711   C725    1.412   .     A
C711   O761    1.389   .     S
C711   C779    1.397   .     S
C712   O766    1.385   .     S
C712   C726    1.411   .     A
C713   H733    1.083   .     S
C713   C717    1.390   .     A
C713   C723    1.404   .     A
C714   H734    1.083   .     S
C714   C718    1.390   .     A
C714   C724    1.404   .     A
C715   C719    1.390   .     A
C715   C724    1.404   .     A
C715   H735    1.083   .     S
C716   C723    1.404   .     A
C716   C720    1.390   .     A
C716   H736    1.083   .     S
C717   H737    1.083   .     S
C717   C721    1.402   .     A
C718   H738    1.083   .     S
C718   C722    1.402   .     A
C719   H739    1.083   .     S
C719   C722    1.402   .     A
C720   H740    1.083   .     S
C720   C721    1.401   .     A
C724   C93     1.470   1_556 S
Cu727  O745    1.978   .     S
Cu727  O749    1.957   .     S
Cu727  O743    1.979   .     S
Cu727  O747    1.956   .     S
Cu727  Cu728   2.671   .     S
Cu727  N741    2.007   .     S
Cu728  O746    1.978   .     S
Cu728  O748    1.956   .     S
Cu728  N742    2.007   .     S
Cu728  O750    1.957   .     S
Cu728  O744    1.979   .     S
O751   C752    1.417   .     S
C752   H755    1.112   .     S
C752   H753    1.109   .     S
C752   H754    1.112   .     S
O756   C757    1.410   .     S
C757   H758    1.109   .     S
C757   H759    1.113   .     S
C757   H760    1.113   .     S
O761   C762    1.411   .     S
C762   H763    1.115   .     S
C762   H764    1.107   .     S
C762   H765    1.107   .     S
O766   C767    1.412   .     S
C767   H770    1.112   .     S
C767   H769    1.114   .     S
C767   H768    1.109   .     S
C771   O813    1.294   .     A
C771   C796    1.466   .     S
C771   O816    1.290   .     A
C772   O814    1.290   .     A
C772   C795    1.462   .     S
C772   O815    1.292   .     A
C773   O817    1.291   .     A
C773   O820    1.291   .     A
C773   C791    1.459   .     S
C774   O819    1.292   .     A
C774   O818    1.292   .     A
C774   C792    1.460   .     S
C775   H799    1.081   .     S
C775   N812    1.366   .     A
C775   C1198   1.414   1_545 S
C776   H800    1.081   .     S
C776   N811    1.366   .     A
C776   C987    1.414   .     S
C777   H801    1.081   .     S
C777   N812    1.366   .     A
C777   C1196   1.414   1_545 S
C778   N811    1.366   .     A
C778   H802    1.080   .     S
C778   C985    1.414   .     S
C779   O821    1.384   .     S
C779   C796    1.417   .     A
C780   O826    1.384   .     S
C780   C795    1.411   .     A
C780   C642    1.394   1_655 S
C781   C795    1.412   .     A
C781   O831    1.389   .     S
C781   C639    1.397   1_655 S
C782   O836    1.385   .     S
C782   C796    1.411   .     A
C783   H803    1.083   .     S
C783   C787    1.390   .     A
C783   C793    1.404   .     A
C784   H804    1.083   .     S
C784   C788    1.390   .     A
C784   C794    1.404   .     A
C785   C789    1.390   .     A
C785   C794    1.404   .     A
C785   H805    1.083   .     S
C786   C793    1.404   .     A
C786   C790    1.390   .     A
C786   H806    1.083   .     S
C787   H807    1.083   .     S
C787   C791    1.402   .     A
C788   H808    1.083   .     S
C788   C792    1.402   .     A
C789   H809    1.083   .     S
C789   C792    1.402   .     A
C790   H810    1.083   .     S
C790   C791    1.401   .     A
C794   C163    1.470   1_556 S
Cu797  O815    1.978   .     S
Cu797  O819    1.957   .     S
Cu797  O813    1.979   .     S
Cu797  O817    1.956   .     S
Cu797  Cu798   2.671   .     S
Cu797  N811    2.007   .     S
Cu798  O816    1.978   .     S
Cu798  O818    1.956   .     S
Cu798  N812    2.007   .     S
Cu798  O820    1.957   .     S
Cu798  O814    1.979   .     S
O821   C822    1.417   .     S
C822   H825    1.112   .     S
C822   H823    1.109   .     S
C822   H824    1.112   .     S
O826   C827    1.410   .     S
C827   H828    1.109   .     S
C827   H829    1.113   .     S
C827   H830    1.113   .     S
O831   C832    1.411   .     S
C832   H833    1.115   .     S
C832   H834    1.107   .     S
C832   H835    1.107   .     S
O836   C837    1.412   .     S
C837   H840    1.112   .     S
C837   H839    1.114   .     S
C837   H838    1.109   .     S
C841   O883    1.294   .     A
C841   C866    1.466   .     S
C841   O886    1.290   .     A
C842   O884    1.290   .     A
C842   C865    1.462   .     S
C842   O885    1.292   .     A
C843   O887    1.291   .     A
C843   O890    1.291   .     A
C843   C861    1.459   .     S
C844   O889    1.292   .     A
C844   O888    1.292   .     A
C844   C862    1.460   .     S
C845   H869    1.081   .     S
C845   N882    1.366   .     A
C846   H870    1.081   .     S
C846   N881    1.366   .     A
C846   C1057   1.414   .     S
C847   H871    1.081   .     S
C847   N882    1.366   .     A
C848   N881    1.366   .     A
C848   H872    1.080   .     S
C848   C1055   1.414   .     S
C849   O891    1.384   .     S
C849   C866    1.417   .     A
C849   C991    1.397   1_455 S
C850   O896    1.384   .     S
C850   C865    1.411   .     A
C850   C922    1.394   .     S
C851   C865    1.412   .     A
C851   O901    1.389   .     S
C851   C919    1.397   .     S
C852   O906    1.385   .     S
C852   C866    1.411   .     A
C852   C990    1.394   1_455 S
C853   H873    1.083   .     S
C853   C857    1.390   .     A
C853   C863    1.404   .     A
C854   H874    1.083   .     S
C854   C858    1.390   .     A
C854   C864    1.404   .     A
C855   C859    1.390   .     A
C855   C864    1.404   .     A
C855   H875    1.083   .     S
C856   C863    1.404   .     A
C856   C860    1.390   .     A
C856   H876    1.083   .     S
C857   H877    1.083   .     S
C857   C861    1.402   .     A
C858   H878    1.083   .     S
C858   C862    1.402   .     A
C859   H879    1.083   .     S
C859   C862    1.402   .     A
C860   H880    1.083   .     S
C860   C861    1.401   .     A
C864   C233    1.470   1_556 S
Cu867  O885    1.978   .     S
Cu867  O889    1.957   .     S
Cu867  O883    1.979   .     S
Cu867  O887    1.956   .     S
Cu867  Cu868   2.671   .     S
Cu867  N881    2.007   .     S
Cu868  O886    1.978   .     S
Cu868  O888    1.956   .     S
Cu868  N882    2.007   .     S
Cu868  O890    1.957   .     S
Cu868  O884    1.979   .     S
O891   C892    1.417   .     S
C892   H895    1.112   .     S
C892   H893    1.109   .     S
C892   H894    1.112   .     S
O896   C897    1.410   .     S
C897   H898    1.109   .     S
C897   H899    1.113   .     S
C897   H900    1.113   .     S
O901   C902    1.411   .     S
C902   H903    1.115   .     S
C902   H904    1.107   .     S
C902   H905    1.107   .     S
O906   C907    1.412   .     S
C907   H910    1.112   .     S
C907   H909    1.114   .     S
C907   H908    1.109   .     S
C911   O953    1.294   .     A
C911   C936    1.466   .     S
C911   O956    1.290   .     A
C912   O954    1.290   .     A
C912   C935    1.462   .     S
C912   O955    1.292   .     A
C913   O957    1.291   .     A
C913   O960    1.291   .     A
C913   C931    1.459   .     S
C914   O959    1.292   .     A
C914   O958    1.292   .     A
C914   C932    1.460   .     S
C915   H939    1.081   .     S
C915   N952    1.366   .     A
C916   H940    1.081   .     S
C916   N951    1.366   .     A
C916   C1127   1.414   .     S
C917   H941    1.081   .     S
C917   N952    1.366   .     A
C918   N951    1.366   .     A
C918   H942    1.080   .     S
C918   C1125   1.414   .     S
C919   O961    1.384   .     S
C919   C936    1.417   .     A
C920   O966    1.384   .     S
C920   C935    1.411   .     A
C920   C992    1.394   .     S
C921   C935    1.412   .     A
C921   O971    1.389   .     S
C921   C989    1.397   .     S
C922   O976    1.385   .     S
C922   C936    1.411   .     A
C923   H943    1.083   .     S
C923   C927    1.390   .     A
C923   C933    1.404   .     A
C924   H944    1.083   .     S
C924   C928    1.390   .     A
C924   C934    1.404   .     A
C925   C929    1.390   .     A
C925   C934    1.404   .     A
C925   H945    1.083   .     S
C926   C933    1.404   .     A
C926   C930    1.390   .     A
C926   H946    1.083   .     S
C927   H947    1.083   .     S
C927   C931    1.402   .     A
C928   H948    1.083   .     S
C928   C932    1.402   .     A
C929   H949    1.083   .     S
C929   C932    1.402   .     A
C930   H950    1.083   .     S
C930   C931    1.401   .     A
C934   C303    1.470   1_556 S
Cu937  O955    1.978   .     S
Cu937  O959    1.957   .     S
Cu937  O953    1.979   .     S
Cu937  O957    1.956   .     S
Cu937  Cu938   2.671   .     S
Cu937  N951    2.007   .     S
Cu938  O956    1.978   .     S
Cu938  O958    1.956   .     S
Cu938  N952    2.007   .     S
Cu938  O960    1.957   .     S
Cu938  O954    1.979   .     S
O961   C962    1.417   .     S
C962   H965    1.112   .     S
C962   H963    1.109   .     S
C962   H964    1.112   .     S
O966   C967    1.410   .     S
C967   H968    1.109   .     S
C967   H969    1.113   .     S
C967   H970    1.113   .     S
O971   C972    1.411   .     S
C972   H973    1.115   .     S
C972   H974    1.107   .     S
C972   H975    1.107   .     S
O976   C977    1.412   .     S
C977   H980    1.112   .     S
C977   H979    1.114   .     S
C977   H978    1.109   .     S
C981   O1023   1.294   .     A
C981   C1006   1.466   .     S
C981   O1026   1.290   .     A
C982   O1024   1.290   .     A
C982   C1005   1.462   .     S
C982   O1025   1.292   .     A
C983   O1027   1.291   .     A
C983   O1030   1.291   .     A
C983   C1001   1.459   .     S
C984   O1029   1.292   .     A
C984   O1028   1.292   .     A
C984   C1002   1.460   .     S
C985   H1009   1.081   .     S
C985   N1022   1.366   .     A
C986   H1010   1.081   .     S
C986   N1021   1.366   .     A
C986   C1197   1.414   .     S
C987   H1011   1.081   .     S
C987   N1022   1.366   .     A
C988   N1021   1.366   .     A
C988   H1012   1.080   .     S
C988   C1195   1.414   .     S
C989   O1031   1.384   .     S
C989   C1006   1.417   .     A
C990   O1036   1.384   .     S
C990   C1005   1.411   .     A
C990   C852    1.394   1_655 S
C991   C1005   1.412   .     A
C991   O1041   1.389   .     S
C991   C849    1.397   1_655 S
C992   O1046   1.385   .     S
C992   C1006   1.411   .     A
C993   H1013   1.083   .     S
C993   C997    1.390   .     A
C993   C1003   1.404   .     A
C994   H1014   1.083   .     S
C994   C998    1.390   .     A
C994   C1004   1.404   .     A
C995   C999    1.390   .     A
C995   C1004   1.404   .     A
C995   H1015   1.083   .     S
C996   C1003   1.404   .     A
C996   C1000   1.390   .     A
C996   H1016   1.083   .     S
C997   H1017   1.083   .     S
C997   C1001   1.402   .     A
C998   H1018   1.083   .     S
C998   C1002   1.402   .     A
C999   H1019   1.083   .     S
C999   C1002   1.402   .     A
C1000  H1020   1.083   .     S
C1000  C1001   1.401   .     A
C1004  C373    1.470   1_556 S
Cu1007 O1025   1.978   .     S
Cu1007 O1029   1.957   .     S
Cu1007 O1023   1.979   .     S
Cu1007 O1027   1.956   .     S
Cu1007 Cu1008  2.671   .     S
Cu1007 N1021   2.007   .     S
Cu1008 O1026   1.978   .     S
Cu1008 O1028   1.956   .     S
Cu1008 N1022   2.007   .     S
Cu1008 O1030   1.957   .     S
Cu1008 O1024   1.979   .     S
O1031  C1032   1.417   .     S
C1032  H1035   1.112   .     S
C1032  H1033   1.109   .     S
C1032  H1034   1.112   .     S
O1036  C1037   1.410   .     S
C1037  H1038   1.109   .     S
C1037  H1039   1.113   .     S
C1037  H1040   1.113   .     S
O1041  C1042   1.411   .     S
C1042  H1043   1.115   .     S
C1042  H1044   1.107   .     S
C1042  H1045   1.107   .     S
O1046  C1047   1.412   .     S
C1047  H1050   1.112   .     S
C1047  H1049   1.114   .     S
C1047  H1048   1.109   .     S
C1051  O1093   1.294   .     A
C1051  C1076   1.466   .     S
C1051  O1096   1.290   .     A
C1052  O1094   1.290   .     A
C1052  C1075   1.462   .     S
C1052  O1095   1.292   .     A
C1053  O1097   1.291   .     A
C1053  O1100   1.291   .     A
C1053  C1071   1.459   .     S
C1054  O1099   1.292   .     A
C1054  O1098   1.292   .     A
C1054  C1072   1.460   .     S
C1055  H1079   1.081   .     S
C1055  N1092   1.366   .     A
C1056  H1080   1.081   .     S
C1056  N1091   1.366   .     A
C1056  C637    1.414   1_565 S
C1057  H1081   1.081   .     S
C1057  N1092   1.366   .     A
C1058  N1091   1.366   .     A
C1058  H1082   1.080   .     S
C1058  C635    1.414   1_565 S
C1059  O1101   1.384   .     S
C1059  C1076   1.417   .     A
C1059  C1201   1.397   1_455 S
C1060  O1106   1.384   .     S
C1060  C1075   1.411   .     A
C1060  C1132   1.394   .     S
C1061  C1075   1.412   .     A
C1061  O1111   1.389   .     S
C1061  C1129   1.397   .     S
C1062  O1116   1.385   .     S
C1062  C1076   1.411   .     A
C1062  C1200   1.394   1_455 S
C1063  H1083   1.083   .     S
C1063  C1067   1.390   .     A
C1063  C1073   1.404   .     A
C1064  H1084   1.083   .     S
C1064  C1068   1.390   .     A
C1064  C1074   1.404   .     A
C1065  C1069   1.390   .     A
C1065  C1074   1.404   .     A
C1065  H1085   1.083   .     S
C1066  C1073   1.404   .     A
C1066  C1070   1.390   .     A
C1066  H1086   1.083   .     S
C1067  H1087   1.083   .     S
C1067  C1071   1.402   .     A
C1068  H1088   1.083   .     S
C1068  C1072   1.402   .     A
C1069  H1089   1.083   .     S
C1069  C1072   1.402   .     A
C1070  H1090   1.083   .     S
C1070  C1071   1.401   .     A
C1074  C443    1.470   1_556 S
Cu1077 O1095   1.978   .     S
Cu1077 O1099   1.957   .     S
Cu1077 O1093   1.979   .     S
Cu1077 O1097   1.956   .     S
Cu1077 Cu1078  2.671   .     S
Cu1077 N1091   2.007   .     S
Cu1078 O1096   1.978   .     S
Cu1078 O1098   1.956   .     S
Cu1078 N1092   2.007   .     S
Cu1078 O1100   1.957   .     S
Cu1078 O1094   1.979   .     S
O1101  C1102   1.417   .     S
C1102  H1105   1.112   .     S
C1102  H1103   1.109   .     S
C1102  H1104   1.112   .     S
O1106  C1107   1.410   .     S
C1107  H1108   1.109   .     S
C1107  H1109   1.113   .     S
C1107  H1110   1.113   .     S
O1111  C1112   1.411   .     S
C1112  H1113   1.115   .     S
C1112  H1114   1.107   .     S
C1112  H1115   1.107   .     S
O1116  C1117   1.412   .     S
C1117  H1120   1.112   .     S
C1117  H1119   1.114   .     S
C1117  H1118   1.109   .     S
C1121  O1163   1.294   .     A
C1121  C1146   1.466   .     S
C1121  O1166   1.290   .     A
C1122  O1164   1.290   .     A
C1122  C1145   1.462   .     S
C1122  O1165   1.292   .     A
C1123  O1167   1.291   .     A
C1123  O1170   1.291   .     A
C1123  C1141   1.459   .     S
C1124  O1169   1.292   .     A
C1124  O1168   1.292   .     A
C1124  C1142   1.460   .     S
C1125  H1149   1.081   .     S
C1125  N1162   1.366   .     A
C1126  H1150   1.081   .     S
C1126  N1161   1.366   .     A
C1126  C707    1.414   1_565 S
C1127  H1151   1.081   .     S
C1127  N1162   1.366   .     A
C1128  N1161   1.366   .     A
C1128  H1152   1.080   .     S
C1128  C705    1.414   1_565 S
C1129  O1171   1.384   .     S
C1129  C1146   1.417   .     A
C1130  O1176   1.384   .     S
C1130  C1145   1.411   .     A
C1130  C1202   1.394   .     S
C1131  C1145   1.412   .     A
C1131  O1181   1.389   .     S
C1131  C1199   1.397   .     S
C1132  O1186   1.385   .     S
C1132  C1146   1.411   .     A
C1133  H1153   1.083   .     S
C1133  C1137   1.390   .     A
C1133  C1143   1.404   .     A
C1134  H1154   1.083   .     S
C1134  C1138   1.390   .     A
C1134  C1144   1.404   .     A
C1135  C1139   1.390   .     A
C1135  C1144   1.404   .     A
C1135  H1155   1.083   .     S
C1136  C1143   1.404   .     A
C1136  C1140   1.390   .     A
C1136  H1156   1.083   .     S
C1137  H1157   1.083   .     S
C1137  C1141   1.402   .     A
C1138  H1158   1.083   .     S
C1138  C1142   1.402   .     A
C1139  H1159   1.083   .     S
C1139  C1142   1.402   .     A
C1140  H1160   1.083   .     S
C1140  C1141   1.401   .     A
C1144  C513    1.470   1_556 S
Cu1147 O1165   1.978   .     S
Cu1147 O1169   1.957   .     S
Cu1147 O1163   1.979   .     S
Cu1147 O1167   1.956   .     S
Cu1147 Cu1148  2.671   .     S
Cu1147 N1161   2.007   .     S
Cu1148 O1166   1.978   .     S
Cu1148 O1168   1.956   .     S
Cu1148 N1162   2.007   .     S
Cu1148 O1170   1.957   .     S
Cu1148 O1164   1.979   .     S
O1171  C1172   1.417   .     S
C1172  H1175   1.112   .     S
C1172  H1173   1.109   .     S
C1172  H1174   1.112   .     S
O1176  C1177   1.410   .     S
C1177  H1178   1.109   .     S
C1177  H1179   1.113   .     S
C1177  H1180   1.113   .     S
O1181  C1182   1.411   .     S
C1182  H1183   1.115   .     S
C1182  H1184   1.107   .     S
C1182  H1185   1.107   .     S
O1186  C1187   1.412   .     S
C1187  H1190   1.112   .     S
C1187  H1189   1.114   .     S
C1187  H1188   1.109   .     S
C1191  O1233   1.294   .     A
C1191  C1216   1.466   .     S
C1191  O1236   1.290   .     A
C1192  O1234   1.290   .     A
C1192  C1215   1.462   .     S
C1192  O1235   1.292   .     A
C1193  O1237   1.291   .     A
C1193  O1240   1.291   .     A
C1193  C1211   1.459   .     S
C1194  O1239   1.292   .     A
C1194  O1238   1.292   .     A
C1194  C1212   1.460   .     S
C1195  H1219   1.081   .     S
C1195  N1232   1.366   .     A
C1196  H1220   1.081   .     S
C1196  N1231   1.366   .     A
C1196  C777    1.414   1_565 S
C1197  H1221   1.081   .     S
C1197  N1232   1.366   .     A
C1198  N1231   1.366   .     A
C1198  H1222   1.080   .     S
C1198  C775    1.414   1_565 S
C1199  O1241   1.384   .     S
C1199  C1216   1.417   .     A
C1200  O1246   1.384   .     S
C1200  C1215   1.411   .     A
C1200  C1062   1.394   1_655 S
C1201  C1215   1.412   .     A
C1201  O1251   1.389   .     S
C1201  C1059   1.397   1_655 S
C1202  O1256   1.385   .     S
C1202  C1216   1.411   .     A
C1203  H1223   1.083   .     S
C1203  C1207   1.390   .     A
C1203  C1213   1.404   .     A
C1204  H1224   1.083   .     S
C1204  C1208   1.390   .     A
C1204  C1214   1.404   .     A
C1205  C1209   1.390   .     A
C1205  C1214   1.404   .     A
C1205  H1225   1.083   .     S
C1206  C1213   1.404   .     A
C1206  C1210   1.390   .     A
C1206  H1226   1.083   .     S
C1207  H1227   1.083   .     S
C1207  C1211   1.402   .     A
C1208  H1228   1.083   .     S
C1208  C1212   1.402   .     A
C1209  H1229   1.083   .     S
C1209  C1212   1.402   .     A
C1210  H1230   1.083   .     S
C1210  C1211   1.401   .     A
C1214  C583    1.470   1_556 S
Cu1217 O1235   1.978   .     S
Cu1217 O1239   1.957   .     S
Cu1217 O1233   1.979   .     S
Cu1217 O1237   1.956   .     S
Cu1217 Cu1218  2.671   .     S
Cu1217 N1231   2.007   .     S
Cu1218 O1236   1.978   .     S
Cu1218 O1238   1.956   .     S
Cu1218 N1232   2.007   .     S
Cu1218 O1240   1.957   .     S
Cu1218 O1234   1.979   .     S
O1241  C1242   1.417   .     S
C1242  H1245   1.112   .     S
C1242  H1243   1.109   .     S
C1242  H1244   1.112   .     S
O1246  C1247   1.410   .     S
C1247  H1248   1.109   .     S
C1247  H1249   1.113   .     S
C1247  H1250   1.113   .     S
O1251  C1252   1.411   .     S
C1252  H1253   1.115   .     S
C1252  H1254   1.107   .     S
C1252  H1255   1.107   .     S
O1256  C1257   1.412   .     S
C1257  H1260   1.112   .     S
C1257  H1259   1.114   .     S
C1257  H1258   1.109   .     S
