data_str_m2_o1_o5_pcu_sym.48
_audit_creation_date              2020-01-03
_audit_creation_method            'Materials Studio'
_symmetry_space_group_name_H-M    'P1'
_symmetry_Int_Tables_number       1
_symmetry_cell_setting            triclinic
loop_
_symmetry_equiv_pos_as_xyz
  x,y,z
_cell_length_a                    32.4915
_cell_length_b                    28.7768
_cell_length_c                    27.2287
_cell_angle_alpha                 90.0000
_cell_angle_beta                  91.4010
_cell_angle_gamma                 90.0000
loop_
_atom_site_label
_atom_site_type_symbol
_atom_site_fract_x
_atom_site_fract_y
_atom_site_fract_z
_atom_site_U_iso_or_equiv
_atom_site_adp_type
_atom_site_occupancy
C1     C     0.08742   0.16667   0.16660   0.00000  Uiso   1.00
C2     C     0.02129   0.20889   0.16665   0.00000  Uiso   1.00
C3     C     0.29056   0.16667   0.16672   0.00000  Uiso   1.00
C4     C     0.04277   0.16667   0.16661   0.00000  Uiso   1.00
C5     C     0.14073   0.02479   0.13571   0.00000  Uiso   1.00
C6     C     0.19260   0.30854   0.19763   0.00000  Uiso   1.00
C7     C     0.19260   0.02479   0.19763   0.00000  Uiso   1.00
C8     C     0.14073   0.30854   0.13571   0.00000  Uiso   1.00
C9     C     0.11306   0.04942   0.10255   0.00000  Uiso   1.00
C10    C     0.22027   0.28391   0.23078   0.00000  Uiso   1.00
C11    C     0.22027   0.04942   0.23078   0.00000  Uiso   1.00
C12    C     0.24591   0.16667   0.16673   0.00000  Uiso   1.00
C13    C     0.11306   0.28391   0.10255   0.00000  Uiso   1.00
C14    C     0.16661   0.16667   0.07360   0.00000  Uiso   1.00
C15    C     0.16672   0.16667   0.25973   0.00000  Uiso   1.00
C16    C     0.16664   0.16667   0.02186   0.00000  Uiso   1.00
C17    C     0.16669   0.16667   0.31147   0.00000  Uiso   1.00
C18    C     0.02129   0.12444   0.16665   0.00000  Uiso   1.00
C19    C     0.31204   0.20889   0.16668   0.00000  Uiso   1.00
C20    C     0.31204   0.12444   0.16669   0.00000  Uiso   1.00
Cu21   Cu    0.16667   0.21355   0.16667   0.00000  Uiso   1.00
Cu22   Cu    0.16667   0.11978   0.16667   0.00000  Uiso   1.00
H23    H     0.03728   0.09141   0.16666   0.00000  Uiso   1.00
H24    H     0.29606   0.24192   0.16667   0.00000  Uiso   1.00
H25    H     0.29605   0.09141   0.16667   0.00000  Uiso   1.00
H26    H     0.03728   0.24192   0.16666   0.00000  Uiso   1.00
N27    N     0.16667   0.28402   0.16667   0.00000  Uiso   1.00
N28    N     0.16667   0.04931   0.16667   0.00000  Uiso   1.00
N29    N     0.09075   0.06878   0.07581   0.00000  Uiso   1.00
N30    N     0.24258   0.26455   0.25753   0.00000  Uiso   1.00
N31    N     0.24258   0.06878   0.25753   0.00000  Uiso   1.00
N32    N     0.09075   0.26455   0.07581   0.00000  Uiso   1.00
O33    O     0.10655   0.20625   0.16666   0.00000  Uiso   1.00
O34    O     0.22679   0.12709   0.16667   0.00000  Uiso   1.00
O35    O     0.22679   0.20625   0.16667   0.00000  Uiso   1.00
O36    O     0.10655   0.12709   0.16666   0.00000  Uiso   1.00
O37    O     0.16667   0.20625   0.09613   0.00000  Uiso   1.00
O38    O     0.16667   0.12708   0.23720   0.00000  Uiso   1.00
O39    O     0.16667   0.20625   0.23720   0.00000  Uiso   1.00
O40    O     0.16667   0.12708   0.09613   0.00000  Uiso   1.00
C41    C     0.42076   0.16667   0.16660   0.00000  Uiso   1.00
C42    C     0.35462   0.20889   0.16665   0.00000  Uiso   1.00
C43    C     0.62390   0.16667   0.16672   0.00000  Uiso   1.00
C44    C     0.37610   0.16667   0.16661   0.00000  Uiso   1.00
C45    C     0.47407   0.02479   0.13571   0.00000  Uiso   1.00
C46    C     0.52593   0.30854   0.19763   0.00000  Uiso   1.00
C47    C     0.52593   0.02479   0.19763   0.00000  Uiso   1.00
C48    C     0.47407   0.30854   0.13571   0.00000  Uiso   1.00
C49    C     0.44639   0.04942   0.10255   0.00000  Uiso   1.00
C50    C     0.55361   0.28391   0.23078   0.00000  Uiso   1.00
C51    C     0.55361   0.04942   0.23078   0.00000  Uiso   1.00
C52    C     0.57924   0.16667   0.16673   0.00000  Uiso   1.00
C53    C     0.44639   0.28391   0.10255   0.00000  Uiso   1.00
C54    C     0.49994   0.16667   0.07360   0.00000  Uiso   1.00
C55    C     0.50006   0.16667   0.25973   0.00000  Uiso   1.00
C56    C     0.49998   0.16667   0.02186   0.00000  Uiso   1.00
C57    C     0.50002   0.16667   0.31147   0.00000  Uiso   1.00
C58    C     0.35462   0.12444   0.16665   0.00000  Uiso   1.00
C59    C     0.64538   0.20889   0.16668   0.00000  Uiso   1.00
C60    C     0.64538   0.12444   0.16669   0.00000  Uiso   1.00
Cu61   Cu    0.50000   0.21355   0.16667   0.00000  Uiso   1.00
Cu62   Cu    0.50000   0.11978   0.16667   0.00000  Uiso   1.00
H63    H     0.37061   0.09141   0.16666   0.00000  Uiso   1.00
H64    H     0.62939   0.24192   0.16667   0.00000  Uiso   1.00
H65    H     0.62939   0.09141   0.16667   0.00000  Uiso   1.00
H66    H     0.37061   0.24192   0.16666   0.00000  Uiso   1.00
N67    N     0.50000   0.28402   0.16667   0.00000  Uiso   1.00
N68    N     0.50000   0.04931   0.16667   0.00000  Uiso   1.00
N69    N     0.42409   0.06878   0.07581   0.00000  Uiso   1.00
N70    N     0.57591   0.26455   0.25753   0.00000  Uiso   1.00
N71    N     0.57591   0.06878   0.25753   0.00000  Uiso   1.00
N72    N     0.42409   0.26455   0.07581   0.00000  Uiso   1.00
O73    O     0.43988   0.20625   0.16666   0.00000  Uiso   1.00
O74    O     0.56012   0.12709   0.16667   0.00000  Uiso   1.00
O75    O     0.56012   0.20625   0.16667   0.00000  Uiso   1.00
O76    O     0.43988   0.12709   0.16666   0.00000  Uiso   1.00
O77    O     0.50000   0.20625   0.09613   0.00000  Uiso   1.00
O78    O     0.50000   0.12708   0.23720   0.00000  Uiso   1.00
O79    O     0.50000   0.20625   0.23720   0.00000  Uiso   1.00
O80    O     0.50000   0.12708   0.09613   0.00000  Uiso   1.00
C81    C     0.75409   0.16667   0.16660   0.00000  Uiso   1.00
C82    C     0.68796   0.20889   0.16665   0.00000  Uiso   1.00
C83    C     0.95723   0.16667   0.16672   0.00000  Uiso   1.00
C84    C     0.70944   0.16667   0.16661   0.00000  Uiso   1.00
C85    C     0.80740   0.02479   0.13571   0.00000  Uiso   1.00
C86    C     0.85926   0.30854   0.19763   0.00000  Uiso   1.00
C87    C     0.85926   0.02479   0.19763   0.00000  Uiso   1.00
C88    C     0.80740   0.30854   0.13571   0.00000  Uiso   1.00
C89    C     0.77972   0.04942   0.10255   0.00000  Uiso   1.00
C90    C     0.88694   0.28391   0.23078   0.00000  Uiso   1.00
C91    C     0.88694   0.04942   0.23078   0.00000  Uiso   1.00
C92    C     0.91258   0.16667   0.16673   0.00000  Uiso   1.00
C93    C     0.77972   0.28391   0.10255   0.00000  Uiso   1.00
C94    C     0.83328   0.16667   0.07360   0.00000  Uiso   1.00
C95    C     0.83339   0.16667   0.25973   0.00000  Uiso   1.00
C96    C     0.83331   0.16667   0.02186   0.00000  Uiso   1.00
C97    C     0.83336   0.16667   0.31147   0.00000  Uiso   1.00
C98    C     0.68796   0.12444   0.16665   0.00000  Uiso   1.00
C99    C     0.97871   0.20889   0.16668   0.00000  Uiso   1.00
C100   C     0.97871   0.12444   0.16669   0.00000  Uiso   1.00
Cu101  Cu    0.83333   0.21355   0.16667   0.00000  Uiso   1.00
Cu102  Cu    0.83333   0.11978   0.16667   0.00000  Uiso   1.00
H103   H     0.70394   0.09141   0.16666   0.00000  Uiso   1.00
H104   H     0.96272   0.24192   0.16667   0.00000  Uiso   1.00
H105   H     0.96272   0.09141   0.16667   0.00000  Uiso   1.00
H106   H     0.70394   0.24192   0.16666   0.00000  Uiso   1.00
N107   N     0.83333   0.28402   0.16667   0.00000  Uiso   1.00
N108   N     0.83333   0.04931   0.16667   0.00000  Uiso   1.00
N109   N     0.75742   0.06878   0.07581   0.00000  Uiso   1.00
N110   N     0.90925   0.26455   0.25753   0.00000  Uiso   1.00
N111   N     0.90925   0.06878   0.25753   0.00000  Uiso   1.00
N112   N     0.75742   0.26455   0.07581   0.00000  Uiso   1.00
O113   O     0.77321   0.20625   0.16666   0.00000  Uiso   1.00
O114   O     0.89345   0.12709   0.16667   0.00000  Uiso   1.00
O115   O     0.89345   0.20625   0.16667   0.00000  Uiso   1.00
O116   O     0.77321   0.12709   0.16666   0.00000  Uiso   1.00
O117   O     0.83333   0.20625   0.09613   0.00000  Uiso   1.00
O118   O     0.83333   0.12708   0.23720   0.00000  Uiso   1.00
O119   O     0.83333   0.20625   0.23720   0.00000  Uiso   1.00
O120   O     0.83333   0.12708   0.09613   0.00000  Uiso   1.00
C121   C     0.08742   0.50000   0.16660   0.00000  Uiso   1.00
C122   C     0.02129   0.54222   0.16665   0.00000  Uiso   1.00
C123   C     0.29056   0.50000   0.16672   0.00000  Uiso   1.00
C124   C     0.04277   0.50000   0.16661   0.00000  Uiso   1.00
C125   C     0.14073   0.35813   0.13571   0.00000  Uiso   1.00
C126   C     0.19260   0.64187   0.19763   0.00000  Uiso   1.00
C127   C     0.19260   0.35813   0.19763   0.00000  Uiso   1.00
C128   C     0.14073   0.64187   0.13571   0.00000  Uiso   1.00
C129   C     0.11306   0.38275   0.10255   0.00000  Uiso   1.00
C130   C     0.22027   0.61725   0.23078   0.00000  Uiso   1.00
C131   C     0.22027   0.38275   0.23078   0.00000  Uiso   1.00
C132   C     0.24591   0.50000   0.16673   0.00000  Uiso   1.00
C133   C     0.11306   0.61725   0.10255   0.00000  Uiso   1.00
C134   C     0.16661   0.50000   0.07360   0.00000  Uiso   1.00
C135   C     0.16672   0.50000   0.25973   0.00000  Uiso   1.00
C136   C     0.16664   0.50000   0.02186   0.00000  Uiso   1.00
C137   C     0.16669   0.50000   0.31147   0.00000  Uiso   1.00
C138   C     0.02129   0.45778   0.16665   0.00000  Uiso   1.00
C139   C     0.31204   0.54222   0.16668   0.00000  Uiso   1.00
C140   C     0.31204   0.45778   0.16669   0.00000  Uiso   1.00
Cu141  Cu    0.16667   0.54689   0.16667   0.00000  Uiso   1.00
Cu142  Cu    0.16667   0.45311   0.16667   0.00000  Uiso   1.00
H143   H     0.03728   0.42475   0.16666   0.00000  Uiso   1.00
H144   H     0.29606   0.57525   0.16667   0.00000  Uiso   1.00
H145   H     0.29605   0.42475   0.16667   0.00000  Uiso   1.00
H146   H     0.03728   0.57525   0.16666   0.00000  Uiso   1.00
N147   N     0.16667   0.61736   0.16667   0.00000  Uiso   1.00
N148   N     0.16667   0.38264   0.16667   0.00000  Uiso   1.00
N149   N     0.09075   0.40212   0.07581   0.00000  Uiso   1.00
N150   N     0.24258   0.59788   0.25753   0.00000  Uiso   1.00
N151   N     0.24258   0.40212   0.25753   0.00000  Uiso   1.00
N152   N     0.09075   0.59788   0.07581   0.00000  Uiso   1.00
O153   O     0.10655   0.53958   0.16666   0.00000  Uiso   1.00
O154   O     0.22679   0.46042   0.16667   0.00000  Uiso   1.00
O155   O     0.22679   0.53958   0.16667   0.00000  Uiso   1.00
O156   O     0.10655   0.46042   0.16666   0.00000  Uiso   1.00
O157   O     0.16667   0.53959   0.09613   0.00000  Uiso   1.00
O158   O     0.16667   0.46041   0.23720   0.00000  Uiso   1.00
O159   O     0.16667   0.53959   0.23720   0.00000  Uiso   1.00
O160   O     0.16667   0.46041   0.09613   0.00000  Uiso   1.00
C161   C     0.42076   0.50000   0.16660   0.00000  Uiso   1.00
C162   C     0.35462   0.54222   0.16665   0.00000  Uiso   1.00
C163   C     0.62390   0.50000   0.16672   0.00000  Uiso   1.00
C164   C     0.37610   0.50000   0.16661   0.00000  Uiso   1.00
C165   C     0.47407   0.35813   0.13571   0.00000  Uiso   1.00
C166   C     0.52593   0.64187   0.19763   0.00000  Uiso   1.00
C167   C     0.52593   0.35813   0.19763   0.00000  Uiso   1.00
C168   C     0.47407   0.64187   0.13571   0.00000  Uiso   1.00
C169   C     0.44639   0.38275   0.10255   0.00000  Uiso   1.00
C170   C     0.55361   0.61725   0.23078   0.00000  Uiso   1.00
C171   C     0.55361   0.38275   0.23078   0.00000  Uiso   1.00
C172   C     0.57924   0.50000   0.16673   0.00000  Uiso   1.00
C173   C     0.44639   0.61725   0.10255   0.00000  Uiso   1.00
C174   C     0.49994   0.50000   0.07360   0.00000  Uiso   1.00
C175   C     0.50006   0.50000   0.25973   0.00000  Uiso   1.00
C176   C     0.49998   0.50000   0.02186   0.00000  Uiso   1.00
C177   C     0.50002   0.50000   0.31147   0.00000  Uiso   1.00
C178   C     0.35462   0.45778   0.16665   0.00000  Uiso   1.00
C179   C     0.64538   0.54222   0.16668   0.00000  Uiso   1.00
C180   C     0.64538   0.45778   0.16669   0.00000  Uiso   1.00
Cu181  Cu    0.50000   0.54689   0.16667   0.00000  Uiso   1.00
Cu182  Cu    0.50000   0.45311   0.16667   0.00000  Uiso   1.00
H183   H     0.37061   0.42475   0.16666   0.00000  Uiso   1.00
H184   H     0.62939   0.57525   0.16667   0.00000  Uiso   1.00
H185   H     0.62939   0.42475   0.16667   0.00000  Uiso   1.00
H186   H     0.37061   0.57525   0.16666   0.00000  Uiso   1.00
N187   N     0.50000   0.61736   0.16667   0.00000  Uiso   1.00
N188   N     0.50000   0.38264   0.16667   0.00000  Uiso   1.00
N189   N     0.42409   0.40212   0.07581   0.00000  Uiso   1.00
N190   N     0.57591   0.59788   0.25753   0.00000  Uiso   1.00
N191   N     0.57591   0.40212   0.25753   0.00000  Uiso   1.00
N192   N     0.42409   0.59788   0.07581   0.00000  Uiso   1.00
O193   O     0.43988   0.53958   0.16666   0.00000  Uiso   1.00
O194   O     0.56012   0.46042   0.16667   0.00000  Uiso   1.00
O195   O     0.56012   0.53958   0.16667   0.00000  Uiso   1.00
O196   O     0.43988   0.46042   0.16666   0.00000  Uiso   1.00
O197   O     0.50000   0.53959   0.09613   0.00000  Uiso   1.00
O198   O     0.50000   0.46041   0.23720   0.00000  Uiso   1.00
O199   O     0.50000   0.53959   0.23720   0.00000  Uiso   1.00
O200   O     0.50000   0.46041   0.09613   0.00000  Uiso   1.00
C201   C     0.75409   0.50000   0.16660   0.00000  Uiso   1.00
C202   C     0.68796   0.54222   0.16665   0.00000  Uiso   1.00
C203   C     0.95723   0.50000   0.16672   0.00000  Uiso   1.00
C204   C     0.70944   0.50000   0.16661   0.00000  Uiso   1.00
C205   C     0.80740   0.35813   0.13571   0.00000  Uiso   1.00
C206   C     0.85926   0.64187   0.19763   0.00000  Uiso   1.00
C207   C     0.85926   0.35813   0.19763   0.00000  Uiso   1.00
C208   C     0.80740   0.64187   0.13571   0.00000  Uiso   1.00
C209   C     0.77972   0.38275   0.10255   0.00000  Uiso   1.00
C210   C     0.88694   0.61725   0.23078   0.00000  Uiso   1.00
C211   C     0.88694   0.38275   0.23078   0.00000  Uiso   1.00
C212   C     0.91258   0.50000   0.16673   0.00000  Uiso   1.00
C213   C     0.77972   0.61725   0.10255   0.00000  Uiso   1.00
C214   C     0.83328   0.50000   0.07360   0.00000  Uiso   1.00
C215   C     0.83339   0.50000   0.25973   0.00000  Uiso   1.00
C216   C     0.83331   0.50000   0.02186   0.00000  Uiso   1.00
C217   C     0.83336   0.50000   0.31147   0.00000  Uiso   1.00
C218   C     0.68796   0.45778   0.16665   0.00000  Uiso   1.00
C219   C     0.97871   0.54222   0.16668   0.00000  Uiso   1.00
C220   C     0.97871   0.45778   0.16669   0.00000  Uiso   1.00
Cu221  Cu    0.83333   0.54689   0.16667   0.00000  Uiso   1.00
Cu222  Cu    0.83333   0.45311   0.16667   0.00000  Uiso   1.00
H223   H     0.70394   0.42475   0.16666   0.00000  Uiso   1.00
H224   H     0.96272   0.57525   0.16667   0.00000  Uiso   1.00
H225   H     0.96272   0.42475   0.16667   0.00000  Uiso   1.00
H226   H     0.70394   0.57525   0.16666   0.00000  Uiso   1.00
N227   N     0.83333   0.61736   0.16667   0.00000  Uiso   1.00
N228   N     0.83333   0.38264   0.16667   0.00000  Uiso   1.00
N229   N     0.75742   0.40212   0.07581   0.00000  Uiso   1.00
N230   N     0.90925   0.59788   0.25753   0.00000  Uiso   1.00
N231   N     0.90925   0.40212   0.25753   0.00000  Uiso   1.00
N232   N     0.75742   0.59788   0.07581   0.00000  Uiso   1.00
O233   O     0.77321   0.53958   0.16666   0.00000  Uiso   1.00
O234   O     0.89345   0.46042   0.16667   0.00000  Uiso   1.00
O235   O     0.89345   0.53958   0.16667   0.00000  Uiso   1.00
O236   O     0.77321   0.46042   0.16666   0.00000  Uiso   1.00
O237   O     0.83333   0.53959   0.09613   0.00000  Uiso   1.00
O238   O     0.83333   0.46041   0.23720   0.00000  Uiso   1.00
O239   O     0.83333   0.53959   0.23720   0.00000  Uiso   1.00
O240   O     0.83333   0.46041   0.09613   0.00000  Uiso   1.00
C241   C     0.08742   0.83333   0.16660   0.00000  Uiso   1.00
C242   C     0.02129   0.87556   0.16665   0.00000  Uiso   1.00
C243   C     0.29056   0.83333   0.16672   0.00000  Uiso   1.00
C244   C     0.04277   0.83333   0.16661   0.00000  Uiso   1.00
C245   C     0.14073   0.69146   0.13571   0.00000  Uiso   1.00
C246   C     0.19260   0.97521   0.19763   0.00000  Uiso   1.00
C247   C     0.19260   0.69146   0.19763   0.00000  Uiso   1.00
C248   C     0.14073   0.97521   0.13571   0.00000  Uiso   1.00
C249   C     0.11306   0.71609   0.10255   0.00000  Uiso   1.00
C250   C     0.22027   0.95058   0.23078   0.00000  Uiso   1.00
C251   C     0.22027   0.71609   0.23078   0.00000  Uiso   1.00
C252   C     0.24591   0.83333   0.16673   0.00000  Uiso   1.00
C253   C     0.11306   0.95058   0.10255   0.00000  Uiso   1.00
C254   C     0.16661   0.83333   0.07360   0.00000  Uiso   1.00
C255   C     0.16672   0.83333   0.25973   0.00000  Uiso   1.00
C256   C     0.16664   0.83333   0.02186   0.00000  Uiso   1.00
C257   C     0.16669   0.83333   0.31147   0.00000  Uiso   1.00
C258   C     0.02129   0.79111   0.16665   0.00000  Uiso   1.00
C259   C     0.31204   0.87556   0.16668   0.00000  Uiso   1.00
C260   C     0.31204   0.79111   0.16669   0.00000  Uiso   1.00
Cu261  Cu    0.16667   0.88022   0.16667   0.00000  Uiso   1.00
Cu262  Cu    0.16667   0.78645   0.16667   0.00000  Uiso   1.00
H263   H     0.03728   0.75808   0.16666   0.00000  Uiso   1.00
H264   H     0.29606   0.90859   0.16667   0.00000  Uiso   1.00
H265   H     0.29605   0.75808   0.16667   0.00000  Uiso   1.00
H266   H     0.03728   0.90859   0.16666   0.00000  Uiso   1.00
N267   N     0.16667   0.95069   0.16667   0.00000  Uiso   1.00
N268   N     0.16667   0.71598   0.16667   0.00000  Uiso   1.00
N269   N     0.09075   0.73545   0.07581   0.00000  Uiso   1.00
N270   N     0.24258   0.93122   0.25753   0.00000  Uiso   1.00
N271   N     0.24258   0.73545   0.25753   0.00000  Uiso   1.00
N272   N     0.09075   0.93122   0.07581   0.00000  Uiso   1.00
O273   O     0.10655   0.87291   0.16666   0.00000  Uiso   1.00
O274   O     0.22679   0.79375   0.16667   0.00000  Uiso   1.00
O275   O     0.22679   0.87291   0.16667   0.00000  Uiso   1.00
O276   O     0.10655   0.79375   0.16666   0.00000  Uiso   1.00
O277   O     0.16667   0.87292   0.09613   0.00000  Uiso   1.00
O278   O     0.16667   0.79375   0.23720   0.00000  Uiso   1.00
O279   O     0.16667   0.87292   0.23720   0.00000  Uiso   1.00
O280   O     0.16667   0.79375   0.09613   0.00000  Uiso   1.00
C281   C     0.42076   0.83333   0.16660   0.00000  Uiso   1.00
C282   C     0.35462   0.87556   0.16665   0.00000  Uiso   1.00
C283   C     0.62390   0.83333   0.16672   0.00000  Uiso   1.00
C284   C     0.37610   0.83333   0.16661   0.00000  Uiso   1.00
C285   C     0.47407   0.69146   0.13571   0.00000  Uiso   1.00
C286   C     0.52593   0.97521   0.19763   0.00000  Uiso   1.00
C287   C     0.52593   0.69146   0.19763   0.00000  Uiso   1.00
C288   C     0.47407   0.97521   0.13571   0.00000  Uiso   1.00
C289   C     0.44639   0.71609   0.10255   0.00000  Uiso   1.00
C290   C     0.55361   0.95058   0.23078   0.00000  Uiso   1.00
C291   C     0.55361   0.71609   0.23078   0.00000  Uiso   1.00
C292   C     0.57924   0.83333   0.16673   0.00000  Uiso   1.00
C293   C     0.44639   0.95058   0.10255   0.00000  Uiso   1.00
C294   C     0.49994   0.83333   0.07360   0.00000  Uiso   1.00
C295   C     0.50006   0.83333   0.25973   0.00000  Uiso   1.00
C296   C     0.49998   0.83333   0.02186   0.00000  Uiso   1.00
C297   C     0.50002   0.83333   0.31147   0.00000  Uiso   1.00
C298   C     0.35462   0.79111   0.16665   0.00000  Uiso   1.00
C299   C     0.64538   0.87556   0.16668   0.00000  Uiso   1.00
C300   C     0.64538   0.79111   0.16669   0.00000  Uiso   1.00
Cu301  Cu    0.50000   0.88022   0.16667   0.00000  Uiso   1.00
Cu302  Cu    0.50000   0.78645   0.16667   0.00000  Uiso   1.00
H303   H     0.37061   0.75808   0.16666   0.00000  Uiso   1.00
H304   H     0.62939   0.90859   0.16667   0.00000  Uiso   1.00
H305   H     0.62939   0.75808   0.16667   0.00000  Uiso   1.00
H306   H     0.37061   0.90859   0.16666   0.00000  Uiso   1.00
N307   N     0.50000   0.95069   0.16667   0.00000  Uiso   1.00
N308   N     0.50000   0.71598   0.16667   0.00000  Uiso   1.00
N309   N     0.42409   0.73545   0.07581   0.00000  Uiso   1.00
N310   N     0.57591   0.93122   0.25753   0.00000  Uiso   1.00
N311   N     0.57591   0.73545   0.25753   0.00000  Uiso   1.00
N312   N     0.42409   0.93122   0.07581   0.00000  Uiso   1.00
O313   O     0.43988   0.87291   0.16666   0.00000  Uiso   1.00
O314   O     0.56012   0.79375   0.16667   0.00000  Uiso   1.00
O315   O     0.56012   0.87291   0.16667   0.00000  Uiso   1.00
O316   O     0.43988   0.79375   0.16666   0.00000  Uiso   1.00
O317   O     0.50000   0.87292   0.09613   0.00000  Uiso   1.00
O318   O     0.50000   0.79375   0.23720   0.00000  Uiso   1.00
O319   O     0.50000   0.87292   0.23720   0.00000  Uiso   1.00
O320   O     0.50000   0.79375   0.09613   0.00000  Uiso   1.00
C321   C     0.75409   0.83333   0.16660   0.00000  Uiso   1.00
C322   C     0.68796   0.87556   0.16665   0.00000  Uiso   1.00
C323   C     0.95723   0.83333   0.16672   0.00000  Uiso   1.00
C324   C     0.70944   0.83333   0.16661   0.00000  Uiso   1.00
C325   C     0.80740   0.69146   0.13571   0.00000  Uiso   1.00
C326   C     0.85926   0.97521   0.19763   0.00000  Uiso   1.00
C327   C     0.85926   0.69146   0.19763   0.00000  Uiso   1.00
C328   C     0.80740   0.97521   0.13571   0.00000  Uiso   1.00
C329   C     0.77972   0.71609   0.10255   0.00000  Uiso   1.00
C330   C     0.88694   0.95058   0.23078   0.00000  Uiso   1.00
C331   C     0.88694   0.71609   0.23078   0.00000  Uiso   1.00
C332   C     0.91258   0.83333   0.16673   0.00000  Uiso   1.00
C333   C     0.77972   0.95058   0.10255   0.00000  Uiso   1.00
C334   C     0.83328   0.83333   0.07360   0.00000  Uiso   1.00
C335   C     0.83339   0.83333   0.25973   0.00000  Uiso   1.00
C336   C     0.83331   0.83333   0.02186   0.00000  Uiso   1.00
C337   C     0.83336   0.83333   0.31147   0.00000  Uiso   1.00
C338   C     0.68796   0.79111   0.16665   0.00000  Uiso   1.00
C339   C     0.97871   0.87556   0.16668   0.00000  Uiso   1.00
C340   C     0.97871   0.79111   0.16669   0.00000  Uiso   1.00
Cu341  Cu    0.83333   0.88022   0.16667   0.00000  Uiso   1.00
Cu342  Cu    0.83333   0.78645   0.16667   0.00000  Uiso   1.00
H343   H     0.70394   0.75808   0.16666   0.00000  Uiso   1.00
H344   H     0.96272   0.90859   0.16667   0.00000  Uiso   1.00
H345   H     0.96272   0.75808   0.16667   0.00000  Uiso   1.00
H346   H     0.70394   0.90859   0.16666   0.00000  Uiso   1.00
N347   N     0.83333   0.95069   0.16667   0.00000  Uiso   1.00
N348   N     0.83333   0.71598   0.16667   0.00000  Uiso   1.00
N349   N     0.75742   0.73545   0.07581   0.00000  Uiso   1.00
N350   N     0.90925   0.93122   0.25753   0.00000  Uiso   1.00
N351   N     0.90925   0.73545   0.25753   0.00000  Uiso   1.00
N352   N     0.75742   0.93122   0.07581   0.00000  Uiso   1.00
O353   O     0.77321   0.87291   0.16666   0.00000  Uiso   1.00
O354   O     0.89345   0.79375   0.16667   0.00000  Uiso   1.00
O355   O     0.89345   0.87291   0.16667   0.00000  Uiso   1.00
O356   O     0.77321   0.79375   0.16666   0.00000  Uiso   1.00
O357   O     0.83333   0.87292   0.09613   0.00000  Uiso   1.00
O358   O     0.83333   0.79375   0.23720   0.00000  Uiso   1.00
O359   O     0.83333   0.87292   0.23720   0.00000  Uiso   1.00
O360   O     0.83333   0.79375   0.09613   0.00000  Uiso   1.00
C361   C     0.08742   0.16667   0.49994   0.00000  Uiso   1.00
C362   C     0.02129   0.20889   0.49998   0.00000  Uiso   1.00
C363   C     0.29056   0.16667   0.50005   0.00000  Uiso   1.00
C364   C     0.04277   0.16667   0.49995   0.00000  Uiso   1.00
C365   C     0.14073   0.02479   0.46904   0.00000  Uiso   1.00
C366   C     0.19260   0.30854   0.53096   0.00000  Uiso   1.00
C367   C     0.19260   0.02479   0.53096   0.00000  Uiso   1.00
C368   C     0.14073   0.30854   0.46904   0.00000  Uiso   1.00
C369   C     0.11306   0.04942   0.43589   0.00000  Uiso   1.00
C370   C     0.22027   0.28391   0.56411   0.00000  Uiso   1.00
C371   C     0.22027   0.04942   0.56411   0.00000  Uiso   1.00
C372   C     0.24591   0.16667   0.50006   0.00000  Uiso   1.00
C373   C     0.11306   0.28391   0.43589   0.00000  Uiso   1.00
C374   C     0.16661   0.16667   0.40694   0.00000  Uiso   1.00
C375   C     0.16672   0.16667   0.59306   0.00000  Uiso   1.00
C376   C     0.16664   0.16667   0.35519   0.00000  Uiso   1.00
C377   C     0.16669   0.16667   0.64481   0.00000  Uiso   1.00
C378   C     0.02129   0.12444   0.49998   0.00000  Uiso   1.00
C379   C     0.31204   0.20889   0.50002   0.00000  Uiso   1.00
C380   C     0.31204   0.12444   0.50002   0.00000  Uiso   1.00
Cu381  Cu    0.16667   0.21355   0.50000   0.00000  Uiso   1.00
Cu382  Cu    0.16667   0.11978   0.50000   0.00000  Uiso   1.00
H383   H     0.03728   0.09141   0.50000   0.00000  Uiso   1.00
H384   H     0.29606   0.24192   0.50000   0.00000  Uiso   1.00
H385   H     0.29605   0.09141   0.50000   0.00000  Uiso   1.00
H386   H     0.03728   0.24192   0.50000   0.00000  Uiso   1.00
N387   N     0.16667   0.28402   0.50000   0.00000  Uiso   1.00
N388   N     0.16667   0.04931   0.50000   0.00000  Uiso   1.00
N389   N     0.09075   0.06878   0.40914   0.00000  Uiso   1.00
N390   N     0.24258   0.26455   0.59086   0.00000  Uiso   1.00
N391   N     0.24258   0.06878   0.59086   0.00000  Uiso   1.00
N392   N     0.09075   0.26455   0.40914   0.00000  Uiso   1.00
O393   O     0.10655   0.20625   0.50000   0.00000  Uiso   1.00
O394   O     0.22679   0.12709   0.50000   0.00000  Uiso   1.00
O395   O     0.22679   0.20625   0.50000   0.00000  Uiso   1.00
O396   O     0.10655   0.12709   0.50000   0.00000  Uiso   1.00
O397   O     0.16667   0.20625   0.42946   0.00000  Uiso   1.00
O398   O     0.16667   0.12708   0.57054   0.00000  Uiso   1.00
O399   O     0.16667   0.20625   0.57054   0.00000  Uiso   1.00
O400   O     0.16667   0.12708   0.42946   0.00000  Uiso   1.00
C401   C     0.42076   0.16667   0.49994   0.00000  Uiso   1.00
C402   C     0.35462   0.20889   0.49998   0.00000  Uiso   1.00
C403   C     0.62390   0.16667   0.50005   0.00000  Uiso   1.00
C404   C     0.37610   0.16667   0.49995   0.00000  Uiso   1.00
C405   C     0.47407   0.02479   0.46904   0.00000  Uiso   1.00
C406   C     0.52593   0.30854   0.53096   0.00000  Uiso   1.00
C407   C     0.52593   0.02479   0.53096   0.00000  Uiso   1.00
C408   C     0.47407   0.30854   0.46904   0.00000  Uiso   1.00
C409   C     0.44639   0.04942   0.43589   0.00000  Uiso   1.00
C410   C     0.55361   0.28391   0.56411   0.00000  Uiso   1.00
C411   C     0.55361   0.04942   0.56411   0.00000  Uiso   1.00
C412   C     0.57924   0.16667   0.50006   0.00000  Uiso   1.00
C413   C     0.44639   0.28391   0.43589   0.00000  Uiso   1.00
C414   C     0.49994   0.16667   0.40694   0.00000  Uiso   1.00
C415   C     0.50006   0.16667   0.59306   0.00000  Uiso   1.00
C416   C     0.49998   0.16667   0.35519   0.00000  Uiso   1.00
C417   C     0.50002   0.16667   0.64481   0.00000  Uiso   1.00
C418   C     0.35462   0.12444   0.49998   0.00000  Uiso   1.00
C419   C     0.64538   0.20889   0.50002   0.00000  Uiso   1.00
C420   C     0.64538   0.12444   0.50002   0.00000  Uiso   1.00
Cu421  Cu    0.50000   0.21355   0.50000   0.00000  Uiso   1.00
Cu422  Cu    0.50000   0.11978   0.50000   0.00000  Uiso   1.00
H423   H     0.37061   0.09141   0.50000   0.00000  Uiso   1.00
H424   H     0.62939   0.24192   0.50000   0.00000  Uiso   1.00
H425   H     0.62939   0.09141   0.50000   0.00000  Uiso   1.00
H426   H     0.37061   0.24192   0.50000   0.00000  Uiso   1.00
N427   N     0.50000   0.28402   0.50000   0.00000  Uiso   1.00
N428   N     0.50000   0.04931   0.50000   0.00000  Uiso   1.00
N429   N     0.42409   0.06878   0.40914   0.00000  Uiso   1.00
N430   N     0.57591   0.26455   0.59086   0.00000  Uiso   1.00
N431   N     0.57591   0.06878   0.59086   0.00000  Uiso   1.00
N432   N     0.42409   0.26455   0.40914   0.00000  Uiso   1.00
O433   O     0.43988   0.20625   0.50000   0.00000  Uiso   1.00
O434   O     0.56012   0.12709   0.50000   0.00000  Uiso   1.00
O435   O     0.56012   0.20625   0.50000   0.00000  Uiso   1.00
O436   O     0.43988   0.12709   0.50000   0.00000  Uiso   1.00
O437   O     0.50000   0.20625   0.42946   0.00000  Uiso   1.00
O438   O     0.50000   0.12708   0.57054   0.00000  Uiso   1.00
O439   O     0.50000   0.20625   0.57054   0.00000  Uiso   1.00
O440   O     0.50000   0.12708   0.42946   0.00000  Uiso   1.00
C441   C     0.75409   0.16667   0.49994   0.00000  Uiso   1.00
C442   C     0.68796   0.20889   0.49998   0.00000  Uiso   1.00
C443   C     0.95723   0.16667   0.50005   0.00000  Uiso   1.00
C444   C     0.70944   0.16667   0.49995   0.00000  Uiso   1.00
C445   C     0.80740   0.02479   0.46904   0.00000  Uiso   1.00
C446   C     0.85926   0.30854   0.53096   0.00000  Uiso   1.00
C447   C     0.85926   0.02479   0.53096   0.00000  Uiso   1.00
C448   C     0.80740   0.30854   0.46904   0.00000  Uiso   1.00
C449   C     0.77972   0.04942   0.43589   0.00000  Uiso   1.00
C450   C     0.88694   0.28391   0.56411   0.00000  Uiso   1.00
C451   C     0.88694   0.04942   0.56411   0.00000  Uiso   1.00
C452   C     0.91258   0.16667   0.50006   0.00000  Uiso   1.00
C453   C     0.77972   0.28391   0.43589   0.00000  Uiso   1.00
C454   C     0.83328   0.16667   0.40694   0.00000  Uiso   1.00
C455   C     0.83339   0.16667   0.59306   0.00000  Uiso   1.00
C456   C     0.83331   0.16667   0.35519   0.00000  Uiso   1.00
C457   C     0.83336   0.16667   0.64481   0.00000  Uiso   1.00
C458   C     0.68796   0.12444   0.49998   0.00000  Uiso   1.00
C459   C     0.97871   0.20889   0.50002   0.00000  Uiso   1.00
C460   C     0.97871   0.12444   0.50002   0.00000  Uiso   1.00
Cu461  Cu    0.83333   0.21355   0.50000   0.00000  Uiso   1.00
Cu462  Cu    0.83333   0.11978   0.50000   0.00000  Uiso   1.00
H463   H     0.70394   0.09141   0.50000   0.00000  Uiso   1.00
H464   H     0.96272   0.24192   0.50000   0.00000  Uiso   1.00
H465   H     0.96272   0.09141   0.50000   0.00000  Uiso   1.00
H466   H     0.70394   0.24192   0.50000   0.00000  Uiso   1.00
N467   N     0.83333   0.28402   0.50000   0.00000  Uiso   1.00
N468   N     0.83333   0.04931   0.50000   0.00000  Uiso   1.00
N469   N     0.75742   0.06878   0.40914   0.00000  Uiso   1.00
N470   N     0.90925   0.26455   0.59086   0.00000  Uiso   1.00
N471   N     0.90925   0.06878   0.59086   0.00000  Uiso   1.00
N472   N     0.75742   0.26455   0.40914   0.00000  Uiso   1.00
O473   O     0.77321   0.20625   0.50000   0.00000  Uiso   1.00
O474   O     0.89345   0.12709   0.50000   0.00000  Uiso   1.00
O475   O     0.89345   0.20625   0.50000   0.00000  Uiso   1.00
O476   O     0.77321   0.12709   0.50000   0.00000  Uiso   1.00
O477   O     0.83333   0.20625   0.42946   0.00000  Uiso   1.00
O478   O     0.83333   0.12708   0.57054   0.00000  Uiso   1.00
O479   O     0.83333   0.20625   0.57054   0.00000  Uiso   1.00
O480   O     0.83333   0.12708   0.42946   0.00000  Uiso   1.00
C481   C     0.08742   0.50000   0.49994   0.00000  Uiso   1.00
C482   C     0.02129   0.54222   0.49998   0.00000  Uiso   1.00
C483   C     0.29056   0.50000   0.50005   0.00000  Uiso   1.00
C484   C     0.04277   0.50000   0.49995   0.00000  Uiso   1.00
C485   C     0.14073   0.35813   0.46904   0.00000  Uiso   1.00
C486   C     0.19260   0.64187   0.53096   0.00000  Uiso   1.00
C487   C     0.19260   0.35813   0.53096   0.00000  Uiso   1.00
C488   C     0.14073   0.64187   0.46904   0.00000  Uiso   1.00
C489   C     0.11306   0.38275   0.43589   0.00000  Uiso   1.00
C490   C     0.22027   0.61725   0.56411   0.00000  Uiso   1.00
C491   C     0.22027   0.38275   0.56411   0.00000  Uiso   1.00
C492   C     0.24591   0.50000   0.50006   0.00000  Uiso   1.00
C493   C     0.11306   0.61725   0.43589   0.00000  Uiso   1.00
C494   C     0.16661   0.50000   0.40694   0.00000  Uiso   1.00
C495   C     0.16672   0.50000   0.59306   0.00000  Uiso   1.00
C496   C     0.16664   0.50000   0.35519   0.00000  Uiso   1.00
C497   C     0.16669   0.50000   0.64481   0.00000  Uiso   1.00
C498   C     0.02129   0.45778   0.49998   0.00000  Uiso   1.00
C499   C     0.31204   0.54222   0.50002   0.00000  Uiso   1.00
C500   C     0.31204   0.45778   0.50002   0.00000  Uiso   1.00
Cu501  Cu    0.16667   0.54689   0.50000   0.00000  Uiso   1.00
Cu502  Cu    0.16667   0.45311   0.50000   0.00000  Uiso   1.00
H503   H     0.03728   0.42475   0.50000   0.00000  Uiso   1.00
H504   H     0.29606   0.57525   0.50000   0.00000  Uiso   1.00
H505   H     0.29605   0.42475   0.50000   0.00000  Uiso   1.00
H506   H     0.03728   0.57525   0.50000   0.00000  Uiso   1.00
N507   N     0.16667   0.61736   0.50000   0.00000  Uiso   1.00
N508   N     0.16667   0.38264   0.50000   0.00000  Uiso   1.00
N509   N     0.09075   0.40212   0.40914   0.00000  Uiso   1.00
N510   N     0.24258   0.59788   0.59086   0.00000  Uiso   1.00
N511   N     0.24258   0.40212   0.59086   0.00000  Uiso   1.00
N512   N     0.09075   0.59788   0.40914   0.00000  Uiso   1.00
O513   O     0.10655   0.53958   0.50000   0.00000  Uiso   1.00
O514   O     0.22679   0.46042   0.50000   0.00000  Uiso   1.00
O515   O     0.22679   0.53958   0.50000   0.00000  Uiso   1.00
O516   O     0.10655   0.46042   0.50000   0.00000  Uiso   1.00
O517   O     0.16667   0.53959   0.42946   0.00000  Uiso   1.00
O518   O     0.16667   0.46041   0.57054   0.00000  Uiso   1.00
O519   O     0.16667   0.53959   0.57054   0.00000  Uiso   1.00
O520   O     0.16667   0.46041   0.42946   0.00000  Uiso   1.00
C521   C     0.42076   0.50000   0.49994   0.00000  Uiso   1.00
C522   C     0.35462   0.54222   0.49998   0.00000  Uiso   1.00
C523   C     0.62390   0.50000   0.50005   0.00000  Uiso   1.00
C524   C     0.37610   0.50000   0.49995   0.00000  Uiso   1.00
C525   C     0.47407   0.35813   0.46904   0.00000  Uiso   1.00
C526   C     0.52593   0.64187   0.53096   0.00000  Uiso   1.00
C527   C     0.52593   0.35813   0.53096   0.00000  Uiso   1.00
C528   C     0.47407   0.64187   0.46904   0.00000  Uiso   1.00
C529   C     0.44639   0.38275   0.43589   0.00000  Uiso   1.00
C530   C     0.55361   0.61725   0.56411   0.00000  Uiso   1.00
C531   C     0.55361   0.38275   0.56411   0.00000  Uiso   1.00
C532   C     0.57924   0.50000   0.50006   0.00000  Uiso   1.00
C533   C     0.44639   0.61725   0.43589   0.00000  Uiso   1.00
C534   C     0.49994   0.50000   0.40694   0.00000  Uiso   1.00
C535   C     0.50006   0.50000   0.59306   0.00000  Uiso   1.00
C536   C     0.49998   0.50000   0.35519   0.00000  Uiso   1.00
C537   C     0.50002   0.50000   0.64481   0.00000  Uiso   1.00
C538   C     0.35462   0.45778   0.49998   0.00000  Uiso   1.00
C539   C     0.64538   0.54222   0.50002   0.00000  Uiso   1.00
C540   C     0.64538   0.45778   0.50002   0.00000  Uiso   1.00
Cu541  Cu    0.50000   0.54689   0.50000   0.00000  Uiso   1.00
Cu542  Cu    0.50000   0.45311   0.50000   0.00000  Uiso   1.00
H543   H     0.37061   0.42475   0.50000   0.00000  Uiso   1.00
H544   H     0.62939   0.57525   0.50000   0.00000  Uiso   1.00
H545   H     0.62939   0.42475   0.50000   0.00000  Uiso   1.00
H546   H     0.37061   0.57525   0.50000   0.00000  Uiso   1.00
N547   N     0.50000   0.61736   0.50000   0.00000  Uiso   1.00
N548   N     0.50000   0.38264   0.50000   0.00000  Uiso   1.00
N549   N     0.42409   0.40212   0.40914   0.00000  Uiso   1.00
N550   N     0.57591   0.59788   0.59086   0.00000  Uiso   1.00
N551   N     0.57591   0.40212   0.59086   0.00000  Uiso   1.00
N552   N     0.42409   0.59788   0.40914   0.00000  Uiso   1.00
O553   O     0.43988   0.53958   0.50000   0.00000  Uiso   1.00
O554   O     0.56012   0.46042   0.50000   0.00000  Uiso   1.00
O555   O     0.56012   0.53958   0.50000   0.00000  Uiso   1.00
O556   O     0.43988   0.46042   0.50000   0.00000  Uiso   1.00
O557   O     0.50000   0.53959   0.42946   0.00000  Uiso   1.00
O558   O     0.50000   0.46041   0.57054   0.00000  Uiso   1.00
O559   O     0.50000   0.53959   0.57054   0.00000  Uiso   1.00
O560   O     0.50000   0.46041   0.42946   0.00000  Uiso   1.00
C561   C     0.75409   0.50000   0.49994   0.00000  Uiso   1.00
C562   C     0.68796   0.54222   0.49998   0.00000  Uiso   1.00
C563   C     0.95723   0.50000   0.50005   0.00000  Uiso   1.00
C564   C     0.70944   0.50000   0.49995   0.00000  Uiso   1.00
C565   C     0.80740   0.35813   0.46904   0.00000  Uiso   1.00
C566   C     0.85926   0.64187   0.53096   0.00000  Uiso   1.00
C567   C     0.85926   0.35813   0.53096   0.00000  Uiso   1.00
C568   C     0.80740   0.64187   0.46904   0.00000  Uiso   1.00
C569   C     0.77972   0.38275   0.43589   0.00000  Uiso   1.00
C570   C     0.88694   0.61725   0.56411   0.00000  Uiso   1.00
C571   C     0.88694   0.38275   0.56411   0.00000  Uiso   1.00
C572   C     0.91258   0.50000   0.50006   0.00000  Uiso   1.00
C573   C     0.77972   0.61725   0.43589   0.00000  Uiso   1.00
C574   C     0.83328   0.50000   0.40694   0.00000  Uiso   1.00
C575   C     0.83339   0.50000   0.59306   0.00000  Uiso   1.00
C576   C     0.83331   0.50000   0.35519   0.00000  Uiso   1.00
C577   C     0.83336   0.50000   0.64481   0.00000  Uiso   1.00
C578   C     0.68796   0.45778   0.49998   0.00000  Uiso   1.00
C579   C     0.97871   0.54222   0.50002   0.00000  Uiso   1.00
C580   C     0.97871   0.45778   0.50002   0.00000  Uiso   1.00
Cu581  Cu    0.83333   0.54689   0.50000   0.00000  Uiso   1.00
Cu582  Cu    0.83333   0.45311   0.50000   0.00000  Uiso   1.00
H583   H     0.70394   0.42475   0.50000   0.00000  Uiso   1.00
H584   H     0.96272   0.57525   0.50000   0.00000  Uiso   1.00
H585   H     0.96272   0.42475   0.50000   0.00000  Uiso   1.00
H586   H     0.70394   0.57525   0.50000   0.00000  Uiso   1.00
N587   N     0.83333   0.61736   0.50000   0.00000  Uiso   1.00
N588   N     0.83333   0.38264   0.50000   0.00000  Uiso   1.00
N589   N     0.75742   0.40212   0.40914   0.00000  Uiso   1.00
N590   N     0.90925   0.59788   0.59086   0.00000  Uiso   1.00
N591   N     0.90925   0.40212   0.59086   0.00000  Uiso   1.00
N592   N     0.75742   0.59788   0.40914   0.00000  Uiso   1.00
O593   O     0.77321   0.53958   0.50000   0.00000  Uiso   1.00
O594   O     0.89345   0.46042   0.50000   0.00000  Uiso   1.00
O595   O     0.89345   0.53958   0.50000   0.00000  Uiso   1.00
O596   O     0.77321   0.46042   0.50000   0.00000  Uiso   1.00
O597   O     0.83333   0.53959   0.42946   0.00000  Uiso   1.00
O598   O     0.83333   0.46041   0.57054   0.00000  Uiso   1.00
O599   O     0.83333   0.53959   0.57054   0.00000  Uiso   1.00
O600   O     0.83333   0.46041   0.42946   0.00000  Uiso   1.00
C601   C     0.08742   0.83333   0.49994   0.00000  Uiso   1.00
C602   C     0.02129   0.87556   0.49998   0.00000  Uiso   1.00
C603   C     0.29056   0.83333   0.50005   0.00000  Uiso   1.00
C604   C     0.04277   0.83333   0.49995   0.00000  Uiso   1.00
C605   C     0.14073   0.69146   0.46904   0.00000  Uiso   1.00
C606   C     0.19260   0.97521   0.53096   0.00000  Uiso   1.00
C607   C     0.19260   0.69146   0.53096   0.00000  Uiso   1.00
C608   C     0.14073   0.97521   0.46904   0.00000  Uiso   1.00
C609   C     0.11306   0.71609   0.43589   0.00000  Uiso   1.00
C610   C     0.22027   0.95058   0.56411   0.00000  Uiso   1.00
C611   C     0.22027   0.71609   0.56411   0.00000  Uiso   1.00
C612   C     0.24591   0.83333   0.50006   0.00000  Uiso   1.00
C613   C     0.11306   0.95058   0.43589   0.00000  Uiso   1.00
C614   C     0.16661   0.83333   0.40694   0.00000  Uiso   1.00
C615   C     0.16672   0.83333   0.59306   0.00000  Uiso   1.00
C616   C     0.16664   0.83333   0.35519   0.00000  Uiso   1.00
C617   C     0.16669   0.83333   0.64481   0.00000  Uiso   1.00
C618   C     0.02129   0.79111   0.49998   0.00000  Uiso   1.00
C619   C     0.31204   0.87556   0.50002   0.00000  Uiso   1.00
C620   C     0.31204   0.79111   0.50002   0.00000  Uiso   1.00
Cu621  Cu    0.16667   0.88022   0.50000   0.00000  Uiso   1.00
Cu622  Cu    0.16667   0.78645   0.50000   0.00000  Uiso   1.00
H623   H     0.03728   0.75808   0.50000   0.00000  Uiso   1.00
H624   H     0.29606   0.90859   0.50000   0.00000  Uiso   1.00
H625   H     0.29605   0.75808   0.50000   0.00000  Uiso   1.00
H626   H     0.03728   0.90859   0.50000   0.00000  Uiso   1.00
N627   N     0.16667   0.95069   0.50000   0.00000  Uiso   1.00
N628   N     0.16667   0.71598   0.50000   0.00000  Uiso   1.00
N629   N     0.09075   0.73545   0.40914   0.00000  Uiso   1.00
N630   N     0.24258   0.93122   0.59086   0.00000  Uiso   1.00
N631   N     0.24258   0.73545   0.59086   0.00000  Uiso   1.00
N632   N     0.09075   0.93122   0.40914   0.00000  Uiso   1.00
O633   O     0.10655   0.87291   0.50000   0.00000  Uiso   1.00
O634   O     0.22679   0.79375   0.50000   0.00000  Uiso   1.00
O635   O     0.22679   0.87291   0.50000   0.00000  Uiso   1.00
O636   O     0.10655   0.79375   0.50000   0.00000  Uiso   1.00
O637   O     0.16667   0.87292   0.42946   0.00000  Uiso   1.00
O638   O     0.16667   0.79375   0.57054   0.00000  Uiso   1.00
O639   O     0.16667   0.87292   0.57054   0.00000  Uiso   1.00
O640   O     0.16667   0.79375   0.42946   0.00000  Uiso   1.00
C641   C     0.42076   0.83333   0.49994   0.00000  Uiso   1.00
C642   C     0.35462   0.87556   0.49998   0.00000  Uiso   1.00
C643   C     0.62390   0.83333   0.50005   0.00000  Uiso   1.00
C644   C     0.37610   0.83333   0.49995   0.00000  Uiso   1.00
C645   C     0.47407   0.69146   0.46904   0.00000  Uiso   1.00
C646   C     0.52593   0.97521   0.53096   0.00000  Uiso   1.00
C647   C     0.52593   0.69146   0.53096   0.00000  Uiso   1.00
C648   C     0.47407   0.97521   0.46904   0.00000  Uiso   1.00
C649   C     0.44639   0.71609   0.43589   0.00000  Uiso   1.00
C650   C     0.55361   0.95058   0.56411   0.00000  Uiso   1.00
C651   C     0.55361   0.71609   0.56411   0.00000  Uiso   1.00
C652   C     0.57924   0.83333   0.50006   0.00000  Uiso   1.00
C653   C     0.44639   0.95058   0.43589   0.00000  Uiso   1.00
C654   C     0.49994   0.83333   0.40694   0.00000  Uiso   1.00
C655   C     0.50006   0.83333   0.59306   0.00000  Uiso   1.00
C656   C     0.49998   0.83333   0.35519   0.00000  Uiso   1.00
C657   C     0.50002   0.83333   0.64481   0.00000  Uiso   1.00
C658   C     0.35462   0.79111   0.49998   0.00000  Uiso   1.00
C659   C     0.64538   0.87556   0.50002   0.00000  Uiso   1.00
C660   C     0.64538   0.79111   0.50002   0.00000  Uiso   1.00
Cu661  Cu    0.50000   0.88022   0.50000   0.00000  Uiso   1.00
Cu662  Cu    0.50000   0.78645   0.50000   0.00000  Uiso   1.00
H663   H     0.37061   0.75808   0.50000   0.00000  Uiso   1.00
H664   H     0.62939   0.90859   0.50000   0.00000  Uiso   1.00
H665   H     0.62939   0.75808   0.50000   0.00000  Uiso   1.00
H666   H     0.37061   0.90859   0.50000   0.00000  Uiso   1.00
N667   N     0.50000   0.95069   0.50000   0.00000  Uiso   1.00
N668   N     0.50000   0.71598   0.50000   0.00000  Uiso   1.00
N669   N     0.42409   0.73545   0.40914   0.00000  Uiso   1.00
N670   N     0.57591   0.93122   0.59086   0.00000  Uiso   1.00
N671   N     0.57591   0.73545   0.59086   0.00000  Uiso   1.00
N672   N     0.42409   0.93122   0.40914   0.00000  Uiso   1.00
O673   O     0.43988   0.87291   0.50000   0.00000  Uiso   1.00
O674   O     0.56012   0.79375   0.50000   0.00000  Uiso   1.00
O675   O     0.56012   0.87291   0.50000   0.00000  Uiso   1.00
O676   O     0.43988   0.79375   0.50000   0.00000  Uiso   1.00
O677   O     0.50000   0.87292   0.42946   0.00000  Uiso   1.00
O678   O     0.50000   0.79375   0.57054   0.00000  Uiso   1.00
O679   O     0.50000   0.87292   0.57054   0.00000  Uiso   1.00
O680   O     0.50000   0.79375   0.42946   0.00000  Uiso   1.00
C681   C     0.75409   0.83333   0.49994   0.00000  Uiso   1.00
C682   C     0.68796   0.87556   0.49998   0.00000  Uiso   1.00
C683   C     0.95723   0.83333   0.50005   0.00000  Uiso   1.00
C684   C     0.70944   0.83333   0.49995   0.00000  Uiso   1.00
C685   C     0.80740   0.69146   0.46904   0.00000  Uiso   1.00
C686   C     0.85926   0.97521   0.53096   0.00000  Uiso   1.00
C687   C     0.85926   0.69146   0.53096   0.00000  Uiso   1.00
C688   C     0.80740   0.97521   0.46904   0.00000  Uiso   1.00
C689   C     0.77972   0.71609   0.43589   0.00000  Uiso   1.00
C690   C     0.88694   0.95058   0.56411   0.00000  Uiso   1.00
C691   C     0.88694   0.71609   0.56411   0.00000  Uiso   1.00
C692   C     0.91258   0.83333   0.50006   0.00000  Uiso   1.00
C693   C     0.77972   0.95058   0.43589   0.00000  Uiso   1.00
C694   C     0.83328   0.83333   0.40694   0.00000  Uiso   1.00
C695   C     0.83339   0.83333   0.59306   0.00000  Uiso   1.00
C696   C     0.83331   0.83333   0.35519   0.00000  Uiso   1.00
C697   C     0.83336   0.83333   0.64481   0.00000  Uiso   1.00
C698   C     0.68796   0.79111   0.49998   0.00000  Uiso   1.00
C699   C     0.97871   0.87556   0.50002   0.00000  Uiso   1.00
C700   C     0.97871   0.79111   0.50002   0.00000  Uiso   1.00
Cu701  Cu    0.83333   0.88022   0.50000   0.00000  Uiso   1.00
Cu702  Cu    0.83333   0.78645   0.50000   0.00000  Uiso   1.00
H703   H     0.70394   0.75808   0.50000   0.00000  Uiso   1.00
H704   H     0.96272   0.90859   0.50000   0.00000  Uiso   1.00
H705   H     0.96272   0.75808   0.50000   0.00000  Uiso   1.00
H706   H     0.70394   0.90859   0.50000   0.00000  Uiso   1.00
N707   N     0.83333   0.95069   0.50000   0.00000  Uiso   1.00
N708   N     0.83333   0.71598   0.50000   0.00000  Uiso   1.00
N709   N     0.75742   0.73545   0.40914   0.00000  Uiso   1.00
N710   N     0.90925   0.93122   0.59086   0.00000  Uiso   1.00
N711   N     0.90925   0.73545   0.59086   0.00000  Uiso   1.00
N712   N     0.75742   0.93122   0.40914   0.00000  Uiso   1.00
O713   O     0.77321   0.87291   0.50000   0.00000  Uiso   1.00
O714   O     0.89345   0.79375   0.50000   0.00000  Uiso   1.00
O715   O     0.89345   0.87291   0.50000   0.00000  Uiso   1.00
O716   O     0.77321   0.79375   0.50000   0.00000  Uiso   1.00
O717   O     0.83333   0.87292   0.42946   0.00000  Uiso   1.00
O718   O     0.83333   0.79375   0.57054   0.00000  Uiso   1.00
O719   O     0.83333   0.87292   0.57054   0.00000  Uiso   1.00
O720   O     0.83333   0.79375   0.42946   0.00000  Uiso   1.00
C721   C     0.08742   0.16667   0.83327   0.00000  Uiso   1.00
C722   C     0.02129   0.20889   0.83331   0.00000  Uiso   1.00
C723   C     0.29056   0.16667   0.83339   0.00000  Uiso   1.00
C724   C     0.04277   0.16667   0.83328   0.00000  Uiso   1.00
C725   C     0.14073   0.02479   0.80237   0.00000  Uiso   1.00
C726   C     0.19260   0.30854   0.86429   0.00000  Uiso   1.00
C727   C     0.19260   0.02479   0.86429   0.00000  Uiso   1.00
C728   C     0.14073   0.30854   0.80237   0.00000  Uiso   1.00
C729   C     0.11306   0.04942   0.76922   0.00000  Uiso   1.00
C730   C     0.22027   0.28391   0.89745   0.00000  Uiso   1.00
C731   C     0.22027   0.04942   0.89745   0.00000  Uiso   1.00
C732   C     0.24591   0.16667   0.83340   0.00000  Uiso   1.00
C733   C     0.11306   0.28391   0.76922   0.00000  Uiso   1.00
C734   C     0.16661   0.16667   0.74027   0.00000  Uiso   1.00
C735   C     0.16672   0.16667   0.92640   0.00000  Uiso   1.00
C736   C     0.16664   0.16667   0.68853   0.00000  Uiso   1.00
C737   C     0.16669   0.16667   0.97814   0.00000  Uiso   1.00
C738   C     0.02129   0.12444   0.83332   0.00000  Uiso   1.00
C739   C     0.31204   0.20889   0.83335   0.00000  Uiso   1.00
C740   C     0.31204   0.12444   0.83335   0.00000  Uiso   1.00
Cu741  Cu    0.16667   0.21355   0.83333   0.00000  Uiso   1.00
Cu742  Cu    0.16667   0.11978   0.83333   0.00000  Uiso   1.00
H743   H     0.03728   0.09141   0.83333   0.00000  Uiso   1.00
H744   H     0.29606   0.24192   0.83333   0.00000  Uiso   1.00
H745   H     0.29605   0.09141   0.83334   0.00000  Uiso   1.00
H746   H     0.03728   0.24192   0.83333   0.00000  Uiso   1.00
N747   N     0.16667   0.28402   0.83333   0.00000  Uiso   1.00
N748   N     0.16667   0.04931   0.83333   0.00000  Uiso   1.00
N749   N     0.09075   0.06878   0.74247   0.00000  Uiso   1.00
N750   N     0.24258   0.26455   0.92419   0.00000  Uiso   1.00
N751   N     0.24258   0.06878   0.92419   0.00000  Uiso   1.00
N752   N     0.09075   0.26455   0.74247   0.00000  Uiso   1.00
O753   O     0.10655   0.20625   0.83333   0.00000  Uiso   1.00
O754   O     0.22679   0.12709   0.83334   0.00000  Uiso   1.00
O755   O     0.22679   0.20625   0.83334   0.00000  Uiso   1.00
O756   O     0.10655   0.12709   0.83333   0.00000  Uiso   1.00
O757   O     0.16667   0.20625   0.76280   0.00000  Uiso   1.00
O758   O     0.16667   0.12708   0.90387   0.00000  Uiso   1.00
O759   O     0.16667   0.20625   0.90387   0.00000  Uiso   1.00
O760   O     0.16667   0.12708   0.76280   0.00000  Uiso   1.00
C761   C     0.42076   0.16667   0.83327   0.00000  Uiso   1.00
C762   C     0.35462   0.20889   0.83331   0.00000  Uiso   1.00
C763   C     0.62390   0.16667   0.83339   0.00000  Uiso   1.00
C764   C     0.37610   0.16667   0.83328   0.00000  Uiso   1.00
C765   C     0.47407   0.02479   0.80237   0.00000  Uiso   1.00
C766   C     0.52593   0.30854   0.86429   0.00000  Uiso   1.00
C767   C     0.52593   0.02479   0.86429   0.00000  Uiso   1.00
C768   C     0.47407   0.30854   0.80237   0.00000  Uiso   1.00
C769   C     0.44639   0.04942   0.76922   0.00000  Uiso   1.00
C770   C     0.55361   0.28391   0.89745   0.00000  Uiso   1.00
C771   C     0.55361   0.04942   0.89745   0.00000  Uiso   1.00
C772   C     0.57924   0.16667   0.83340   0.00000  Uiso   1.00
C773   C     0.44639   0.28391   0.76922   0.00000  Uiso   1.00
C774   C     0.49994   0.16667   0.74027   0.00000  Uiso   1.00
C775   C     0.50006   0.16667   0.92640   0.00000  Uiso   1.00
C776   C     0.49998   0.16667   0.68853   0.00000  Uiso   1.00
C777   C     0.50002   0.16667   0.97814   0.00000  Uiso   1.00
C778   C     0.35462   0.12444   0.83332   0.00000  Uiso   1.00
C779   C     0.64538   0.20889   0.83335   0.00000  Uiso   1.00
C780   C     0.64538   0.12444   0.83335   0.00000  Uiso   1.00
Cu781  Cu    0.50000   0.21355   0.83333   0.00000  Uiso   1.00
Cu782  Cu    0.50000   0.11978   0.83333   0.00000  Uiso   1.00
H783   H     0.37061   0.09141   0.83333   0.00000  Uiso   1.00
H784   H     0.62939   0.24192   0.83333   0.00000  Uiso   1.00
H785   H     0.62939   0.09141   0.83334   0.00000  Uiso   1.00
H786   H     0.37061   0.24192   0.83333   0.00000  Uiso   1.00
N787   N     0.50000   0.28402   0.83333   0.00000  Uiso   1.00
N788   N     0.50000   0.04931   0.83333   0.00000  Uiso   1.00
N789   N     0.42409   0.06878   0.74247   0.00000  Uiso   1.00
N790   N     0.57591   0.26455   0.92419   0.00000  Uiso   1.00
N791   N     0.57591   0.06878   0.92419   0.00000  Uiso   1.00
N792   N     0.42409   0.26455   0.74247   0.00000  Uiso   1.00
O793   O     0.43988   0.20625   0.83333   0.00000  Uiso   1.00
O794   O     0.56012   0.12709   0.83334   0.00000  Uiso   1.00
O795   O     0.56012   0.20625   0.83334   0.00000  Uiso   1.00
O796   O     0.43988   0.12709   0.83333   0.00000  Uiso   1.00
O797   O     0.50000   0.20625   0.76280   0.00000  Uiso   1.00
O798   O     0.50000   0.12708   0.90387   0.00000  Uiso   1.00
O799   O     0.50000   0.20625   0.90387   0.00000  Uiso   1.00
O800   O     0.50000   0.12708   0.76280   0.00000  Uiso   1.00
C801   C     0.75409   0.16667   0.83327   0.00000  Uiso   1.00
C802   C     0.68796   0.20889   0.83331   0.00000  Uiso   1.00
C803   C     0.95723   0.16667   0.83339   0.00000  Uiso   1.00
C804   C     0.70944   0.16667   0.83328   0.00000  Uiso   1.00
C805   C     0.80740   0.02479   0.80237   0.00000  Uiso   1.00
C806   C     0.85926   0.30854   0.86429   0.00000  Uiso   1.00
C807   C     0.85926   0.02479   0.86429   0.00000  Uiso   1.00
C808   C     0.80740   0.30854   0.80237   0.00000  Uiso   1.00
C809   C     0.77972   0.04942   0.76922   0.00000  Uiso   1.00
C810   C     0.88694   0.28391   0.89745   0.00000  Uiso   1.00
C811   C     0.88694   0.04942   0.89745   0.00000  Uiso   1.00
C812   C     0.91258   0.16667   0.83340   0.00000  Uiso   1.00
C813   C     0.77972   0.28391   0.76922   0.00000  Uiso   1.00
C814   C     0.83328   0.16667   0.74027   0.00000  Uiso   1.00
C815   C     0.83339   0.16667   0.92640   0.00000  Uiso   1.00
C816   C     0.83331   0.16667   0.68853   0.00000  Uiso   1.00
C817   C     0.83336   0.16667   0.97814   0.00000  Uiso   1.00
C818   C     0.68796   0.12444   0.83332   0.00000  Uiso   1.00
C819   C     0.97871   0.20889   0.83335   0.00000  Uiso   1.00
C820   C     0.97871   0.12444   0.83335   0.00000  Uiso   1.00
Cu821  Cu    0.83333   0.21355   0.83333   0.00000  Uiso   1.00
Cu822  Cu    0.83333   0.11978   0.83333   0.00000  Uiso   1.00
H823   H     0.70394   0.09141   0.83333   0.00000  Uiso   1.00
H824   H     0.96272   0.24192   0.83333   0.00000  Uiso   1.00
H825   H     0.96272   0.09141   0.83334   0.00000  Uiso   1.00
H826   H     0.70394   0.24192   0.83333   0.00000  Uiso   1.00
N827   N     0.83333   0.28402   0.83333   0.00000  Uiso   1.00
N828   N     0.83333   0.04931   0.83333   0.00000  Uiso   1.00
N829   N     0.75742   0.06878   0.74247   0.00000  Uiso   1.00
N830   N     0.90925   0.26455   0.92419   0.00000  Uiso   1.00
N831   N     0.90925   0.06878   0.92419   0.00000  Uiso   1.00
N832   N     0.75742   0.26455   0.74247   0.00000  Uiso   1.00
O833   O     0.77321   0.20625   0.83333   0.00000  Uiso   1.00
O834   O     0.89345   0.12709   0.83334   0.00000  Uiso   1.00
O835   O     0.89345   0.20625   0.83334   0.00000  Uiso   1.00
O836   O     0.77321   0.12709   0.83333   0.00000  Uiso   1.00
O837   O     0.83333   0.20625   0.76280   0.00000  Uiso   1.00
O838   O     0.83333   0.12708   0.90387   0.00000  Uiso   1.00
O839   O     0.83333   0.20625   0.90387   0.00000  Uiso   1.00
O840   O     0.83333   0.12708   0.76280   0.00000  Uiso   1.00
C841   C     0.08742   0.50000   0.83327   0.00000  Uiso   1.00
C842   C     0.02129   0.54222   0.83331   0.00000  Uiso   1.00
C843   C     0.29056   0.50000   0.83339   0.00000  Uiso   1.00
C844   C     0.04277   0.50000   0.83328   0.00000  Uiso   1.00
C845   C     0.14073   0.35813   0.80237   0.00000  Uiso   1.00
C846   C     0.19260   0.64187   0.86429   0.00000  Uiso   1.00
C847   C     0.19260   0.35813   0.86429   0.00000  Uiso   1.00
C848   C     0.14073   0.64187   0.80237   0.00000  Uiso   1.00
C849   C     0.11306   0.38275   0.76922   0.00000  Uiso   1.00
C850   C     0.22027   0.61725   0.89745   0.00000  Uiso   1.00
C851   C     0.22027   0.38275   0.89745   0.00000  Uiso   1.00
C852   C     0.24591   0.50000   0.83340   0.00000  Uiso   1.00
C853   C     0.11306   0.61725   0.76922   0.00000  Uiso   1.00
C854   C     0.16661   0.50000   0.74027   0.00000  Uiso   1.00
C855   C     0.16672   0.50000   0.92640   0.00000  Uiso   1.00
C856   C     0.16664   0.50000   0.68853   0.00000  Uiso   1.00
C857   C     0.16669   0.50000   0.97814   0.00000  Uiso   1.00
C858   C     0.02129   0.45778   0.83332   0.00000  Uiso   1.00
C859   C     0.31204   0.54222   0.83335   0.00000  Uiso   1.00
C860   C     0.31204   0.45778   0.83335   0.00000  Uiso   1.00
Cu861  Cu    0.16667   0.54689   0.83333   0.00000  Uiso   1.00
Cu862  Cu    0.16667   0.45311   0.83333   0.00000  Uiso   1.00
H863   H     0.03728   0.42475   0.83333   0.00000  Uiso   1.00
H864   H     0.29606   0.57525   0.83333   0.00000  Uiso   1.00
H865   H     0.29605   0.42475   0.83334   0.00000  Uiso   1.00
H866   H     0.03728   0.57525   0.83333   0.00000  Uiso   1.00
N867   N     0.16667   0.61736   0.83333   0.00000  Uiso   1.00
N868   N     0.16667   0.38264   0.83333   0.00000  Uiso   1.00
N869   N     0.09075   0.40212   0.74247   0.00000  Uiso   1.00
N870   N     0.24258   0.59788   0.92419   0.00000  Uiso   1.00
N871   N     0.24258   0.40212   0.92419   0.00000  Uiso   1.00
N872   N     0.09075   0.59788   0.74247   0.00000  Uiso   1.00
O873   O     0.10655   0.53958   0.83333   0.00000  Uiso   1.00
O874   O     0.22679   0.46042   0.83334   0.00000  Uiso   1.00
O875   O     0.22679   0.53958   0.83334   0.00000  Uiso   1.00
O876   O     0.10655   0.46042   0.83333   0.00000  Uiso   1.00
O877   O     0.16667   0.53959   0.76280   0.00000  Uiso   1.00
O878   O     0.16667   0.46041   0.90387   0.00000  Uiso   1.00
O879   O     0.16667   0.53959   0.90387   0.00000  Uiso   1.00
O880   O     0.16667   0.46041   0.76280   0.00000  Uiso   1.00
C881   C     0.42076   0.50000   0.83327   0.00000  Uiso   1.00
C882   C     0.35462   0.54222   0.83331   0.00000  Uiso   1.00
C883   C     0.62390   0.50000   0.83339   0.00000  Uiso   1.00
C884   C     0.37610   0.50000   0.83328   0.00000  Uiso   1.00
C885   C     0.47407   0.35813   0.80237   0.00000  Uiso   1.00
C886   C     0.52593   0.64187   0.86429   0.00000  Uiso   1.00
C887   C     0.52593   0.35813   0.86429   0.00000  Uiso   1.00
C888   C     0.47407   0.64187   0.80237   0.00000  Uiso   1.00
C889   C     0.44639   0.38275   0.76922   0.00000  Uiso   1.00
C890   C     0.55361   0.61725   0.89745   0.00000  Uiso   1.00
C891   C     0.55361   0.38275   0.89745   0.00000  Uiso   1.00
C892   C     0.57924   0.50000   0.83340   0.00000  Uiso   1.00
C893   C     0.44639   0.61725   0.76922   0.00000  Uiso   1.00
C894   C     0.49994   0.50000   0.74027   0.00000  Uiso   1.00
C895   C     0.50006   0.50000   0.92640   0.00000  Uiso   1.00
C896   C     0.49998   0.50000   0.68853   0.00000  Uiso   1.00
C897   C     0.50002   0.50000   0.97814   0.00000  Uiso   1.00
C898   C     0.35462   0.45778   0.83332   0.00000  Uiso   1.00
C899   C     0.64538   0.54222   0.83335   0.00000  Uiso   1.00
C900   C     0.64538   0.45778   0.83335   0.00000  Uiso   1.00
Cu901  Cu    0.50000   0.54689   0.83333   0.00000  Uiso   1.00
Cu902  Cu    0.50000   0.45311   0.83333   0.00000  Uiso   1.00
H903   H     0.37061   0.42475   0.83333   0.00000  Uiso   1.00
H904   H     0.62939   0.57525   0.83333   0.00000  Uiso   1.00
H905   H     0.62939   0.42475   0.83334   0.00000  Uiso   1.00
H906   H     0.37061   0.57525   0.83333   0.00000  Uiso   1.00
N907   N     0.50000   0.61736   0.83333   0.00000  Uiso   1.00
N908   N     0.50000   0.38264   0.83333   0.00000  Uiso   1.00
N909   N     0.42409   0.40212   0.74247   0.00000  Uiso   1.00
N910   N     0.57591   0.59788   0.92419   0.00000  Uiso   1.00
N911   N     0.57591   0.40212   0.92419   0.00000  Uiso   1.00
N912   N     0.42409   0.59788   0.74247   0.00000  Uiso   1.00
O913   O     0.43988   0.53958   0.83333   0.00000  Uiso   1.00
O914   O     0.56012   0.46042   0.83334   0.00000  Uiso   1.00
O915   O     0.56012   0.53958   0.83334   0.00000  Uiso   1.00
O916   O     0.43988   0.46042   0.83333   0.00000  Uiso   1.00
O917   O     0.50000   0.53959   0.76280   0.00000  Uiso   1.00
O918   O     0.50000   0.46041   0.90387   0.00000  Uiso   1.00
O919   O     0.50000   0.53959   0.90387   0.00000  Uiso   1.00
O920   O     0.50000   0.46041   0.76280   0.00000  Uiso   1.00
C921   C     0.75409   0.50000   0.83327   0.00000  Uiso   1.00
C922   C     0.68796   0.54222   0.83331   0.00000  Uiso   1.00
C923   C     0.95723   0.50000   0.83339   0.00000  Uiso   1.00
C924   C     0.70944   0.50000   0.83328   0.00000  Uiso   1.00
C925   C     0.80740   0.35813   0.80237   0.00000  Uiso   1.00
C926   C     0.85926   0.64187   0.86429   0.00000  Uiso   1.00
C927   C     0.85926   0.35813   0.86429   0.00000  Uiso   1.00
C928   C     0.80740   0.64187   0.80237   0.00000  Uiso   1.00
C929   C     0.77972   0.38275   0.76922   0.00000  Uiso   1.00
C930   C     0.88694   0.61725   0.89745   0.00000  Uiso   1.00
C931   C     0.88694   0.38275   0.89745   0.00000  Uiso   1.00
C932   C     0.91258   0.50000   0.83340   0.00000  Uiso   1.00
C933   C     0.77972   0.61725   0.76922   0.00000  Uiso   1.00
C934   C     0.83328   0.50000   0.74027   0.00000  Uiso   1.00
C935   C     0.83339   0.50000   0.92640   0.00000  Uiso   1.00
C936   C     0.83331   0.50000   0.68853   0.00000  Uiso   1.00
C937   C     0.83336   0.50000   0.97814   0.00000  Uiso   1.00
C938   C     0.68796   0.45778   0.83332   0.00000  Uiso   1.00
C939   C     0.97871   0.54222   0.83335   0.00000  Uiso   1.00
C940   C     0.97871   0.45778   0.83335   0.00000  Uiso   1.00
Cu941  Cu    0.83333   0.54689   0.83333   0.00000  Uiso   1.00
Cu942  Cu    0.83333   0.45311   0.83333   0.00000  Uiso   1.00
H943   H     0.70394   0.42475   0.83333   0.00000  Uiso   1.00
H944   H     0.96272   0.57525   0.83333   0.00000  Uiso   1.00
H945   H     0.96272   0.42475   0.83334   0.00000  Uiso   1.00
H946   H     0.70394   0.57525   0.83333   0.00000  Uiso   1.00
N947   N     0.83333   0.61736   0.83333   0.00000  Uiso   1.00
N948   N     0.83333   0.38264   0.83333   0.00000  Uiso   1.00
N949   N     0.75742   0.40212   0.74247   0.00000  Uiso   1.00
N950   N     0.90925   0.59788   0.92419   0.00000  Uiso   1.00
N951   N     0.90925   0.40212   0.92419   0.00000  Uiso   1.00
N952   N     0.75742   0.59788   0.74247   0.00000  Uiso   1.00
O953   O     0.77321   0.53958   0.83333   0.00000  Uiso   1.00
O954   O     0.89345   0.46042   0.83334   0.00000  Uiso   1.00
O955   O     0.89345   0.53958   0.83334   0.00000  Uiso   1.00
O956   O     0.77321   0.46042   0.83333   0.00000  Uiso   1.00
O957   O     0.83333   0.53959   0.76280   0.00000  Uiso   1.00
O958   O     0.83333   0.46041   0.90387   0.00000  Uiso   1.00
O959   O     0.83333   0.53959   0.90387   0.00000  Uiso   1.00
O960   O     0.83333   0.46041   0.76280   0.00000  Uiso   1.00
C961   C     0.08742   0.83333   0.83327   0.00000  Uiso   1.00
C962   C     0.02129   0.87556   0.83331   0.00000  Uiso   1.00
C963   C     0.29056   0.83333   0.83339   0.00000  Uiso   1.00
C964   C     0.04277   0.83333   0.83328   0.00000  Uiso   1.00
C965   C     0.14073   0.69146   0.80237   0.00000  Uiso   1.00
C966   C     0.19260   0.97521   0.86429   0.00000  Uiso   1.00
C967   C     0.19260   0.69146   0.86429   0.00000  Uiso   1.00
C968   C     0.14073   0.97521   0.80237   0.00000  Uiso   1.00
C969   C     0.11306   0.71609   0.76922   0.00000  Uiso   1.00
C970   C     0.22027   0.95058   0.89745   0.00000  Uiso   1.00
C971   C     0.22027   0.71609   0.89745   0.00000  Uiso   1.00
C972   C     0.24591   0.83333   0.83340   0.00000  Uiso   1.00
C973   C     0.11306   0.95058   0.76922   0.00000  Uiso   1.00
C974   C     0.16661   0.83333   0.74027   0.00000  Uiso   1.00
C975   C     0.16672   0.83333   0.92640   0.00000  Uiso   1.00
C976   C     0.16664   0.83333   0.68853   0.00000  Uiso   1.00
C977   C     0.16669   0.83333   0.97814   0.00000  Uiso   1.00
C978   C     0.02129   0.79111   0.83332   0.00000  Uiso   1.00
C979   C     0.31204   0.87556   0.83335   0.00000  Uiso   1.00
C980   C     0.31204   0.79111   0.83335   0.00000  Uiso   1.00
Cu981  Cu    0.16667   0.88022   0.83333   0.00000  Uiso   1.00
Cu982  Cu    0.16667   0.78645   0.83333   0.00000  Uiso   1.00
H983   H     0.03728   0.75808   0.83333   0.00000  Uiso   1.00
H984   H     0.29606   0.90859   0.83333   0.00000  Uiso   1.00
H985   H     0.29605   0.75808   0.83334   0.00000  Uiso   1.00
H986   H     0.03728   0.90859   0.83333   0.00000  Uiso   1.00
N987   N     0.16667   0.95069   0.83333   0.00000  Uiso   1.00
N988   N     0.16667   0.71598   0.83333   0.00000  Uiso   1.00
N989   N     0.09075   0.73545   0.74247   0.00000  Uiso   1.00
N990   N     0.24258   0.93122   0.92419   0.00000  Uiso   1.00
N991   N     0.24258   0.73545   0.92419   0.00000  Uiso   1.00
N992   N     0.09075   0.93122   0.74247   0.00000  Uiso   1.00
O993   O     0.10655   0.87291   0.83333   0.00000  Uiso   1.00
O994   O     0.22679   0.79375   0.83334   0.00000  Uiso   1.00
O995   O     0.22679   0.87291   0.83334   0.00000  Uiso   1.00
O996   O     0.10655   0.79375   0.83333   0.00000  Uiso   1.00
O997   O     0.16667   0.87292   0.76280   0.00000  Uiso   1.00
O998   O     0.16667   0.79375   0.90387   0.00000  Uiso   1.00
O999   O     0.16667   0.87292   0.90387   0.00000  Uiso   1.00
O1000  O     0.16667   0.79375   0.76280   0.00000  Uiso   1.00
C1001  C     0.42076   0.83333   0.83327   0.00000  Uiso   1.00
C1002  C     0.35462   0.87556   0.83331   0.00000  Uiso   1.00
C1003  C     0.62390   0.83333   0.83339   0.00000  Uiso   1.00
C1004  C     0.37610   0.83333   0.83328   0.00000  Uiso   1.00
C1005  C     0.47407   0.69146   0.80237   0.00000  Uiso   1.00
C1006  C     0.52593   0.97521   0.86429   0.00000  Uiso   1.00
C1007  C     0.52593   0.69146   0.86429   0.00000  Uiso   1.00
C1008  C     0.47407   0.97521   0.80237   0.00000  Uiso   1.00
C1009  C     0.44639   0.71609   0.76922   0.00000  Uiso   1.00
C1010  C     0.55361   0.95058   0.89745   0.00000  Uiso   1.00
C1011  C     0.55361   0.71609   0.89745   0.00000  Uiso   1.00
C1012  C     0.57924   0.83333   0.83340   0.00000  Uiso   1.00
C1013  C     0.44639   0.95058   0.76922   0.00000  Uiso   1.00
C1014  C     0.49994   0.83333   0.74027   0.00000  Uiso   1.00
C1015  C     0.50006   0.83333   0.92640   0.00000  Uiso   1.00
C1016  C     0.49998   0.83333   0.68853   0.00000  Uiso   1.00
C1017  C     0.50002   0.83333   0.97814   0.00000  Uiso   1.00
C1018  C     0.35462   0.79111   0.83332   0.00000  Uiso   1.00
C1019  C     0.64538   0.87556   0.83335   0.00000  Uiso   1.00
C1020  C     0.64538   0.79111   0.83335   0.00000  Uiso   1.00
Cu1021 Cu    0.50000   0.88022   0.83333   0.00000  Uiso   1.00
Cu1022 Cu    0.50000   0.78645   0.83333   0.00000  Uiso   1.00
H1023  H     0.37061   0.75808   0.83333   0.00000  Uiso   1.00
H1024  H     0.62939   0.90859   0.83333   0.00000  Uiso   1.00
H1025  H     0.62939   0.75808   0.83334   0.00000  Uiso   1.00
H1026  H     0.37061   0.90859   0.83333   0.00000  Uiso   1.00
N1027  N     0.50000   0.95069   0.83333   0.00000  Uiso   1.00
N1028  N     0.50000   0.71598   0.83333   0.00000  Uiso   1.00
N1029  N     0.42409   0.73545   0.74247   0.00000  Uiso   1.00
N1030  N     0.57591   0.93122   0.92419   0.00000  Uiso   1.00
N1031  N     0.57591   0.73545   0.92419   0.00000  Uiso   1.00
N1032  N     0.42409   0.93122   0.74247   0.00000  Uiso   1.00
O1033  O     0.43988   0.87291   0.83333   0.00000  Uiso   1.00
O1034  O     0.56012   0.79375   0.83334   0.00000  Uiso   1.00
O1035  O     0.56012   0.87291   0.83334   0.00000  Uiso   1.00
O1036  O     0.43988   0.79375   0.83333   0.00000  Uiso   1.00
O1037  O     0.50000   0.87292   0.76280   0.00000  Uiso   1.00
O1038  O     0.50000   0.79375   0.90387   0.00000  Uiso   1.00
O1039  O     0.50000   0.87292   0.90387   0.00000  Uiso   1.00
O1040  O     0.50000   0.79375   0.76280   0.00000  Uiso   1.00
C1041  C     0.75409   0.83333   0.83327   0.00000  Uiso   1.00
C1042  C     0.68796   0.87556   0.83331   0.00000  Uiso   1.00
C1043  C     0.95723   0.83333   0.83339   0.00000  Uiso   1.00
C1044  C     0.70944   0.83333   0.83328   0.00000  Uiso   1.00
C1045  C     0.80740   0.69146   0.80237   0.00000  Uiso   1.00
C1046  C     0.85926   0.97521   0.86429   0.00000  Uiso   1.00
C1047  C     0.85926   0.69146   0.86429   0.00000  Uiso   1.00
C1048  C     0.80740   0.97521   0.80237   0.00000  Uiso   1.00
C1049  C     0.77972   0.71609   0.76922   0.00000  Uiso   1.00
C1050  C     0.88694   0.95058   0.89745   0.00000  Uiso   1.00
C1051  C     0.88694   0.71609   0.89745   0.00000  Uiso   1.00
C1052  C     0.91258   0.83333   0.83340   0.00000  Uiso   1.00
C1053  C     0.77972   0.95058   0.76922   0.00000  Uiso   1.00
C1054  C     0.83328   0.83333   0.74027   0.00000  Uiso   1.00
C1055  C     0.83339   0.83333   0.92640   0.00000  Uiso   1.00
C1056  C     0.83331   0.83333   0.68853   0.00000  Uiso   1.00
C1057  C     0.83336   0.83333   0.97814   0.00000  Uiso   1.00
C1058  C     0.68796   0.79111   0.83332   0.00000  Uiso   1.00
C1059  C     0.97871   0.87556   0.83335   0.00000  Uiso   1.00
C1060  C     0.97871   0.79111   0.83335   0.00000  Uiso   1.00
Cu1061 Cu    0.83333   0.88022   0.83333   0.00000  Uiso   1.00
Cu1062 Cu    0.83333   0.78645   0.83333   0.00000  Uiso   1.00
H1063  H     0.70394   0.75808   0.83333   0.00000  Uiso   1.00
H1064  H     0.96272   0.90859   0.83333   0.00000  Uiso   1.00
H1065  H     0.96272   0.75808   0.83334   0.00000  Uiso   1.00
H1066  H     0.70394   0.90859   0.83333   0.00000  Uiso   1.00
N1067  N     0.83333   0.95069   0.83333   0.00000  Uiso   1.00
N1068  N     0.83333   0.71598   0.83333   0.00000  Uiso   1.00
N1069  N     0.75742   0.73545   0.74247   0.00000  Uiso   1.00
N1070  N     0.90925   0.93122   0.92419   0.00000  Uiso   1.00
N1071  N     0.90925   0.73545   0.92419   0.00000  Uiso   1.00
N1072  N     0.75742   0.93122   0.74247   0.00000  Uiso   1.00
O1073  O     0.77321   0.87291   0.83333   0.00000  Uiso   1.00
O1074  O     0.89345   0.79375   0.83334   0.00000  Uiso   1.00
O1075  O     0.89345   0.87291   0.83334   0.00000  Uiso   1.00
O1076  O     0.77321   0.79375   0.83333   0.00000  Uiso   1.00
O1077  O     0.83333   0.87292   0.76280   0.00000  Uiso   1.00
O1078  O     0.83333   0.79375   0.90387   0.00000  Uiso   1.00
O1079  O     0.83333   0.87292   0.90387   0.00000  Uiso   1.00
O1080  O     0.83333   0.79375   0.76280   0.00000  Uiso   1.00
loop_
_geom_bond_atom_site_label_1
_geom_bond_atom_site_label_2
_geom_bond_distance
_geom_bond_site_symmetry_2
_ccdc_geom_bond_type
C1     C4      1.451   .     S
C1     O33     1.297   .     A
C1     O36     1.297   .     A
C2     C4      1.401   .     A
C2     H26     1.083   .     S
C2     C99     1.384   1_455 S
C3     C20     1.401   .     A
C3     C19     1.401   .     A
C3     C12     1.451   .     S
C4     C18     1.401   .     A
C5     C9      1.444   .     S
C5     N28     1.372   .     A
C5     C248    1.427   1_545 S
C6     C10     1.444   .     S
C6     N27     1.372   .     A
C6     C127    1.427   .     S
C7     C11     1.444   .     S
C7     N28     1.372   .     A
C7     C246    1.427   1_545 S
C8     C13     1.444   .     S
C8     N27     1.372   .     A
C8     C125    1.427   .     S
C9     N29     1.158   .     T
C10    N30     1.158   .     T
C11    N31     1.158   .     T
C12    O34     1.297   .     A
C12    O35     1.297   .     A
C13    N32     1.158   .     T
C14    O37     1.294   .     A
C14    C16     1.409   .     S
C14    O40     1.294   .     A
C15    O38     1.294   .     A
C15    O39     1.294   .     A
C15    C17     1.409   .     S
C16    C737    1.191   1_554 S
C17    C376    1.191   .     S
C18    H23     1.083   .     S
C18    C100    1.384   1_455 S
C19    H24     1.083   .     S
C19    C42     1.384   .     S
C20    H25     1.083   .     S
C20    C58     1.384   .     S
Cu21   O35     1.965   .     S
Cu21   O39     1.932   .     S
Cu21   N27     2.028   .     S
Cu21   Cu22    2.698   .     S
Cu21   O33     1.965   .     S
Cu21   O37     1.932   .     S
Cu22   O36     1.965   .     S
Cu22   O40     1.932   .     S
Cu22   N28     2.028   .     S
Cu22   O34     1.965   .     S
Cu22   O38     1.932   .     S
C41    C44     1.451   .     S
C41    O73     1.297   .     A
C41    O76     1.297   .     A
C42    C44     1.401   .     A
C42    H66     1.083   .     S
C43    C60     1.401   .     A
C43    C59     1.401   .     A
C43    C52     1.451   .     S
C44    C58     1.401   .     A
C45    C49     1.444   .     S
C45    N68     1.372   .     A
C45    C288    1.427   1_545 S
C46    C50     1.444   .     S
C46    N67     1.372   .     A
C46    C167    1.427   .     S
C47    C51     1.444   .     S
C47    N68     1.372   .     A
C47    C286    1.427   1_545 S
C48    C53     1.444   .     S
C48    N67     1.372   .     A
C48    C165    1.427   .     S
C49    N69     1.158   .     T
C50    N70     1.158   .     T
C51    N71     1.158   .     T
C52    O74     1.297   .     A
C52    O75     1.297   .     A
C53    N72     1.158   .     T
C54    O77     1.294   .     A
C54    C56     1.409   .     S
C54    O80     1.294   .     A
C55    O78     1.294   .     A
C55    O79     1.294   .     A
C55    C57     1.409   .     S
C56    C777    1.191   1_554 S
C57    C416    1.191   .     S
C58    H63     1.083   .     S
C59    H64     1.083   .     S
C59    C82     1.384   .     S
C60    H65     1.083   .     S
C60    C98     1.384   .     S
Cu61   O75     1.965   .     S
Cu61   O79     1.932   .     S
Cu61   N67     2.028   .     S
Cu61   Cu62    2.698   .     S
Cu61   O73     1.965   .     S
Cu61   O77     1.932   .     S
Cu62   O76     1.965   .     S
Cu62   O80     1.932   .     S
Cu62   N68     2.028   .     S
Cu62   O74     1.965   .     S
Cu62   O78     1.932   .     S
C81    C84     1.451   .     S
C81    O113    1.297   .     A
C81    O116    1.297   .     A
C82    C84     1.401   .     A
C82    H106    1.083   .     S
C83    C100    1.401   .     A
C83    C99     1.401   .     A
C83    C92     1.451   .     S
C84    C98     1.401   .     A
C85    C89     1.444   .     S
C85    N108    1.372   .     A
C85    C328    1.427   1_545 S
C86    C90     1.444   .     S
C86    N107    1.372   .     A
C86    C207    1.427   .     S
C87    C91     1.444   .     S
C87    N108    1.372   .     A
C87    C326    1.427   1_545 S
C88    C93     1.444   .     S
C88    N107    1.372   .     A
C88    C205    1.427   .     S
C89    N109    1.158   .     T
C90    N110    1.158   .     T
C91    N111    1.158   .     T
C92    O114    1.297   .     A
C92    O115    1.297   .     A
C93    N112    1.158   .     T
C94    O117    1.294   .     A
C94    C96     1.409   .     S
C94    O120    1.294   .     A
C95    O118    1.294   .     A
C95    O119    1.294   .     A
C95    C97     1.409   .     S
C96    C817    1.191   1_554 S
C97    C456    1.191   .     S
C98    H103    1.083   .     S
C99    H104    1.083   .     S
C99    C2      1.384   1_655 S
C100   H105    1.083   .     S
C100   C18     1.384   1_655 S
Cu101  O115    1.965   .     S
Cu101  O119    1.932   .     S
Cu101  N107    2.028   .     S
Cu101  Cu102   2.698   .     S
Cu101  O113    1.965   .     S
Cu101  O117    1.932   .     S
Cu102  O116    1.965   .     S
Cu102  O120    1.932   .     S
Cu102  N108    2.028   .     S
Cu102  O114    1.965   .     S
Cu102  O118    1.932   .     S
C121   C124    1.451   .     S
C121   O153    1.297   .     A
C121   O156    1.297   .     A
C122   C124    1.401   .     A
C122   H146    1.083   .     S
C122   C219    1.384   1_455 S
C123   C140    1.401   .     A
C123   C139    1.401   .     A
C123   C132    1.451   .     S
C124   C138    1.401   .     A
C125   C129    1.444   .     S
C125   N148    1.372   .     A
C126   C130    1.444   .     S
C126   N147    1.372   .     A
C126   C247    1.427   .     S
C127   C131    1.444   .     S
C127   N148    1.372   .     A
C128   C133    1.444   .     S
C128   N147    1.372   .     A
C128   C245    1.427   .     S
C129   N149    1.158   .     T
C130   N150    1.158   .     T
C131   N151    1.158   .     T
C132   O154    1.297   .     A
C132   O155    1.297   .     A
C133   N152    1.158   .     T
C134   O157    1.294   .     A
C134   C136    1.409   .     S
C134   O160    1.294   .     A
C135   O158    1.294   .     A
C135   O159    1.294   .     A
C135   C137    1.409   .     S
C136   C857    1.191   1_554 S
C137   C496    1.191   .     S
C138   H143    1.083   .     S
C138   C220    1.384   1_455 S
C139   H144    1.083   .     S
C139   C162    1.384   .     S
C140   H145    1.083   .     S
C140   C178    1.384   .     S
Cu141  O155    1.965   .     S
Cu141  O159    1.932   .     S
Cu141  N147    2.028   .     S
Cu141  Cu142   2.698   .     S
Cu141  O153    1.965   .     S
Cu141  O157    1.932   .     S
Cu142  O156    1.965   .     S
Cu142  O160    1.932   .     S
Cu142  N148    2.028   .     S
Cu142  O154    1.965   .     S
Cu142  O158    1.932   .     S
C161   C164    1.451   .     S
C161   O193    1.297   .     A
C161   O196    1.297   .     A
C162   C164    1.401   .     A
C162   H186    1.083   .     S
C163   C180    1.401   .     A
C163   C179    1.401   .     A
C163   C172    1.451   .     S
C164   C178    1.401   .     A
C165   C169    1.444   .     S
C165   N188    1.372   .     A
C166   C170    1.444   .     S
C166   N187    1.372   .     A
C166   C287    1.427   .     S
C167   C171    1.444   .     S
C167   N188    1.372   .     A
C168   C173    1.444   .     S
C168   N187    1.372   .     A
C168   C285    1.427   .     S
C169   N189    1.158   .     T
C170   N190    1.158   .     T
C171   N191    1.158   .     T
C172   O194    1.297   .     A
C172   O195    1.297   .     A
C173   N192    1.158   .     T
C174   O197    1.294   .     A
C174   C176    1.409   .     S
C174   O200    1.294   .     A
C175   O198    1.294   .     A
C175   O199    1.294   .     A
C175   C177    1.409   .     S
C176   C897    1.191   1_554 S
C177   C536    1.191   .     S
C178   H183    1.083   .     S
C179   H184    1.083   .     S
C179   C202    1.384   .     S
C180   H185    1.083   .     S
C180   C218    1.384   .     S
Cu181  O195    1.965   .     S
Cu181  O199    1.932   .     S
Cu181  N187    2.028   .     S
Cu181  Cu182   2.698   .     S
Cu181  O193    1.965   .     S
Cu181  O197    1.932   .     S
Cu182  O196    1.965   .     S
Cu182  O200    1.932   .     S
Cu182  N188    2.028   .     S
Cu182  O194    1.965   .     S
Cu182  O198    1.932   .     S
C201   C204    1.451   .     S
C201   O233    1.297   .     A
C201   O236    1.297   .     A
C202   C204    1.401   .     A
C202   H226    1.083   .     S
C203   C220    1.401   .     A
C203   C219    1.401   .     A
C203   C212    1.451   .     S
C204   C218    1.401   .     A
C205   C209    1.444   .     S
C205   N228    1.372   .     A
C206   C210    1.444   .     S
C206   N227    1.372   .     A
C206   C327    1.427   .     S
C207   C211    1.444   .     S
C207   N228    1.372   .     A
C208   C213    1.444   .     S
C208   N227    1.372   .     A
C208   C325    1.427   .     S
C209   N229    1.158   .     T
C210   N230    1.158   .     T
C211   N231    1.158   .     T
C212   O234    1.297   .     A
C212   O235    1.297   .     A
C213   N232    1.158   .     T
C214   O237    1.294   .     A
C214   C216    1.409   .     S
C214   O240    1.294   .     A
C215   O238    1.294   .     A
C215   O239    1.294   .     A
C215   C217    1.409   .     S
C216   C937    1.191   1_554 S
C217   C576    1.191   .     S
C218   H223    1.083   .     S
C219   H224    1.083   .     S
C219   C122    1.384   1_655 S
C220   H225    1.083   .     S
C220   C138    1.384   1_655 S
Cu221  O235    1.965   .     S
Cu221  O239    1.932   .     S
Cu221  N227    2.028   .     S
Cu221  Cu222   2.698   .     S
Cu221  O233    1.965   .     S
Cu221  O237    1.932   .     S
Cu222  O236    1.965   .     S
Cu222  O240    1.932   .     S
Cu222  N228    2.028   .     S
Cu222  O234    1.965   .     S
Cu222  O238    1.932   .     S
C241   C244    1.451   .     S
C241   O273    1.297   .     A
C241   O276    1.297   .     A
C242   C244    1.401   .     A
C242   H266    1.083   .     S
C242   C339    1.384   1_455 S
C243   C260    1.401   .     A
C243   C259    1.401   .     A
C243   C252    1.451   .     S
C244   C258    1.401   .     A
C245   C249    1.444   .     S
C245   N268    1.372   .     A
C246   C250    1.444   .     S
C246   N267    1.372   .     A
C246   C7      1.427   1_565 S
C247   C251    1.444   .     S
C247   N268    1.372   .     A
C248   C253    1.444   .     S
C248   N267    1.372   .     A
C248   C5      1.427   1_565 S
C249   N269    1.158   .     T
C250   N270    1.158   .     T
C251   N271    1.158   .     T
C252   O274    1.297   .     A
C252   O275    1.297   .     A
C253   N272    1.158   .     T
C254   O277    1.294   .     A
C254   C256    1.409   .     S
C254   O280    1.294   .     A
C255   O278    1.294   .     A
C255   O279    1.294   .     A
C255   C257    1.409   .     S
C256   C977    1.191   1_554 S
C257   C616    1.191   .     S
C258   H263    1.083   .     S
C258   C340    1.384   1_455 S
C259   H264    1.083   .     S
C259   C282    1.384   .     S
C260   H265    1.083   .     S
C260   C298    1.384   .     S
Cu261  O275    1.965   .     S
Cu261  O279    1.932   .     S
Cu261  N267    2.028   .     S
Cu261  Cu262   2.698   .     S
Cu261  O273    1.965   .     S
Cu261  O277    1.932   .     S
Cu262  O276    1.965   .     S
Cu262  O280    1.932   .     S
Cu262  N268    2.028   .     S
Cu262  O274    1.965   .     S
Cu262  O278    1.932   .     S
C281   C284    1.451   .     S
C281   O313    1.297   .     A
C281   O316    1.297   .     A
C282   C284    1.401   .     A
C282   H306    1.083   .     S
C283   C300    1.401   .     A
C283   C299    1.401   .     A
C283   C292    1.451   .     S
C284   C298    1.401   .     A
C285   C289    1.444   .     S
C285   N308    1.372   .     A
C286   C290    1.444   .     S
C286   N307    1.372   .     A
C286   C47     1.427   1_565 S
C287   C291    1.444   .     S
C287   N308    1.372   .     A
C288   C293    1.444   .     S
C288   N307    1.372   .     A
C288   C45     1.427   1_565 S
C289   N309    1.158   .     T
C290   N310    1.158   .     T
C291   N311    1.158   .     T
C292   O314    1.297   .     A
C292   O315    1.297   .     A
C293   N312    1.158   .     T
C294   O317    1.294   .     A
C294   C296    1.409   .     S
C294   O320    1.294   .     A
C295   O318    1.294   .     A
C295   O319    1.294   .     A
C295   C297    1.409   .     S
C296   C1017   1.191   1_554 S
C297   C656    1.191   .     S
C298   H303    1.083   .     S
C299   H304    1.083   .     S
C299   C322    1.384   .     S
C300   H305    1.083   .     S
C300   C338    1.384   .     S
Cu301  O315    1.965   .     S
Cu301  O319    1.932   .     S
Cu301  N307    2.028   .     S
Cu301  Cu302   2.698   .     S
Cu301  O313    1.965   .     S
Cu301  O317    1.932   .     S
Cu302  O316    1.965   .     S
Cu302  O320    1.932   .     S
Cu302  N308    2.028   .     S
Cu302  O314    1.965   .     S
Cu302  O318    1.932   .     S
C321   C324    1.451   .     S
C321   O353    1.297   .     A
C321   O356    1.297   .     A
C322   C324    1.401   .     A
C322   H346    1.083   .     S
C323   C340    1.401   .     A
C323   C339    1.401   .     A
C323   C332    1.451   .     S
C324   C338    1.401   .     A
C325   C329    1.444   .     S
C325   N348    1.372   .     A
C326   C330    1.444   .     S
C326   N347    1.372   .     A
C326   C87     1.427   1_565 S
C327   C331    1.444   .     S
C327   N348    1.372   .     A
C328   C333    1.444   .     S
C328   N347    1.372   .     A
C328   C85     1.427   1_565 S
C329   N349    1.158   .     T
C330   N350    1.158   .     T
C331   N351    1.158   .     T
C332   O354    1.297   .     A
C332   O355    1.297   .     A
C333   N352    1.158   .     T
C334   O357    1.294   .     A
C334   C336    1.409   .     S
C334   O360    1.294   .     A
C335   O358    1.294   .     A
C335   O359    1.294   .     A
C335   C337    1.409   .     S
C336   C1057   1.191   1_554 S
C337   C696    1.191   .     S
C338   H343    1.083   .     S
C339   H344    1.083   .     S
C339   C242    1.384   1_655 S
C340   H345    1.083   .     S
C340   C258    1.384   1_655 S
Cu341  O355    1.965   .     S
Cu341  O359    1.932   .     S
Cu341  N347    2.028   .     S
Cu341  Cu342   2.698   .     S
Cu341  O353    1.965   .     S
Cu341  O357    1.932   .     S
Cu342  O356    1.965   .     S
Cu342  O360    1.932   .     S
Cu342  N348    2.028   .     S
Cu342  O354    1.965   .     S
Cu342  O358    1.932   .     S
C361   C364    1.451   .     S
C361   O393    1.297   .     A
C361   O396    1.297   .     A
C362   C364    1.401   .     A
C362   H386    1.083   .     S
C362   C459    1.384   1_455 S
C363   C380    1.401   .     A
C363   C379    1.401   .     A
C363   C372    1.451   .     S
C364   C378    1.401   .     A
C365   C369    1.444   .     S
C365   N388    1.372   .     A
C365   C608    1.427   1_545 S
C366   C370    1.444   .     S
C366   N387    1.372   .     A
C366   C487    1.427   .     S
C367   C371    1.444   .     S
C367   N388    1.372   .     A
C367   C606    1.427   1_545 S
C368   C373    1.444   .     S
C368   N387    1.372   .     A
C368   C485    1.427   .     S
C369   N389    1.158   .     T
C370   N390    1.158   .     T
C371   N391    1.158   .     T
C372   O394    1.297   .     A
C372   O395    1.297   .     A
C373   N392    1.158   .     T
C374   O397    1.294   .     A
C374   C376    1.409   .     S
C374   O400    1.294   .     A
C375   O398    1.294   .     A
C375   O399    1.294   .     A
C375   C377    1.409   .     S
C377   C736    1.191   .     S
C378   H383    1.083   .     S
C378   C460    1.384   1_455 S
C379   H384    1.083   .     S
C379   C402    1.384   .     S
C380   H385    1.083   .     S
C380   C418    1.384   .     S
Cu381  O395    1.965   .     S
Cu381  O399    1.932   .     S
Cu381  N387    2.028   .     S
Cu381  Cu382   2.698   .     S
Cu381  O393    1.965   .     S
Cu381  O397    1.932   .     S
Cu382  O396    1.965   .     S
Cu382  O400    1.932   .     S
Cu382  N388    2.028   .     S
Cu382  O394    1.965   .     S
Cu382  O398    1.932   .     S
C401   C404    1.451   .     S
C401   O433    1.297   .     A
C401   O436    1.297   .     A
C402   C404    1.401   .     A
C402   H426    1.083   .     S
C403   C420    1.401   .     A
C403   C419    1.401   .     A
C403   C412    1.451   .     S
C404   C418    1.401   .     A
C405   C409    1.444   .     S
C405   N428    1.372   .     A
C405   C648    1.427   1_545 S
C406   C410    1.444   .     S
C406   N427    1.372   .     A
C406   C527    1.427   .     S
C407   C411    1.444   .     S
C407   N428    1.372   .     A
C407   C646    1.427   1_545 S
C408   C413    1.444   .     S
C408   N427    1.372   .     A
C408   C525    1.427   .     S
C409   N429    1.158   .     T
C410   N430    1.158   .     T
C411   N431    1.158   .     T
C412   O434    1.297   .     A
C412   O435    1.297   .     A
C413   N432    1.158   .     T
C414   O437    1.294   .     A
C414   C416    1.409   .     S
C414   O440    1.294   .     A
C415   O438    1.294   .     A
C415   O439    1.294   .     A
C415   C417    1.409   .     S
C417   C776    1.191   .     S
C418   H423    1.083   .     S
C419   H424    1.083   .     S
C419   C442    1.384   .     S
C420   H425    1.083   .     S
C420   C458    1.384   .     S
Cu421  O435    1.965   .     S
Cu421  O439    1.932   .     S
Cu421  N427    2.028   .     S
Cu421  Cu422   2.698   .     S
Cu421  O433    1.965   .     S
Cu421  O437    1.932   .     S
Cu422  O436    1.965   .     S
Cu422  O440    1.932   .     S
Cu422  N428    2.028   .     S
Cu422  O434    1.965   .     S
Cu422  O438    1.932   .     S
C441   C444    1.451   .     S
C441   O473    1.297   .     A
C441   O476    1.297   .     A
C442   C444    1.401   .     A
C442   H466    1.083   .     S
C443   C460    1.401   .     A
C443   C459    1.401   .     A
C443   C452    1.451   .     S
C444   C458    1.401   .     A
C445   C449    1.444   .     S
C445   N468    1.372   .     A
C445   C688    1.427   1_545 S
C446   C450    1.444   .     S
C446   N467    1.372   .     A
C446   C567    1.427   .     S
C447   C451    1.444   .     S
C447   N468    1.372   .     A
C447   C686    1.427   1_545 S
C448   C453    1.444   .     S
C448   N467    1.372   .     A
C448   C565    1.427   .     S
C449   N469    1.158   .     T
C450   N470    1.158   .     T
C451   N471    1.158   .     T
C452   O474    1.297   .     A
C452   O475    1.297   .     A
C453   N472    1.158   .     T
C454   O477    1.294   .     A
C454   C456    1.409   .     S
C454   O480    1.294   .     A
C455   O478    1.294   .     A
C455   O479    1.294   .     A
C455   C457    1.409   .     S
C457   C816    1.191   .     S
C458   H463    1.083   .     S
C459   H464    1.083   .     S
C459   C362    1.384   1_655 S
C460   H465    1.083   .     S
C460   C378    1.384   1_655 S
Cu461  O475    1.965   .     S
Cu461  O479    1.932   .     S
Cu461  N467    2.028   .     S
Cu461  Cu462   2.698   .     S
Cu461  O473    1.965   .     S
Cu461  O477    1.932   .     S
Cu462  O476    1.965   .     S
Cu462  O480    1.932   .     S
Cu462  N468    2.028   .     S
Cu462  O474    1.965   .     S
Cu462  O478    1.932   .     S
C481   C484    1.451   .     S
C481   O513    1.297   .     A
C481   O516    1.297   .     A
C482   C484    1.401   .     A
C482   H506    1.083   .     S
C482   C579    1.384   1_455 S
C483   C500    1.401   .     A
C483   C499    1.401   .     A
C483   C492    1.451   .     S
C484   C498    1.401   .     A
C485   C489    1.444   .     S
C485   N508    1.372   .     A
C486   C490    1.444   .     S
C486   N507    1.372   .     A
C486   C607    1.427   .     S
C487   C491    1.444   .     S
C487   N508    1.372   .     A
C488   C493    1.444   .     S
C488   N507    1.372   .     A
C488   C605    1.427   .     S
C489   N509    1.158   .     T
C490   N510    1.158   .     T
C491   N511    1.158   .     T
C492   O514    1.297   .     A
C492   O515    1.297   .     A
C493   N512    1.158   .     T
C494   O517    1.294   .     A
C494   C496    1.409   .     S
C494   O520    1.294   .     A
C495   O518    1.294   .     A
C495   O519    1.294   .     A
C495   C497    1.409   .     S
C497   C856    1.191   .     S
C498   H503    1.083   .     S
C498   C580    1.384   1_455 S
C499   H504    1.083   .     S
C499   C522    1.384   .     S
C500   H505    1.083   .     S
C500   C538    1.384   .     S
Cu501  O515    1.965   .     S
Cu501  O519    1.932   .     S
Cu501  N507    2.028   .     S
Cu501  Cu502   2.698   .     S
Cu501  O513    1.965   .     S
Cu501  O517    1.932   .     S
Cu502  O516    1.965   .     S
Cu502  O520    1.932   .     S
Cu502  N508    2.028   .     S
Cu502  O514    1.965   .     S
Cu502  O518    1.932   .     S
C521   C524    1.451   .     S
C521   O553    1.297   .     A
C521   O556    1.297   .     A
C522   C524    1.401   .     A
C522   H546    1.083   .     S
C523   C540    1.401   .     A
C523   C539    1.401   .     A
C523   C532    1.451   .     S
C524   C538    1.401   .     A
C525   C529    1.444   .     S
C525   N548    1.372   .     A
C526   C530    1.444   .     S
C526   N547    1.372   .     A
C526   C647    1.427   .     S
C527   C531    1.444   .     S
C527   N548    1.372   .     A
C528   C533    1.444   .     S
C528   N547    1.372   .     A
C528   C645    1.427   .     S
C529   N549    1.158   .     T
C530   N550    1.158   .     T
C531   N551    1.158   .     T
C532   O554    1.297   .     A
C532   O555    1.297   .     A
C533   N552    1.158   .     T
C534   O557    1.294   .     A
C534   C536    1.409   .     S
C534   O560    1.294   .     A
C535   O558    1.294   .     A
C535   O559    1.294   .     A
C535   C537    1.409   .     S
C537   C896    1.191   .     S
C538   H543    1.083   .     S
C539   H544    1.083   .     S
C539   C562    1.384   .     S
C540   H545    1.083   .     S
C540   C578    1.384   .     S
Cu541  O555    1.965   .     S
Cu541  O559    1.932   .     S
Cu541  N547    2.028   .     S
Cu541  Cu542   2.698   .     S
Cu541  O553    1.965   .     S
Cu541  O557    1.932   .     S
Cu542  O556    1.965   .     S
Cu542  O560    1.932   .     S
Cu542  N548    2.028   .     S
Cu542  O554    1.965   .     S
Cu542  O558    1.932   .     S
C561   C564    1.451   .     S
C561   O593    1.297   .     A
C561   O596    1.297   .     A
C562   C564    1.401   .     A
C562   H586    1.083   .     S
C563   C580    1.401   .     A
C563   C579    1.401   .     A
C563   C572    1.451   .     S
C564   C578    1.401   .     A
C565   C569    1.444   .     S
C565   N588    1.372   .     A
C566   C570    1.444   .     S
C566   N587    1.372   .     A
C566   C687    1.427   .     S
C567   C571    1.444   .     S
C567   N588    1.372   .     A
C568   C573    1.444   .     S
C568   N587    1.372   .     A
C568   C685    1.427   .     S
C569   N589    1.158   .     T
C570   N590    1.158   .     T
C571   N591    1.158   .     T
C572   O594    1.297   .     A
C572   O595    1.297   .     A
C573   N592    1.158   .     T
C574   O597    1.294   .     A
C574   C576    1.409   .     S
C574   O600    1.294   .     A
C575   O598    1.294   .     A
C575   O599    1.294   .     A
C575   C577    1.409   .     S
C577   C936    1.191   .     S
C578   H583    1.083   .     S
C579   H584    1.083   .     S
C579   C482    1.384   1_655 S
C580   H585    1.083   .     S
C580   C498    1.384   1_655 S
Cu581  O595    1.965   .     S
Cu581  O599    1.932   .     S
Cu581  N587    2.028   .     S
Cu581  Cu582   2.698   .     S
Cu581  O593    1.965   .     S
Cu581  O597    1.932   .     S
Cu582  O596    1.965   .     S
Cu582  O600    1.932   .     S
Cu582  N588    2.028   .     S
Cu582  O594    1.965   .     S
Cu582  O598    1.932   .     S
C601   C604    1.451   .     S
C601   O633    1.297   .     A
C601   O636    1.297   .     A
C602   C604    1.401   .     A
C602   H626    1.083   .     S
C602   C699    1.384   1_455 S
C603   C620    1.401   .     A
C603   C619    1.401   .     A
C603   C612    1.451   .     S
C604   C618    1.401   .     A
C605   C609    1.444   .     S
C605   N628    1.372   .     A
C606   C610    1.444   .     S
C606   N627    1.372   .     A
C606   C367    1.427   1_565 S
C607   C611    1.444   .     S
C607   N628    1.372   .     A
C608   C613    1.444   .     S
C608   N627    1.372   .     A
C608   C365    1.427   1_565 S
C609   N629    1.158   .     T
C610   N630    1.158   .     T
C611   N631    1.158   .     T
C612   O634    1.297   .     A
C612   O635    1.297   .     A
C613   N632    1.158   .     T
C614   O637    1.294   .     A
C614   C616    1.409   .     S
C614   O640    1.294   .     A
C615   O638    1.294   .     A
C615   O639    1.294   .     A
C615   C617    1.409   .     S
C617   C976    1.191   .     S
C618   H623    1.083   .     S
C618   C700    1.384   1_455 S
C619   H624    1.083   .     S
C619   C642    1.384   .     S
C620   H625    1.083   .     S
C620   C658    1.384   .     S
Cu621  O635    1.965   .     S
Cu621  O639    1.932   .     S
Cu621  N627    2.028   .     S
Cu621  Cu622   2.698   .     S
Cu621  O633    1.965   .     S
Cu621  O637    1.932   .     S
Cu622  O636    1.965   .     S
Cu622  O640    1.932   .     S
Cu622  N628    2.028   .     S
Cu622  O634    1.965   .     S
Cu622  O638    1.932   .     S
C641   C644    1.451   .     S
C641   O673    1.297   .     A
C641   O676    1.297   .     A
C642   C644    1.401   .     A
C642   H666    1.083   .     S
C643   C660    1.401   .     A
C643   C659    1.401   .     A
C643   C652    1.451   .     S
C644   C658    1.401   .     A
C645   C649    1.444   .     S
C645   N668    1.372   .     A
C646   C650    1.444   .     S
C646   N667    1.372   .     A
C646   C407    1.427   1_565 S
C647   C651    1.444   .     S
C647   N668    1.372   .     A
C648   C653    1.444   .     S
C648   N667    1.372   .     A
C648   C405    1.427   1_565 S
C649   N669    1.158   .     T
C650   N670    1.158   .     T
C651   N671    1.158   .     T
C652   O674    1.297   .     A
C652   O675    1.297   .     A
C653   N672    1.158   .     T
C654   O677    1.294   .     A
C654   C656    1.409   .     S
C654   O680    1.294   .     A
C655   O678    1.294   .     A
C655   O679    1.294   .     A
C655   C657    1.409   .     S
C657   C1016   1.191   .     S
C658   H663    1.083   .     S
C659   H664    1.083   .     S
C659   C682    1.384   .     S
C660   H665    1.083   .     S
C660   C698    1.384   .     S
Cu661  O675    1.965   .     S
Cu661  O679    1.932   .     S
Cu661  N667    2.028   .     S
Cu661  Cu662   2.698   .     S
Cu661  O673    1.965   .     S
Cu661  O677    1.932   .     S
Cu662  O676    1.965   .     S
Cu662  O680    1.932   .     S
Cu662  N668    2.028   .     S
Cu662  O674    1.965   .     S
Cu662  O678    1.932   .     S
C681   C684    1.451   .     S
C681   O713    1.297   .     A
C681   O716    1.297   .     A
C682   C684    1.401   .     A
C682   H706    1.083   .     S
C683   C700    1.401   .     A
C683   C699    1.401   .     A
C683   C692    1.451   .     S
C684   C698    1.401   .     A
C685   C689    1.444   .     S
C685   N708    1.372   .     A
C686   C690    1.444   .     S
C686   N707    1.372   .     A
C686   C447    1.427   1_565 S
C687   C691    1.444   .     S
C687   N708    1.372   .     A
C688   C693    1.444   .     S
C688   N707    1.372   .     A
C688   C445    1.427   1_565 S
C689   N709    1.158   .     T
C690   N710    1.158   .     T
C691   N711    1.158   .     T
C692   O714    1.297   .     A
C692   O715    1.297   .     A
C693   N712    1.158   .     T
C694   O717    1.294   .     A
C694   C696    1.409   .     S
C694   O720    1.294   .     A
C695   O718    1.294   .     A
C695   O719    1.294   .     A
C695   C697    1.409   .     S
C697   C1056   1.191   .     S
C698   H703    1.083   .     S
C699   H704    1.083   .     S
C699   C602    1.384   1_655 S
C700   H705    1.083   .     S
C700   C618    1.384   1_655 S
Cu701  O715    1.965   .     S
Cu701  O719    1.932   .     S
Cu701  N707    2.028   .     S
Cu701  Cu702   2.698   .     S
Cu701  O713    1.965   .     S
Cu701  O717    1.932   .     S
Cu702  O716    1.965   .     S
Cu702  O720    1.932   .     S
Cu702  N708    2.028   .     S
Cu702  O714    1.965   .     S
Cu702  O718    1.932   .     S
C721   C724    1.451   .     S
C721   O753    1.297   .     A
C721   O756    1.297   .     A
C722   C724    1.401   .     A
C722   H746    1.083   .     S
C722   C819    1.384   1_455 S
C723   C740    1.401   .     A
C723   C739    1.401   .     A
C723   C732    1.451   .     S
C724   C738    1.401   .     A
C725   C729    1.444   .     S
C725   N748    1.372   .     A
C725   C968    1.427   1_545 S
C726   C730    1.444   .     S
C726   N747    1.372   .     A
C726   C847    1.427   .     S
C727   C731    1.444   .     S
C727   N748    1.372   .     A
C727   C966    1.427   1_545 S
C728   C733    1.444   .     S
C728   N747    1.372   .     A
C728   C845    1.427   .     S
C729   N749    1.158   .     T
C730   N750    1.158   .     T
C731   N751    1.158   .     T
C732   O754    1.297   .     A
C732   O755    1.297   .     A
C733   N752    1.158   .     T
C734   O757    1.294   .     A
C734   C736    1.409   .     S
C734   O760    1.294   .     A
C735   O758    1.294   .     A
C735   O759    1.294   .     A
C735   C737    1.409   .     S
C737   C16     1.191   1_556 S
C738   H743    1.083   .     S
C738   C820    1.384   1_455 S
C739   H744    1.083   .     S
C739   C762    1.384   .     S
C740   H745    1.083   .     S
C740   C778    1.384   .     S
Cu741  O755    1.965   .     S
Cu741  O759    1.932   .     S
Cu741  N747    2.028   .     S
Cu741  Cu742   2.698   .     S
Cu741  O753    1.965   .     S
Cu741  O757    1.932   .     S
Cu742  O756    1.965   .     S
Cu742  O760    1.932   .     S
Cu742  N748    2.028   .     S
Cu742  O754    1.965   .     S
Cu742  O758    1.932   .     S
C761   C764    1.451   .     S
C761   O793    1.297   .     A
C761   O796    1.297   .     A
C762   C764    1.401   .     A
C762   H786    1.083   .     S
C763   C780    1.401   .     A
C763   C779    1.401   .     A
C763   C772    1.451   .     S
C764   C778    1.401   .     A
C765   C769    1.444   .     S
C765   N788    1.372   .     A
C765   C1008   1.427   1_545 S
C766   C770    1.444   .     S
C766   N787    1.372   .     A
C766   C887    1.427   .     S
C767   C771    1.444   .     S
C767   N788    1.372   .     A
C767   C1006   1.427   1_545 S
C768   C773    1.444   .     S
C768   N787    1.372   .     A
C768   C885    1.427   .     S
C769   N789    1.158   .     T
C770   N790    1.158   .     T
C771   N791    1.158   .     T
C772   O794    1.297   .     A
C772   O795    1.297   .     A
C773   N792    1.158   .     T
C774   O797    1.294   .     A
C774   C776    1.409   .     S
C774   O800    1.294   .     A
C775   O798    1.294   .     A
C775   O799    1.294   .     A
C775   C777    1.409   .     S
C777   C56     1.191   1_556 S
C778   H783    1.083   .     S
C779   H784    1.083   .     S
C779   C802    1.384   .     S
C780   H785    1.083   .     S
C780   C818    1.384   .     S
Cu781  O795    1.965   .     S
Cu781  O799    1.932   .     S
Cu781  N787    2.028   .     S
Cu781  Cu782   2.698   .     S
Cu781  O793    1.965   .     S
Cu781  O797    1.932   .     S
Cu782  O796    1.965   .     S
Cu782  O800    1.932   .     S
Cu782  N788    2.028   .     S
Cu782  O794    1.965   .     S
Cu782  O798    1.932   .     S
C801   C804    1.451   .     S
C801   O833    1.297   .     A
C801   O836    1.297   .     A
C802   C804    1.401   .     A
C802   H826    1.083   .     S
C803   C820    1.401   .     A
C803   C819    1.401   .     A
C803   C812    1.451   .     S
C804   C818    1.401   .     A
C805   C809    1.444   .     S
C805   N828    1.372   .     A
C805   C1048   1.427   1_545 S
C806   C810    1.444   .     S
C806   N827    1.372   .     A
C806   C927    1.427   .     S
C807   C811    1.444   .     S
C807   N828    1.372   .     A
C807   C1046   1.427   1_545 S
C808   C813    1.444   .     S
C808   N827    1.372   .     A
C808   C925    1.427   .     S
C809   N829    1.158   .     T
C810   N830    1.158   .     T
C811   N831    1.158   .     T
C812   O834    1.297   .     A
C812   O835    1.297   .     A
C813   N832    1.158   .     T
C814   O837    1.294   .     A
C814   C816    1.409   .     S
C814   O840    1.294   .     A
C815   O838    1.294   .     A
C815   O839    1.294   .     A
C815   C817    1.409   .     S
C817   C96     1.191   1_556 S
C818   H823    1.083   .     S
C819   H824    1.083   .     S
C819   C722    1.384   1_655 S
C820   H825    1.083   .     S
C820   C738    1.384   1_655 S
Cu821  O835    1.965   .     S
Cu821  O839    1.932   .     S
Cu821  N827    2.028   .     S
Cu821  Cu822   2.698   .     S
Cu821  O833    1.965   .     S
Cu821  O837    1.932   .     S
Cu822  O836    1.965   .     S
Cu822  O840    1.932   .     S
Cu822  N828    2.028   .     S
Cu822  O834    1.965   .     S
Cu822  O838    1.932   .     S
C841   C844    1.451   .     S
C841   O873    1.297   .     A
C841   O876    1.297   .     A
C842   C844    1.401   .     A
C842   H866    1.083   .     S
C842   C939    1.384   1_455 S
C843   C860    1.401   .     A
C843   C859    1.401   .     A
C843   C852    1.451   .     S
C844   C858    1.401   .     A
C845   C849    1.444   .     S
C845   N868    1.372   .     A
C846   C850    1.444   .     S
C846   N867    1.372   .     A
C846   C967    1.427   .     S
C847   C851    1.444   .     S
C847   N868    1.372   .     A
C848   C853    1.444   .     S
C848   N867    1.372   .     A
C848   C965    1.427   .     S
C849   N869    1.158   .     T
C850   N870    1.158   .     T
C851   N871    1.158   .     T
C852   O874    1.297   .     A
C852   O875    1.297   .     A
C853   N872    1.158   .     T
C854   O877    1.294   .     A
C854   C856    1.409   .     S
C854   O880    1.294   .     A
C855   O878    1.294   .     A
C855   O879    1.294   .     A
C855   C857    1.409   .     S
C857   C136    1.191   1_556 S
C858   H863    1.083   .     S
C858   C940    1.384   1_455 S
C859   H864    1.083   .     S
C859   C882    1.384   .     S
C860   H865    1.083   .     S
C860   C898    1.384   .     S
Cu861  O875    1.965   .     S
Cu861  O879    1.932   .     S
Cu861  N867    2.028   .     S
Cu861  Cu862   2.698   .     S
Cu861  O873    1.965   .     S
Cu861  O877    1.932   .     S
Cu862  O876    1.965   .     S
Cu862  O880    1.932   .     S
Cu862  N868    2.028   .     S
Cu862  O874    1.965   .     S
Cu862  O878    1.932   .     S
C881   C884    1.451   .     S
C881   O913    1.297   .     A
C881   O916    1.297   .     A
C882   C884    1.401   .     A
C882   H906    1.083   .     S
C883   C900    1.401   .     A
C883   C899    1.401   .     A
C883   C892    1.451   .     S
C884   C898    1.401   .     A
C885   C889    1.444   .     S
C885   N908    1.372   .     A
C886   C890    1.444   .     S
C886   N907    1.372   .     A
C886   C1007   1.427   .     S
C887   C891    1.444   .     S
C887   N908    1.372   .     A
C888   C893    1.444   .     S
C888   N907    1.372   .     A
C888   C1005   1.427   .     S
C889   N909    1.158   .     T
C890   N910    1.158   .     T
C891   N911    1.158   .     T
C892   O914    1.297   .     A
C892   O915    1.297   .     A
C893   N912    1.158   .     T
C894   O917    1.294   .     A
C894   C896    1.409   .     S
C894   O920    1.294   .     A
C895   O918    1.294   .     A
C895   O919    1.294   .     A
C895   C897    1.409   .     S
C897   C176    1.191   1_556 S
C898   H903    1.083   .     S
C899   H904    1.083   .     S
C899   C922    1.384   .     S
C900   H905    1.083   .     S
C900   C938    1.384   .     S
Cu901  O915    1.965   .     S
Cu901  O919    1.932   .     S
Cu901  N907    2.028   .     S
Cu901  Cu902   2.698   .     S
Cu901  O913    1.965   .     S
Cu901  O917    1.932   .     S
Cu902  O916    1.965   .     S
Cu902  O920    1.932   .     S
Cu902  N908    2.028   .     S
Cu902  O914    1.965   .     S
Cu902  O918    1.932   .     S
C921   C924    1.451   .     S
C921   O953    1.297   .     A
C921   O956    1.297   .     A
C922   C924    1.401   .     A
C922   H946    1.083   .     S
C923   C940    1.401   .     A
C923   C939    1.401   .     A
C923   C932    1.451   .     S
C924   C938    1.401   .     A
C925   C929    1.444   .     S
C925   N948    1.372   .     A
C926   C930    1.444   .     S
C926   N947    1.372   .     A
C926   C1047   1.427   .     S
C927   C931    1.444   .     S
C927   N948    1.372   .     A
C928   C933    1.444   .     S
C928   N947    1.372   .     A
C928   C1045   1.427   .     S
C929   N949    1.158   .     T
C930   N950    1.158   .     T
C931   N951    1.158   .     T
C932   O954    1.297   .     A
C932   O955    1.297   .     A
C933   N952    1.158   .     T
C934   O957    1.294   .     A
C934   C936    1.409   .     S
C934   O960    1.294   .     A
C935   O958    1.294   .     A
C935   O959    1.294   .     A
C935   C937    1.409   .     S
C937   C216    1.191   1_556 S
C938   H943    1.083   .     S
C939   H944    1.083   .     S
C939   C842    1.384   1_655 S
C940   H945    1.083   .     S
C940   C858    1.384   1_655 S
Cu941  O955    1.965   .     S
Cu941  O959    1.932   .     S
Cu941  N947    2.028   .     S
Cu941  Cu942   2.698   .     S
Cu941  O953    1.965   .     S
Cu941  O957    1.932   .     S
Cu942  O956    1.965   .     S
Cu942  O960    1.932   .     S
Cu942  N948    2.028   .     S
Cu942  O954    1.965   .     S
Cu942  O958    1.932   .     S
C961   C964    1.451   .     S
C961   O993    1.297   .     A
C961   O996    1.297   .     A
C962   C964    1.401   .     A
C962   H986    1.083   .     S
C962   C1059   1.384   1_455 S
C963   C980    1.401   .     A
C963   C979    1.401   .     A
C963   C972    1.451   .     S
C964   C978    1.401   .     A
C965   C969    1.444   .     S
C965   N988    1.372   .     A
C966   C970    1.444   .     S
C966   N987    1.372   .     A
C966   C727    1.427   1_565 S
C967   C971    1.444   .     S
C967   N988    1.372   .     A
C968   C973    1.444   .     S
C968   N987    1.372   .     A
C968   C725    1.427   1_565 S
C969   N989    1.158   .     T
C970   N990    1.158   .     T
C971   N991    1.158   .     T
C972   O994    1.297   .     A
C972   O995    1.297   .     A
C973   N992    1.158   .     T
C974   O997    1.294   .     A
C974   C976    1.409   .     S
C974   O1000   1.294   .     A
C975   O998    1.294   .     A
C975   O999    1.294   .     A
C975   C977    1.409   .     S
C977   C256    1.191   1_556 S
C978   H983    1.083   .     S
C978   C1060   1.384   1_455 S
C979   H984    1.083   .     S
C979   C1002   1.384   .     S
C980   H985    1.083   .     S
C980   C1018   1.384   .     S
Cu981  O995    1.965   .     S
Cu981  O999    1.932   .     S
Cu981  N987    2.028   .     S
Cu981  Cu982   2.698   .     S
Cu981  O993    1.965   .     S
Cu981  O997    1.932   .     S
Cu982  O996    1.965   .     S
Cu982  O1000   1.932   .     S
Cu982  N988    2.028   .     S
Cu982  O994    1.965   .     S
Cu982  O998    1.932   .     S
C1001  C1004   1.451   .     S
C1001  O1033   1.297   .     A
C1001  O1036   1.297   .     A
C1002  C1004   1.401   .     A
C1002  H1026   1.083   .     S
C1003  C1020   1.401   .     A
C1003  C1019   1.401   .     A
C1003  C1012   1.451   .     S
C1004  C1018   1.401   .     A
C1005  C1009   1.444   .     S
C1005  N1028   1.372   .     A
C1006  C1010   1.444   .     S
C1006  N1027   1.372   .     A
C1006  C767    1.427   1_565 S
C1007  C1011   1.444   .     S
C1007  N1028   1.372   .     A
C1008  C1013   1.444   .     S
C1008  N1027   1.372   .     A
C1008  C765    1.427   1_565 S
C1009  N1029   1.158   .     T
C1010  N1030   1.158   .     T
C1011  N1031   1.158   .     T
C1012  O1034   1.297   .     A
C1012  O1035   1.297   .     A
C1013  N1032   1.158   .     T
C1014  O1037   1.294   .     A
C1014  C1016   1.409   .     S
C1014  O1040   1.294   .     A
C1015  O1038   1.294   .     A
C1015  O1039   1.294   .     A
C1015  C1017   1.409   .     S
C1017  C296    1.191   1_556 S
C1018  H1023   1.083   .     S
C1019  H1024   1.083   .     S
C1019  C1042   1.384   .     S
C1020  H1025   1.083   .     S
C1020  C1058   1.384   .     S
Cu1021 O1035   1.965   .     S
Cu1021 O1039   1.932   .     S
Cu1021 N1027   2.028   .     S
Cu1021 Cu1022  2.698   .     S
Cu1021 O1033   1.965   .     S
Cu1021 O1037   1.932   .     S
Cu1022 O1036   1.965   .     S
Cu1022 O1040   1.932   .     S
Cu1022 N1028   2.028   .     S
Cu1022 O1034   1.965   .     S
Cu1022 O1038   1.932   .     S
C1041  C1044   1.451   .     S
C1041  O1073   1.297   .     A
C1041  O1076   1.297   .     A
C1042  C1044   1.401   .     A
C1042  H1066   1.083   .     S
C1043  C1060   1.401   .     A
C1043  C1059   1.401   .     A
C1043  C1052   1.451   .     S
C1044  C1058   1.401   .     A
C1045  C1049   1.444   .     S
C1045  N1068   1.372   .     A
C1046  C1050   1.444   .     S
C1046  N1067   1.372   .     A
C1046  C807    1.427   1_565 S
C1047  C1051   1.444   .     S
C1047  N1068   1.372   .     A
C1048  C1053   1.444   .     S
C1048  N1067   1.372   .     A
C1048  C805    1.427   1_565 S
C1049  N1069   1.158   .     T
C1050  N1070   1.158   .     T
C1051  N1071   1.158   .     T
C1052  O1074   1.297   .     A
C1052  O1075   1.297   .     A
C1053  N1072   1.158   .     T
C1054  O1077   1.294   .     A
C1054  C1056   1.409   .     S
C1054  O1080   1.294   .     A
C1055  O1078   1.294   .     A
C1055  O1079   1.294   .     A
C1055  C1057   1.409   .     S
C1057  C336    1.191   1_556 S
C1058  H1063   1.083   .     S
C1059  H1064   1.083   .     S
C1059  C962    1.384   1_655 S
C1060  H1065   1.083   .     S
C1060  C978    1.384   1_655 S
Cu1061 O1075   1.965   .     S
Cu1061 O1079   1.932   .     S
Cu1061 N1067   2.028   .     S
Cu1061 Cu1062  2.698   .     S
Cu1061 O1073   1.965   .     S
Cu1061 O1077   1.932   .     S
Cu1062 O1076   1.965   .     S
Cu1062 O1080   1.932   .     S
Cu1062 N1068   2.028   .     S
Cu1062 O1074   1.965   .     S
Cu1062 O1078   1.932   .     S
