data_str_m2_o1_o18_pcu_sym.20
_audit_creation_date              2020-01-03
_audit_creation_method            'Materials Studio'
_symmetry_space_group_name_H-M    'P1'
_symmetry_Int_Tables_number       1
_symmetry_cell_setting            triclinic
loop_
_symmetry_equiv_pos_as_xyz
  x,y,z
_cell_length_a                    28.7607
_cell_length_b                    32.3671
_cell_length_c                    31.8679
_cell_angle_alpha                 89.9270
_cell_angle_beta                  72.4411
_cell_angle_gamma                 90.1462
loop_
_atom_site_label
_atom_site_type_symbol
_atom_site_fract_x
_atom_site_fract_y
_atom_site_fract_z
_atom_site_U_iso_or_equiv
_atom_site_adp_type
_atom_site_occupancy
C1     C     0.33283   0.08752   0.25127   0.00000  Uiso   1.00
C2     C     0.02205   0.02036   0.27835   0.00000  Uiso   1.00
C3     C     0.00115   0.29049   0.24767   0.00000  Uiso   1.00
C4     C     0.33218   0.04286   0.25234   0.00000  Uiso   1.00
C5     C     0.18186   0.14195   0.27827   0.00000  Uiso   1.00
C6     C     0.15143   0.19151   0.22187   0.00000  Uiso   1.00
C7     C     0.13243   0.14193   0.27823   0.00000  Uiso   1.00
C8     C     0.20089   0.19145   0.22182   0.00000  Uiso   1.00
C9     C     0.30515   0.16588   0.33551   0.00000  Uiso   1.00
C10    C     0.02815   0.16595   0.16449   0.00000  Uiso   1.00
C11    C     0.28791   0.15807   0.38289   0.00000  Uiso   1.00
C12    C     0.00050   0.24582   0.24873   0.00000  Uiso   1.00
C13    C     0.04505   0.15785   0.11721   0.00000  Uiso   1.00
C14    C     0.30070   0.12319   0.44574   0.00000  Uiso   1.00
C15    C     0.03182   0.12206   0.05479   0.00000  Uiso   1.00
C16    C     0.31754   0.13498   0.40180   0.00000  Uiso   1.00
C17    C     0.01574   0.13341   0.09917   0.00000  Uiso   1.00
C18    C     0.23935   0.16704   0.40786   0.00000  Uiso   1.00
C19    C     0.09281   0.16839   0.09140   0.00000  Uiso   1.00
C20    C     0.22241   0.15456   0.45208   0.00000  Uiso   1.00
C21    C     0.10965   0.15518   0.04747   0.00000  Uiso   1.00
C22    C     0.25563   0.13836   0.47234   0.00000  Uiso   1.00
C23    C     0.19580   0.14846   0.04344   0.00000  Uiso   1.00
C24    C     0.07655   0.13733   0.02789   0.00000  Uiso   1.00
C25    C     0.17262   0.15472   0.47651   0.00000  Uiso   1.00
C26    C     0.15947   0.15574   0.02298   0.00000  Uiso   1.00
C27    C     0.13667   0.14478   0.45642   0.00000  Uiso   1.00
C28    C     0.24244   0.13705   0.01832   0.00000  Uiso   1.00
C29    C     0.09026   0.13320   0.48209   0.00000  Uiso   1.00
C30    C     0.30966   0.02236   0.22501   0.00000  Uiso   1.00
C31    C     0.02368   0.31100   0.27498   0.00000  Uiso   1.00
C32    C     0.31124   0.31300   0.22168   0.00000  Uiso   1.00
Cu33   Cu    0.04689   0.16667   0.25000   0.00000  Uiso   1.00
Cu34   Cu    0.28645   0.16666   0.25000   0.00000  Uiso   1.00
H35    H     0.26810   0.12804   0.03509   0.00000  Uiso   1.00
H36    H     0.14055   0.21163   0.19942   0.00000  Uiso   1.00
H37    H     0.10632   0.12202   0.30091   0.00000  Uiso   1.00
H38    H     0.22698   0.21142   0.19921   0.00000  Uiso   1.00
H39    H     0.13108   0.18188   0.12941   0.00000  Uiso   1.00
H40    H     0.19990   0.17667   0.36998   0.00000  Uiso   1.00
H41    H     0.30130   0.07582   0.48215   0.00000  Uiso   1.00
H42    H     0.31352   0.08118   0.06294   0.00000  Uiso   1.00
H43    H     0.30624   0.26766   0.18321   0.00000  Uiso   1.00
H44    H     0.02690   0.06568   0.31689   0.00000  Uiso   1.00
H45    H     0.06545   0.12115   0.46579   0.00000  Uiso   1.00
H46    H     0.31432   0.12190   0.11997   0.00000  Uiso   1.00
H47    H     0.01930   0.12364   0.38172   0.00000  Uiso   1.00
H48    H     0.18721   0.14541   0.07870   0.00000  Uiso   1.00
H49    H     0.14567   0.13964   0.42142   0.00000  Uiso   1.00
H50    H     0.29244   0.03975   0.20467   0.00000  Uiso   1.00
H51    H     0.04093   0.29362   0.29530   0.00000  Uiso   1.00
H52    H     0.19269   0.12207   0.30098   0.00000  Uiso   1.00
N53    N     0.11736   0.16668   0.24999   0.00000  Uiso   1.00
N54    N     0.21597   0.16666   0.25001   0.00000  Uiso   1.00
O55    O     0.03958   0.10655   0.25000   0.00000  Uiso   1.00
O56    O     0.21068   0.19282   0.39173   0.00000  Uiso   1.00
O57    O     0.32544   0.09235   0.45953   0.00000  Uiso   1.00
O58    O     0.00745   0.09251   0.03852   0.00000  Uiso   1.00
O59    O     0.29104   0.29497   0.19195   0.00000  Uiso   1.00
O60    O     0.04216   0.03840   0.30814   0.00000  Uiso   1.00
O61    O     0.29375   0.22678   0.25000   0.00000  Uiso   1.00
O62    O     0.29372   0.10654   0.25000   0.00000  Uiso   1.00
O63    O     0.03961   0.22679   0.24999   0.00000  Uiso   1.00
O64    O     0.01852   0.16668   0.31491   0.00000  Uiso   1.00
O65    O     0.31481   0.16666   0.18508   0.00000  Uiso   1.00
O66    O     0.27267   0.16667   0.31492   0.00000  Uiso   1.00
O67    O     0.06067   0.16667   0.18508   0.00000  Uiso   1.00
O68    O     0.12062   0.19612   0.10632   0.00000  Uiso   1.00
C69    C     0.66617   0.08752   0.25127   0.00000  Uiso   1.00
C70    C     0.35538   0.02036   0.27835   0.00000  Uiso   1.00
C71    C     0.33448   0.29049   0.24767   0.00000  Uiso   1.00
C72    C     0.66551   0.04286   0.25234   0.00000  Uiso   1.00
C73    C     0.51520   0.14195   0.27827   0.00000  Uiso   1.00
C74    C     0.48477   0.19151   0.22187   0.00000  Uiso   1.00
C75    C     0.46576   0.14193   0.27823   0.00000  Uiso   1.00
C76    C     0.53422   0.19145   0.22182   0.00000  Uiso   1.00
C77    C     0.63848   0.16588   0.33551   0.00000  Uiso   1.00
C78    C     0.36148   0.16595   0.16449   0.00000  Uiso   1.00
C79    C     0.62125   0.15807   0.38289   0.00000  Uiso   1.00
C80    C     0.33383   0.24582   0.24873   0.00000  Uiso   1.00
C81    C     0.37838   0.15785   0.11721   0.00000  Uiso   1.00
C82    C     0.63404   0.12319   0.44574   0.00000  Uiso   1.00
C83    C     0.36515   0.12206   0.05479   0.00000  Uiso   1.00
C84    C     0.65087   0.13498   0.40180   0.00000  Uiso   1.00
C85    C     0.34907   0.13341   0.09917   0.00000  Uiso   1.00
C86    C     0.57268   0.16704   0.40786   0.00000  Uiso   1.00
C87    C     0.42614   0.16839   0.09140   0.00000  Uiso   1.00
C88    C     0.55574   0.15456   0.45208   0.00000  Uiso   1.00
C89    C     0.44298   0.15518   0.04747   0.00000  Uiso   1.00
C90    C     0.58896   0.13836   0.47234   0.00000  Uiso   1.00
C91    C     0.52913   0.14846   0.04344   0.00000  Uiso   1.00
C92    C     0.40988   0.13733   0.02789   0.00000  Uiso   1.00
C93    C     0.50595   0.15472   0.47651   0.00000  Uiso   1.00
C94    C     0.49281   0.15574   0.02298   0.00000  Uiso   1.00
C95    C     0.47001   0.14478   0.45642   0.00000  Uiso   1.00
C96    C     0.57577   0.13705   0.01832   0.00000  Uiso   1.00
C97    C     0.42359   0.13320   0.48209   0.00000  Uiso   1.00
C98    C     0.64299   0.02236   0.22501   0.00000  Uiso   1.00
C99    C     0.35701   0.31100   0.27498   0.00000  Uiso   1.00
C100   C     0.64457   0.31300   0.22168   0.00000  Uiso   1.00
Cu101  Cu    0.38022   0.16667   0.25000   0.00000  Uiso   1.00
Cu102  Cu    0.61978   0.16666   0.25000   0.00000  Uiso   1.00
H103   H     0.60143   0.12804   0.03509   0.00000  Uiso   1.00
H104   H     0.47388   0.21163   0.19942   0.00000  Uiso   1.00
H105   H     0.43965   0.12202   0.30091   0.00000  Uiso   1.00
H106   H     0.56031   0.21142   0.19921   0.00000  Uiso   1.00
H107   H     0.46441   0.18188   0.12941   0.00000  Uiso   1.00
H108   H     0.53323   0.17667   0.36998   0.00000  Uiso   1.00
H109   H     0.63464   0.07582   0.48215   0.00000  Uiso   1.00
H110   H     0.64686   0.08118   0.06294   0.00000  Uiso   1.00
H111   H     0.63958   0.26766   0.18321   0.00000  Uiso   1.00
H112   H     0.36023   0.06568   0.31689   0.00000  Uiso   1.00
H113   H     0.39878   0.12115   0.46579   0.00000  Uiso   1.00
H114   H     0.64766   0.12190   0.11997   0.00000  Uiso   1.00
H115   H     0.35263   0.12364   0.38172   0.00000  Uiso   1.00
H116   H     0.52054   0.14541   0.07870   0.00000  Uiso   1.00
H117   H     0.47900   0.13964   0.42142   0.00000  Uiso   1.00
H118   H     0.62577   0.03975   0.20467   0.00000  Uiso   1.00
H119   H     0.37426   0.29362   0.29530   0.00000  Uiso   1.00
H120   H     0.52602   0.12207   0.30098   0.00000  Uiso   1.00
N121   N     0.45069   0.16668   0.24999   0.00000  Uiso   1.00
N122   N     0.54931   0.16666   0.25001   0.00000  Uiso   1.00
O123   O     0.37291   0.10655   0.25000   0.00000  Uiso   1.00
O124   O     0.54401   0.19282   0.39173   0.00000  Uiso   1.00
O125   O     0.65877   0.09235   0.45953   0.00000  Uiso   1.00
O126   O     0.34079   0.09251   0.03852   0.00000  Uiso   1.00
O127   O     0.62438   0.29497   0.19195   0.00000  Uiso   1.00
O128   O     0.37549   0.03840   0.30814   0.00000  Uiso   1.00
O129   O     0.62709   0.22678   0.25000   0.00000  Uiso   1.00
O130   O     0.62706   0.10654   0.25000   0.00000  Uiso   1.00
O131   O     0.37294   0.22679   0.24999   0.00000  Uiso   1.00
O132   O     0.35186   0.16668   0.31491   0.00000  Uiso   1.00
O133   O     0.64814   0.16666   0.18508   0.00000  Uiso   1.00
O134   O     0.60600   0.16667   0.31492   0.00000  Uiso   1.00
O135   O     0.39400   0.16667   0.18508   0.00000  Uiso   1.00
O136   O     0.45395   0.19612   0.10632   0.00000  Uiso   1.00
C137   C     0.99950   0.08752   0.25127   0.00000  Uiso   1.00
C138   C     0.68872   0.02036   0.27835   0.00000  Uiso   1.00
C139   C     0.66781   0.29049   0.24767   0.00000  Uiso   1.00
C140   C     0.99884   0.04286   0.25234   0.00000  Uiso   1.00
C141   C     0.84853   0.14195   0.27827   0.00000  Uiso   1.00
C142   C     0.81810   0.19151   0.22187   0.00000  Uiso   1.00
C143   C     0.79909   0.14193   0.27823   0.00000  Uiso   1.00
C144   C     0.86756   0.19145   0.22182   0.00000  Uiso   1.00
C145   C     0.97181   0.16588   0.33551   0.00000  Uiso   1.00
C146   C     0.69482   0.16595   0.16449   0.00000  Uiso   1.00
C147   C     0.95458   0.15807   0.38289   0.00000  Uiso   1.00
C148   C     0.66716   0.24582   0.24873   0.00000  Uiso   1.00
C149   C     0.71171   0.15785   0.11721   0.00000  Uiso   1.00
C150   C     0.96737   0.12319   0.44574   0.00000  Uiso   1.00
C151   C     0.69848   0.12206   0.05479   0.00000  Uiso   1.00
C152   C     0.98421   0.13498   0.40180   0.00000  Uiso   1.00
C153   C     0.68241   0.13341   0.09917   0.00000  Uiso   1.00
C154   C     0.90601   0.16704   0.40786   0.00000  Uiso   1.00
C155   C     0.75947   0.16839   0.09140   0.00000  Uiso   1.00
C156   C     0.88907   0.15456   0.45208   0.00000  Uiso   1.00
C157   C     0.77632   0.15518   0.04747   0.00000  Uiso   1.00
C158   C     0.92230   0.13836   0.47234   0.00000  Uiso   1.00
C159   C     0.86246   0.14846   0.04344   0.00000  Uiso   1.00
C160   C     0.74321   0.13733   0.02789   0.00000  Uiso   1.00
C161   C     0.83928   0.15472   0.47651   0.00000  Uiso   1.00
C162   C     0.82614   0.15574   0.02298   0.00000  Uiso   1.00
C163   C     0.80334   0.14478   0.45642   0.00000  Uiso   1.00
C164   C     0.90910   0.13705   0.01832   0.00000  Uiso   1.00
C165   C     0.75692   0.13320   0.48209   0.00000  Uiso   1.00
C166   C     0.97632   0.02236   0.22501   0.00000  Uiso   1.00
C167   C     0.69035   0.31100   0.27498   0.00000  Uiso   1.00
C168   C     0.97791   0.31300   0.22168   0.00000  Uiso   1.00
Cu169  Cu    0.71355   0.16667   0.25000   0.00000  Uiso   1.00
Cu170  Cu    0.95311   0.16666   0.25000   0.00000  Uiso   1.00
H171   H     0.93476   0.12804   0.03509   0.00000  Uiso   1.00
H172   H     0.80722   0.21163   0.19942   0.00000  Uiso   1.00
H173   H     0.77298   0.12202   0.30091   0.00000  Uiso   1.00
H174   H     0.89364   0.21142   0.19921   0.00000  Uiso   1.00
H175   H     0.79774   0.18188   0.12941   0.00000  Uiso   1.00
H176   H     0.86657   0.17667   0.36998   0.00000  Uiso   1.00
H177   H     0.96797   0.07582   0.48215   0.00000  Uiso   1.00
H178   H     0.98019   0.08118   0.06294   0.00000  Uiso   1.00
H179   H     0.97291   0.26766   0.18321   0.00000  Uiso   1.00
H180   H     0.69357   0.06568   0.31689   0.00000  Uiso   1.00
H181   H     0.73212   0.12115   0.46579   0.00000  Uiso   1.00
H182   H     0.98099   0.12190   0.11997   0.00000  Uiso   1.00
H183   H     0.68596   0.12364   0.38172   0.00000  Uiso   1.00
H184   H     0.85388   0.14541   0.07870   0.00000  Uiso   1.00
H185   H     0.81234   0.13964   0.42142   0.00000  Uiso   1.00
H186   H     0.95910   0.03975   0.20467   0.00000  Uiso   1.00
H187   H     0.70759   0.29362   0.29530   0.00000  Uiso   1.00
H188   H     0.85935   0.12207   0.30098   0.00000  Uiso   1.00
N189   N     0.78403   0.16668   0.24999   0.00000  Uiso   1.00
N190   N     0.88264   0.16666   0.25001   0.00000  Uiso   1.00
O191   O     0.70625   0.10655   0.25000   0.00000  Uiso   1.00
O192   O     0.87735   0.19282   0.39173   0.00000  Uiso   1.00
O193   O     0.99211   0.09235   0.45953   0.00000  Uiso   1.00
O194   O     0.67412   0.09251   0.03852   0.00000  Uiso   1.00
O195   O     0.95771   0.29497   0.19195   0.00000  Uiso   1.00
O196   O     0.70883   0.03840   0.30814   0.00000  Uiso   1.00
O197   O     0.96042   0.22678   0.25000   0.00000  Uiso   1.00
O198   O     0.96039   0.10654   0.25000   0.00000  Uiso   1.00
O199   O     0.70628   0.22679   0.24999   0.00000  Uiso   1.00
O200   O     0.68519   0.16668   0.31491   0.00000  Uiso   1.00
O201   O     0.98148   0.16666   0.18508   0.00000  Uiso   1.00
O202   O     0.93933   0.16667   0.31492   0.00000  Uiso   1.00
O203   O     0.72733   0.16667   0.18508   0.00000  Uiso   1.00
O204   O     0.78729   0.19612   0.10632   0.00000  Uiso   1.00
C205   C     0.33283   0.42085   0.25127   0.00000  Uiso   1.00
C206   C     0.02205   0.35369   0.27835   0.00000  Uiso   1.00
C207   C     0.00115   0.62383   0.24767   0.00000  Uiso   1.00
C208   C     0.33218   0.37619   0.25234   0.00000  Uiso   1.00
C209   C     0.18186   0.47528   0.27827   0.00000  Uiso   1.00
C210   C     0.15143   0.52484   0.22187   0.00000  Uiso   1.00
C211   C     0.13243   0.47527   0.27823   0.00000  Uiso   1.00
C212   C     0.20089   0.52478   0.22182   0.00000  Uiso   1.00
C213   C     0.30515   0.49921   0.33551   0.00000  Uiso   1.00
C214   C     0.02815   0.49928   0.16449   0.00000  Uiso   1.00
C215   C     0.28791   0.49140   0.38289   0.00000  Uiso   1.00
C216   C     0.00050   0.57916   0.24873   0.00000  Uiso   1.00
C217   C     0.04505   0.49118   0.11721   0.00000  Uiso   1.00
C218   C     0.30070   0.45653   0.44574   0.00000  Uiso   1.00
C219   C     0.03182   0.45540   0.05479   0.00000  Uiso   1.00
C220   C     0.31754   0.46831   0.40180   0.00000  Uiso   1.00
C221   C     0.01574   0.46675   0.09917   0.00000  Uiso   1.00
C222   C     0.23935   0.50037   0.40786   0.00000  Uiso   1.00
C223   C     0.09281   0.50172   0.09140   0.00000  Uiso   1.00
C224   C     0.22241   0.48790   0.45208   0.00000  Uiso   1.00
C225   C     0.10965   0.48851   0.04747   0.00000  Uiso   1.00
C226   C     0.25563   0.47169   0.47234   0.00000  Uiso   1.00
C227   C     0.19580   0.48179   0.04344   0.00000  Uiso   1.00
C228   C     0.07655   0.47066   0.02789   0.00000  Uiso   1.00
C229   C     0.17262   0.48805   0.47651   0.00000  Uiso   1.00
C230   C     0.15947   0.48907   0.02298   0.00000  Uiso   1.00
C231   C     0.13667   0.47812   0.45642   0.00000  Uiso   1.00
C232   C     0.24244   0.47039   0.01832   0.00000  Uiso   1.00
C233   C     0.09026   0.46653   0.48209   0.00000  Uiso   1.00
C234   C     0.30966   0.35569   0.22501   0.00000  Uiso   1.00
C235   C     0.02368   0.64433   0.27498   0.00000  Uiso   1.00
C236   C     0.31124   0.64634   0.22168   0.00000  Uiso   1.00
Cu237  Cu    0.04689   0.50001   0.25000   0.00000  Uiso   1.00
Cu238  Cu    0.28645   0.49999   0.25000   0.00000  Uiso   1.00
H239   H     0.26810   0.46137   0.03509   0.00000  Uiso   1.00
H240   H     0.14055   0.54497   0.19942   0.00000  Uiso   1.00
H241   H     0.10632   0.45535   0.30091   0.00000  Uiso   1.00
H242   H     0.22698   0.54475   0.19921   0.00000  Uiso   1.00
H243   H     0.13108   0.51522   0.12941   0.00000  Uiso   1.00
H244   H     0.19990   0.51000   0.36998   0.00000  Uiso   1.00
H245   H     0.30130   0.40916   0.48215   0.00000  Uiso   1.00
H246   H     0.31352   0.41452   0.06294   0.00000  Uiso   1.00
H247   H     0.30624   0.60100   0.18321   0.00000  Uiso   1.00
H248   H     0.02690   0.39902   0.31689   0.00000  Uiso   1.00
H249   H     0.06545   0.45448   0.46579   0.00000  Uiso   1.00
H250   H     0.31432   0.45523   0.11997   0.00000  Uiso   1.00
H251   H     0.01930   0.45698   0.38172   0.00000  Uiso   1.00
H252   H     0.18721   0.47875   0.07870   0.00000  Uiso   1.00
H253   H     0.14567   0.47297   0.42142   0.00000  Uiso   1.00
H254   H     0.29244   0.37308   0.20467   0.00000  Uiso   1.00
H255   H     0.04093   0.62695   0.29530   0.00000  Uiso   1.00
H256   H     0.19269   0.45540   0.30098   0.00000  Uiso   1.00
N257   N     0.11736   0.50001   0.24999   0.00000  Uiso   1.00
N258   N     0.21597   0.49999   0.25001   0.00000  Uiso   1.00
O259   O     0.03958   0.43989   0.25000   0.00000  Uiso   1.00
O260   O     0.21068   0.52615   0.39173   0.00000  Uiso   1.00
O261   O     0.32544   0.42568   0.45953   0.00000  Uiso   1.00
O262   O     0.00745   0.42584   0.03852   0.00000  Uiso   1.00
O263   O     0.29104   0.62830   0.19195   0.00000  Uiso   1.00
O264   O     0.04216   0.37173   0.30814   0.00000  Uiso   1.00
O265   O     0.29375   0.56011   0.25000   0.00000  Uiso   1.00
O266   O     0.29372   0.43988   0.25000   0.00000  Uiso   1.00
O267   O     0.03961   0.56012   0.24999   0.00000  Uiso   1.00
O268   O     0.01852   0.50001   0.31491   0.00000  Uiso   1.00
O269   O     0.31481   0.49999   0.18508   0.00000  Uiso   1.00
O270   O     0.27267   0.50000   0.31492   0.00000  Uiso   1.00
O271   O     0.06067   0.50000   0.18508   0.00000  Uiso   1.00
O272   O     0.12062   0.52945   0.10632   0.00000  Uiso   1.00
C273   C     0.66617   0.42085   0.25127   0.00000  Uiso   1.00
C274   C     0.35538   0.35369   0.27835   0.00000  Uiso   1.00
C275   C     0.33448   0.62383   0.24767   0.00000  Uiso   1.00
C276   C     0.66551   0.37619   0.25234   0.00000  Uiso   1.00
C277   C     0.51520   0.47528   0.27827   0.00000  Uiso   1.00
C278   C     0.48477   0.52484   0.22187   0.00000  Uiso   1.00
C279   C     0.46576   0.47527   0.27823   0.00000  Uiso   1.00
C280   C     0.53422   0.52478   0.22182   0.00000  Uiso   1.00
C281   C     0.63848   0.49921   0.33551   0.00000  Uiso   1.00
C282   C     0.36148   0.49928   0.16449   0.00000  Uiso   1.00
C283   C     0.62125   0.49140   0.38289   0.00000  Uiso   1.00
C284   C     0.33383   0.57916   0.24873   0.00000  Uiso   1.00
C285   C     0.37838   0.49118   0.11721   0.00000  Uiso   1.00
C286   C     0.63404   0.45653   0.44574   0.00000  Uiso   1.00
C287   C     0.36515   0.45540   0.05479   0.00000  Uiso   1.00
C288   C     0.65087   0.46831   0.40180   0.00000  Uiso   1.00
C289   C     0.34907   0.46675   0.09917   0.00000  Uiso   1.00
C290   C     0.57268   0.50037   0.40786   0.00000  Uiso   1.00
C291   C     0.42614   0.50172   0.09140   0.00000  Uiso   1.00
C292   C     0.55574   0.48790   0.45208   0.00000  Uiso   1.00
C293   C     0.44298   0.48851   0.04747   0.00000  Uiso   1.00
C294   C     0.58896   0.47169   0.47234   0.00000  Uiso   1.00
C295   C     0.52913   0.48179   0.04344   0.00000  Uiso   1.00
C296   C     0.40988   0.47066   0.02789   0.00000  Uiso   1.00
C297   C     0.50595   0.48805   0.47651   0.00000  Uiso   1.00
C298   C     0.49281   0.48907   0.02298   0.00000  Uiso   1.00
C299   C     0.47001   0.47812   0.45642   0.00000  Uiso   1.00
C300   C     0.57577   0.47039   0.01832   0.00000  Uiso   1.00
C301   C     0.42359   0.46653   0.48209   0.00000  Uiso   1.00
C302   C     0.64299   0.35569   0.22501   0.00000  Uiso   1.00
C303   C     0.35701   0.64433   0.27498   0.00000  Uiso   1.00
C304   C     0.64457   0.64634   0.22168   0.00000  Uiso   1.00
Cu305  Cu    0.38022   0.50001   0.25000   0.00000  Uiso   1.00
Cu306  Cu    0.61978   0.49999   0.25000   0.00000  Uiso   1.00
H307   H     0.60143   0.46137   0.03509   0.00000  Uiso   1.00
H308   H     0.47388   0.54497   0.19942   0.00000  Uiso   1.00
H309   H     0.43965   0.45535   0.30091   0.00000  Uiso   1.00
H310   H     0.56031   0.54475   0.19921   0.00000  Uiso   1.00
H311   H     0.46441   0.51522   0.12941   0.00000  Uiso   1.00
H312   H     0.53323   0.51000   0.36998   0.00000  Uiso   1.00
H313   H     0.63464   0.40916   0.48215   0.00000  Uiso   1.00
H314   H     0.64686   0.41452   0.06294   0.00000  Uiso   1.00
H315   H     0.63958   0.60100   0.18321   0.00000  Uiso   1.00
H316   H     0.36023   0.39902   0.31689   0.00000  Uiso   1.00
H317   H     0.39878   0.45448   0.46579   0.00000  Uiso   1.00
H318   H     0.64766   0.45523   0.11997   0.00000  Uiso   1.00
H319   H     0.35263   0.45698   0.38172   0.00000  Uiso   1.00
H320   H     0.52054   0.47875   0.07870   0.00000  Uiso   1.00
H321   H     0.47900   0.47297   0.42142   0.00000  Uiso   1.00
H322   H     0.62577   0.37308   0.20467   0.00000  Uiso   1.00
H323   H     0.37426   0.62695   0.29530   0.00000  Uiso   1.00
H324   H     0.52602   0.45540   0.30098   0.00000  Uiso   1.00
N325   N     0.45069   0.50001   0.24999   0.00000  Uiso   1.00
N326   N     0.54931   0.49999   0.25001   0.00000  Uiso   1.00
O327   O     0.37291   0.43989   0.25000   0.00000  Uiso   1.00
O328   O     0.54401   0.52615   0.39173   0.00000  Uiso   1.00
O329   O     0.65877   0.42568   0.45953   0.00000  Uiso   1.00
O330   O     0.34079   0.42584   0.03852   0.00000  Uiso   1.00
O331   O     0.62438   0.62830   0.19195   0.00000  Uiso   1.00
O332   O     0.37549   0.37173   0.30814   0.00000  Uiso   1.00
O333   O     0.62709   0.56011   0.25000   0.00000  Uiso   1.00
O334   O     0.62706   0.43988   0.25000   0.00000  Uiso   1.00
O335   O     0.37294   0.56012   0.24999   0.00000  Uiso   1.00
O336   O     0.35186   0.50001   0.31491   0.00000  Uiso   1.00
O337   O     0.64814   0.49999   0.18508   0.00000  Uiso   1.00
O338   O     0.60600   0.50000   0.31492   0.00000  Uiso   1.00
O339   O     0.39400   0.50000   0.18508   0.00000  Uiso   1.00
O340   O     0.45395   0.52945   0.10632   0.00000  Uiso   1.00
C341   C     0.99950   0.42085   0.25127   0.00000  Uiso   1.00
C342   C     0.68872   0.35369   0.27835   0.00000  Uiso   1.00
C343   C     0.66781   0.62383   0.24767   0.00000  Uiso   1.00
C344   C     0.99884   0.37619   0.25234   0.00000  Uiso   1.00
C345   C     0.84853   0.47528   0.27827   0.00000  Uiso   1.00
C346   C     0.81810   0.52484   0.22187   0.00000  Uiso   1.00
C347   C     0.79909   0.47527   0.27823   0.00000  Uiso   1.00
C348   C     0.86756   0.52478   0.22182   0.00000  Uiso   1.00
C349   C     0.97181   0.49921   0.33551   0.00000  Uiso   1.00
C350   C     0.69482   0.49928   0.16449   0.00000  Uiso   1.00
C351   C     0.95458   0.49140   0.38289   0.00000  Uiso   1.00
C352   C     0.66716   0.57916   0.24873   0.00000  Uiso   1.00
C353   C     0.71171   0.49118   0.11721   0.00000  Uiso   1.00
C354   C     0.96737   0.45653   0.44574   0.00000  Uiso   1.00
C355   C     0.69848   0.45540   0.05479   0.00000  Uiso   1.00
C356   C     0.98421   0.46831   0.40180   0.00000  Uiso   1.00
C357   C     0.68241   0.46675   0.09917   0.00000  Uiso   1.00
C358   C     0.90601   0.50037   0.40786   0.00000  Uiso   1.00
C359   C     0.75947   0.50172   0.09140   0.00000  Uiso   1.00
C360   C     0.88907   0.48790   0.45208   0.00000  Uiso   1.00
C361   C     0.77632   0.48851   0.04747   0.00000  Uiso   1.00
C362   C     0.92230   0.47169   0.47234   0.00000  Uiso   1.00
C363   C     0.86246   0.48179   0.04344   0.00000  Uiso   1.00
C364   C     0.74321   0.47066   0.02789   0.00000  Uiso   1.00
C365   C     0.83928   0.48805   0.47651   0.00000  Uiso   1.00
C366   C     0.82614   0.48907   0.02298   0.00000  Uiso   1.00
C367   C     0.80334   0.47812   0.45642   0.00000  Uiso   1.00
C368   C     0.90910   0.47039   0.01832   0.00000  Uiso   1.00
C369   C     0.75692   0.46653   0.48209   0.00000  Uiso   1.00
C370   C     0.97632   0.35569   0.22501   0.00000  Uiso   1.00
C371   C     0.69035   0.64433   0.27498   0.00000  Uiso   1.00
C372   C     0.97791   0.64634   0.22168   0.00000  Uiso   1.00
Cu373  Cu    0.71355   0.50001   0.25000   0.00000  Uiso   1.00
Cu374  Cu    0.95311   0.49999   0.25000   0.00000  Uiso   1.00
H375   H     0.93476   0.46137   0.03509   0.00000  Uiso   1.00
H376   H     0.80722   0.54497   0.19942   0.00000  Uiso   1.00
H377   H     0.77298   0.45535   0.30091   0.00000  Uiso   1.00
H378   H     0.89364   0.54475   0.19921   0.00000  Uiso   1.00
H379   H     0.79774   0.51522   0.12941   0.00000  Uiso   1.00
H380   H     0.86657   0.51000   0.36998   0.00000  Uiso   1.00
H381   H     0.96797   0.40916   0.48215   0.00000  Uiso   1.00
H382   H     0.98019   0.41452   0.06294   0.00000  Uiso   1.00
H383   H     0.97291   0.60100   0.18321   0.00000  Uiso   1.00
H384   H     0.69357   0.39902   0.31689   0.00000  Uiso   1.00
H385   H     0.73212   0.45448   0.46579   0.00000  Uiso   1.00
H386   H     0.98099   0.45523   0.11997   0.00000  Uiso   1.00
H387   H     0.68596   0.45698   0.38172   0.00000  Uiso   1.00
H388   H     0.85388   0.47875   0.07870   0.00000  Uiso   1.00
H389   H     0.81234   0.47297   0.42142   0.00000  Uiso   1.00
H390   H     0.95910   0.37308   0.20467   0.00000  Uiso   1.00
H391   H     0.70759   0.62695   0.29530   0.00000  Uiso   1.00
H392   H     0.85935   0.45540   0.30098   0.00000  Uiso   1.00
N393   N     0.78403   0.50001   0.24999   0.00000  Uiso   1.00
N394   N     0.88264   0.49999   0.25001   0.00000  Uiso   1.00
O395   O     0.70625   0.43989   0.25000   0.00000  Uiso   1.00
O396   O     0.87735   0.52615   0.39173   0.00000  Uiso   1.00
O397   O     0.99211   0.42568   0.45953   0.00000  Uiso   1.00
O398   O     0.67412   0.42584   0.03852   0.00000  Uiso   1.00
O399   O     0.95771   0.62830   0.19195   0.00000  Uiso   1.00
O400   O     0.70883   0.37173   0.30814   0.00000  Uiso   1.00
O401   O     0.96042   0.56011   0.25000   0.00000  Uiso   1.00
O402   O     0.96039   0.43988   0.25000   0.00000  Uiso   1.00
O403   O     0.70628   0.56012   0.24999   0.00000  Uiso   1.00
O404   O     0.68519   0.50001   0.31491   0.00000  Uiso   1.00
O405   O     0.98148   0.49999   0.18508   0.00000  Uiso   1.00
O406   O     0.93933   0.50000   0.31492   0.00000  Uiso   1.00
O407   O     0.72733   0.50000   0.18508   0.00000  Uiso   1.00
O408   O     0.78729   0.52945   0.10632   0.00000  Uiso   1.00
C409   C     0.33283   0.75418   0.25127   0.00000  Uiso   1.00
C410   C     0.02205   0.68702   0.27835   0.00000  Uiso   1.00
C411   C     0.00115   0.95716   0.24767   0.00000  Uiso   1.00
C412   C     0.33218   0.70953   0.25234   0.00000  Uiso   1.00
C413   C     0.18186   0.80862   0.27827   0.00000  Uiso   1.00
C414   C     0.15143   0.85818   0.22187   0.00000  Uiso   1.00
C415   C     0.13243   0.80860   0.27823   0.00000  Uiso   1.00
C416   C     0.20089   0.85811   0.22182   0.00000  Uiso   1.00
C417   C     0.30515   0.83255   0.33551   0.00000  Uiso   1.00
C418   C     0.02815   0.83262   0.16449   0.00000  Uiso   1.00
C419   C     0.28791   0.82473   0.38289   0.00000  Uiso   1.00
C420   C     0.00050   0.91249   0.24873   0.00000  Uiso   1.00
C421   C     0.04505   0.82452   0.11721   0.00000  Uiso   1.00
C422   C     0.30070   0.78986   0.44574   0.00000  Uiso   1.00
C423   C     0.03182   0.78873   0.05479   0.00000  Uiso   1.00
C424   C     0.31754   0.80164   0.40180   0.00000  Uiso   1.00
C425   C     0.01574   0.80008   0.09917   0.00000  Uiso   1.00
C426   C     0.23935   0.83371   0.40786   0.00000  Uiso   1.00
C427   C     0.09281   0.83505   0.09140   0.00000  Uiso   1.00
C428   C     0.22241   0.82123   0.45208   0.00000  Uiso   1.00
C429   C     0.10965   0.82185   0.04747   0.00000  Uiso   1.00
C430   C     0.25563   0.80503   0.47234   0.00000  Uiso   1.00
C431   C     0.19580   0.81512   0.04344   0.00000  Uiso   1.00
C432   C     0.07655   0.80400   0.02789   0.00000  Uiso   1.00
C433   C     0.17262   0.82138   0.47651   0.00000  Uiso   1.00
C434   C     0.15947   0.82240   0.02298   0.00000  Uiso   1.00
C435   C     0.13667   0.81145   0.45642   0.00000  Uiso   1.00
C436   C     0.24244   0.80372   0.01832   0.00000  Uiso   1.00
C437   C     0.09026   0.79987   0.48209   0.00000  Uiso   1.00
C438   C     0.30966   0.68903   0.22501   0.00000  Uiso   1.00
C439   C     0.02368   0.97767   0.27498   0.00000  Uiso   1.00
C440   C     0.31124   0.97967   0.22168   0.00000  Uiso   1.00
Cu441  Cu    0.04689   0.83334   0.25000   0.00000  Uiso   1.00
Cu442  Cu    0.28645   0.83333   0.25000   0.00000  Uiso   1.00
H443   H     0.26810   0.79471   0.03509   0.00000  Uiso   1.00
H444   H     0.14055   0.87830   0.19942   0.00000  Uiso   1.00
H445   H     0.10632   0.78869   0.30091   0.00000  Uiso   1.00
H446   H     0.22698   0.87808   0.19921   0.00000  Uiso   1.00
H447   H     0.13108   0.84855   0.12941   0.00000  Uiso   1.00
H448   H     0.19990   0.84334   0.36998   0.00000  Uiso   1.00
H449   H     0.30130   0.74249   0.48215   0.00000  Uiso   1.00
H450   H     0.31352   0.74785   0.06294   0.00000  Uiso   1.00
H451   H     0.30624   0.93433   0.18321   0.00000  Uiso   1.00
H452   H     0.02690   0.73235   0.31689   0.00000  Uiso   1.00
H453   H     0.06545   0.78782   0.46579   0.00000  Uiso   1.00
H454   H     0.31432   0.78856   0.11997   0.00000  Uiso   1.00
H455   H     0.01930   0.79031   0.38172   0.00000  Uiso   1.00
H456   H     0.18721   0.81208   0.07870   0.00000  Uiso   1.00
H457   H     0.14567   0.80631   0.42142   0.00000  Uiso   1.00
H458   H     0.29244   0.70641   0.20467   0.00000  Uiso   1.00
H459   H     0.04093   0.96029   0.29530   0.00000  Uiso   1.00
H460   H     0.19269   0.78874   0.30098   0.00000  Uiso   1.00
N461   N     0.11736   0.83334   0.24999   0.00000  Uiso   1.00
N462   N     0.21597   0.83332   0.25001   0.00000  Uiso   1.00
O463   O     0.03958   0.77322   0.25000   0.00000  Uiso   1.00
O464   O     0.21068   0.85949   0.39173   0.00000  Uiso   1.00
O465   O     0.32544   0.75902   0.45953   0.00000  Uiso   1.00
O466   O     0.00745   0.75917   0.03852   0.00000  Uiso   1.00
O467   O     0.29104   0.96164   0.19195   0.00000  Uiso   1.00
O468   O     0.04216   0.70507   0.30814   0.00000  Uiso   1.00
O469   O     0.29375   0.89345   0.25000   0.00000  Uiso   1.00
O470   O     0.29372   0.77321   0.25000   0.00000  Uiso   1.00
O471   O     0.03961   0.89346   0.24999   0.00000  Uiso   1.00
O472   O     0.01852   0.83334   0.31491   0.00000  Uiso   1.00
O473   O     0.31481   0.83332   0.18508   0.00000  Uiso   1.00
O474   O     0.27267   0.83333   0.31492   0.00000  Uiso   1.00
O475   O     0.06067   0.83333   0.18508   0.00000  Uiso   1.00
O476   O     0.12062   0.86278   0.10632   0.00000  Uiso   1.00
C477   C     0.66617   0.75418   0.25127   0.00000  Uiso   1.00
C478   C     0.35538   0.68702   0.27835   0.00000  Uiso   1.00
C479   C     0.33448   0.95716   0.24767   0.00000  Uiso   1.00
C480   C     0.66551   0.70953   0.25234   0.00000  Uiso   1.00
C481   C     0.51520   0.80862   0.27827   0.00000  Uiso   1.00
C482   C     0.48477   0.85818   0.22187   0.00000  Uiso   1.00
C483   C     0.46576   0.80860   0.27823   0.00000  Uiso   1.00
C484   C     0.53422   0.85811   0.22182   0.00000  Uiso   1.00
C485   C     0.63848   0.83255   0.33551   0.00000  Uiso   1.00
C486   C     0.36148   0.83262   0.16449   0.00000  Uiso   1.00
C487   C     0.62125   0.82473   0.38289   0.00000  Uiso   1.00
C488   C     0.33383   0.91249   0.24873   0.00000  Uiso   1.00
C489   C     0.37838   0.82452   0.11721   0.00000  Uiso   1.00
C490   C     0.63404   0.78986   0.44574   0.00000  Uiso   1.00
C491   C     0.36515   0.78873   0.05479   0.00000  Uiso   1.00
C492   C     0.65087   0.80164   0.40180   0.00000  Uiso   1.00
C493   C     0.34907   0.80008   0.09917   0.00000  Uiso   1.00
C494   C     0.57268   0.83371   0.40786   0.00000  Uiso   1.00
C495   C     0.42614   0.83505   0.09140   0.00000  Uiso   1.00
C496   C     0.55574   0.82123   0.45208   0.00000  Uiso   1.00
C497   C     0.44298   0.82185   0.04747   0.00000  Uiso   1.00
C498   C     0.58896   0.80503   0.47234   0.00000  Uiso   1.00
C499   C     0.52913   0.81512   0.04344   0.00000  Uiso   1.00
C500   C     0.40988   0.80400   0.02789   0.00000  Uiso   1.00
C501   C     0.50595   0.82138   0.47651   0.00000  Uiso   1.00
C502   C     0.49281   0.82240   0.02298   0.00000  Uiso   1.00
C503   C     0.47001   0.81145   0.45642   0.00000  Uiso   1.00
C504   C     0.57577   0.80372   0.01832   0.00000  Uiso   1.00
C505   C     0.42359   0.79987   0.48209   0.00000  Uiso   1.00
C506   C     0.64299   0.68903   0.22501   0.00000  Uiso   1.00
C507   C     0.35701   0.97767   0.27498   0.00000  Uiso   1.00
C508   C     0.64457   0.97967   0.22168   0.00000  Uiso   1.00
Cu509  Cu    0.38022   0.83334   0.25000   0.00000  Uiso   1.00
Cu510  Cu    0.61978   0.83333   0.25000   0.00000  Uiso   1.00
H511   H     0.60143   0.79471   0.03509   0.00000  Uiso   1.00
H512   H     0.47388   0.87830   0.19942   0.00000  Uiso   1.00
H513   H     0.43965   0.78869   0.30091   0.00000  Uiso   1.00
H514   H     0.56031   0.87808   0.19921   0.00000  Uiso   1.00
H515   H     0.46441   0.84855   0.12941   0.00000  Uiso   1.00
H516   H     0.53323   0.84334   0.36998   0.00000  Uiso   1.00
H517   H     0.63464   0.74249   0.48215   0.00000  Uiso   1.00
H518   H     0.64686   0.74785   0.06294   0.00000  Uiso   1.00
H519   H     0.63958   0.93433   0.18321   0.00000  Uiso   1.00
H520   H     0.36023   0.73235   0.31689   0.00000  Uiso   1.00
H521   H     0.39878   0.78782   0.46579   0.00000  Uiso   1.00
H522   H     0.64766   0.78856   0.11997   0.00000  Uiso   1.00
H523   H     0.35263   0.79031   0.38172   0.00000  Uiso   1.00
H524   H     0.52054   0.81208   0.07870   0.00000  Uiso   1.00
H525   H     0.47900   0.80631   0.42142   0.00000  Uiso   1.00
H526   H     0.62577   0.70641   0.20467   0.00000  Uiso   1.00
H527   H     0.37426   0.96029   0.29530   0.00000  Uiso   1.00
H528   H     0.52602   0.78874   0.30098   0.00000  Uiso   1.00
N529   N     0.45069   0.83334   0.24999   0.00000  Uiso   1.00
N530   N     0.54931   0.83332   0.25001   0.00000  Uiso   1.00
O531   O     0.37291   0.77322   0.25000   0.00000  Uiso   1.00
O532   O     0.54401   0.85949   0.39173   0.00000  Uiso   1.00
O533   O     0.65877   0.75902   0.45953   0.00000  Uiso   1.00
O534   O     0.34079   0.75917   0.03852   0.00000  Uiso   1.00
O535   O     0.62438   0.96164   0.19195   0.00000  Uiso   1.00
O536   O     0.37549   0.70507   0.30814   0.00000  Uiso   1.00
O537   O     0.62709   0.89345   0.25000   0.00000  Uiso   1.00
O538   O     0.62706   0.77321   0.25000   0.00000  Uiso   1.00
O539   O     0.37294   0.89346   0.24999   0.00000  Uiso   1.00
O540   O     0.35186   0.83334   0.31491   0.00000  Uiso   1.00
O541   O     0.64814   0.83332   0.18508   0.00000  Uiso   1.00
O542   O     0.60600   0.83333   0.31492   0.00000  Uiso   1.00
O543   O     0.39400   0.83333   0.18508   0.00000  Uiso   1.00
O544   O     0.45395   0.86278   0.10632   0.00000  Uiso   1.00
C545   C     0.99950   0.75418   0.25127   0.00000  Uiso   1.00
C546   C     0.68872   0.68702   0.27835   0.00000  Uiso   1.00
C547   C     0.66781   0.95716   0.24767   0.00000  Uiso   1.00
C548   C     0.99884   0.70953   0.25234   0.00000  Uiso   1.00
C549   C     0.84853   0.80862   0.27827   0.00000  Uiso   1.00
C550   C     0.81810   0.85818   0.22187   0.00000  Uiso   1.00
C551   C     0.79909   0.80860   0.27823   0.00000  Uiso   1.00
C552   C     0.86756   0.85811   0.22182   0.00000  Uiso   1.00
C553   C     0.97181   0.83255   0.33551   0.00000  Uiso   1.00
C554   C     0.69482   0.83262   0.16449   0.00000  Uiso   1.00
C555   C     0.95458   0.82473   0.38289   0.00000  Uiso   1.00
C556   C     0.66716   0.91249   0.24873   0.00000  Uiso   1.00
C557   C     0.71171   0.82452   0.11721   0.00000  Uiso   1.00
C558   C     0.96737   0.78986   0.44574   0.00000  Uiso   1.00
C559   C     0.69848   0.78873   0.05479   0.00000  Uiso   1.00
C560   C     0.98421   0.80164   0.40180   0.00000  Uiso   1.00
C561   C     0.68241   0.80008   0.09917   0.00000  Uiso   1.00
C562   C     0.90601   0.83371   0.40786   0.00000  Uiso   1.00
C563   C     0.75947   0.83505   0.09140   0.00000  Uiso   1.00
C564   C     0.88907   0.82123   0.45208   0.00000  Uiso   1.00
C565   C     0.77632   0.82185   0.04747   0.00000  Uiso   1.00
C566   C     0.92230   0.80503   0.47234   0.00000  Uiso   1.00
C567   C     0.86246   0.81512   0.04344   0.00000  Uiso   1.00
C568   C     0.74321   0.80400   0.02789   0.00000  Uiso   1.00
C569   C     0.83928   0.82138   0.47651   0.00000  Uiso   1.00
C570   C     0.82614   0.82240   0.02298   0.00000  Uiso   1.00
C571   C     0.80334   0.81145   0.45642   0.00000  Uiso   1.00
C572   C     0.90910   0.80372   0.01832   0.00000  Uiso   1.00
C573   C     0.75692   0.79987   0.48209   0.00000  Uiso   1.00
C574   C     0.97632   0.68903   0.22501   0.00000  Uiso   1.00
C575   C     0.69035   0.97767   0.27498   0.00000  Uiso   1.00
C576   C     0.97791   0.97967   0.22168   0.00000  Uiso   1.00
Cu577  Cu    0.71355   0.83334   0.25000   0.00000  Uiso   1.00
Cu578  Cu    0.95311   0.83333   0.25000   0.00000  Uiso   1.00
H579   H     0.93476   0.79471   0.03509   0.00000  Uiso   1.00
H580   H     0.80722   0.87830   0.19942   0.00000  Uiso   1.00
H581   H     0.77298   0.78869   0.30091   0.00000  Uiso   1.00
H582   H     0.89364   0.87808   0.19921   0.00000  Uiso   1.00
H583   H     0.79774   0.84855   0.12941   0.00000  Uiso   1.00
H584   H     0.86657   0.84334   0.36998   0.00000  Uiso   1.00
H585   H     0.96797   0.74249   0.48215   0.00000  Uiso   1.00
H586   H     0.98019   0.74785   0.06294   0.00000  Uiso   1.00
H587   H     0.97291   0.93433   0.18321   0.00000  Uiso   1.00
H588   H     0.69357   0.73235   0.31689   0.00000  Uiso   1.00
H589   H     0.73212   0.78782   0.46579   0.00000  Uiso   1.00
H590   H     0.98099   0.78856   0.11997   0.00000  Uiso   1.00
H591   H     0.68596   0.79031   0.38172   0.00000  Uiso   1.00
H592   H     0.85388   0.81208   0.07870   0.00000  Uiso   1.00
H593   H     0.81234   0.80631   0.42142   0.00000  Uiso   1.00
H594   H     0.95910   0.70641   0.20467   0.00000  Uiso   1.00
H595   H     0.70759   0.96029   0.29530   0.00000  Uiso   1.00
H596   H     0.85935   0.78874   0.30098   0.00000  Uiso   1.00
N597   N     0.78403   0.83334   0.24999   0.00000  Uiso   1.00
N598   N     0.88264   0.83332   0.25001   0.00000  Uiso   1.00
O599   O     0.70625   0.77322   0.25000   0.00000  Uiso   1.00
O600   O     0.87735   0.85949   0.39173   0.00000  Uiso   1.00
O601   O     0.99211   0.75902   0.45953   0.00000  Uiso   1.00
O602   O     0.67412   0.75917   0.03852   0.00000  Uiso   1.00
O603   O     0.95771   0.96164   0.19195   0.00000  Uiso   1.00
O604   O     0.70883   0.70507   0.30814   0.00000  Uiso   1.00
O605   O     0.96042   0.89345   0.25000   0.00000  Uiso   1.00
O606   O     0.96039   0.77321   0.25000   0.00000  Uiso   1.00
O607   O     0.70628   0.89346   0.24999   0.00000  Uiso   1.00
O608   O     0.68519   0.83334   0.31491   0.00000  Uiso   1.00
O609   O     0.98148   0.83332   0.18508   0.00000  Uiso   1.00
O610   O     0.93933   0.83333   0.31492   0.00000  Uiso   1.00
O611   O     0.72733   0.83333   0.18508   0.00000  Uiso   1.00
O612   O     0.78729   0.86278   0.10632   0.00000  Uiso   1.00
C613   C     0.33283   0.08752   0.75127   0.00000  Uiso   1.00
C614   C     0.02205   0.02036   0.77835   0.00000  Uiso   1.00
C615   C     0.00115   0.29049   0.74767   0.00000  Uiso   1.00
C616   C     0.33218   0.04286   0.75234   0.00000  Uiso   1.00
C617   C     0.18186   0.14195   0.77827   0.00000  Uiso   1.00
C618   C     0.15143   0.19151   0.72187   0.00000  Uiso   1.00
C619   C     0.13243   0.14193   0.77823   0.00000  Uiso   1.00
C620   C     0.20089   0.19145   0.72182   0.00000  Uiso   1.00
C621   C     0.30515   0.16588   0.83551   0.00000  Uiso   1.00
C622   C     0.02815   0.16595   0.66449   0.00000  Uiso   1.00
C623   C     0.28791   0.15807   0.88289   0.00000  Uiso   1.00
C624   C     0.00050   0.24582   0.74873   0.00000  Uiso   1.00
C625   C     0.04505   0.15785   0.61721   0.00000  Uiso   1.00
C626   C     0.30070   0.12319   0.94574   0.00000  Uiso   1.00
C627   C     0.03182   0.12206   0.55479   0.00000  Uiso   1.00
C628   C     0.31754   0.13498   0.90180   0.00000  Uiso   1.00
C629   C     0.01574   0.13341   0.59917   0.00000  Uiso   1.00
C630   C     0.23935   0.16704   0.90786   0.00000  Uiso   1.00
C631   C     0.09281   0.16839   0.59140   0.00000  Uiso   1.00
C632   C     0.22241   0.15456   0.95208   0.00000  Uiso   1.00
C633   C     0.10965   0.15518   0.54747   0.00000  Uiso   1.00
C634   C     0.25563   0.13836   0.97234   0.00000  Uiso   1.00
C635   C     0.19580   0.14846   0.54344   0.00000  Uiso   1.00
C636   C     0.07655   0.13733   0.52789   0.00000  Uiso   1.00
C637   C     0.17262   0.15472   0.97651   0.00000  Uiso   1.00
C638   C     0.15947   0.15574   0.52298   0.00000  Uiso   1.00
C639   C     0.13667   0.14478   0.95642   0.00000  Uiso   1.00
C640   C     0.24244   0.13705   0.51832   0.00000  Uiso   1.00
C641   C     0.09026   0.13320   0.98209   0.00000  Uiso   1.00
C642   C     0.30966   0.02236   0.72501   0.00000  Uiso   1.00
C643   C     0.02368   0.31100   0.77498   0.00000  Uiso   1.00
C644   C     0.31124   0.31300   0.72168   0.00000  Uiso   1.00
Cu645  Cu    0.04689   0.16667   0.75000   0.00000  Uiso   1.00
Cu646  Cu    0.28645   0.16666   0.75000   0.00000  Uiso   1.00
H647   H     0.26810   0.12804   0.53509   0.00000  Uiso   1.00
H648   H     0.14055   0.21163   0.69942   0.00000  Uiso   1.00
H649   H     0.10632   0.12202   0.80091   0.00000  Uiso   1.00
H650   H     0.22698   0.21142   0.69921   0.00000  Uiso   1.00
H651   H     0.13108   0.18188   0.62941   0.00000  Uiso   1.00
H652   H     0.19990   0.17667   0.86998   0.00000  Uiso   1.00
H653   H     0.30130   0.07582   0.98215   0.00000  Uiso   1.00
H654   H     0.31352   0.08118   0.56294   0.00000  Uiso   1.00
H655   H     0.30624   0.26766   0.68321   0.00000  Uiso   1.00
H656   H     0.02690   0.06568   0.81689   0.00000  Uiso   1.00
H657   H     0.06545   0.12115   0.96579   0.00000  Uiso   1.00
H658   H     0.31432   0.12190   0.61997   0.00000  Uiso   1.00
H659   H     0.01930   0.12364   0.88172   0.00000  Uiso   1.00
H660   H     0.18721   0.14541   0.57870   0.00000  Uiso   1.00
H661   H     0.14567   0.13964   0.92142   0.00000  Uiso   1.00
H662   H     0.29244   0.03975   0.70467   0.00000  Uiso   1.00
H663   H     0.04093   0.29362   0.79530   0.00000  Uiso   1.00
H664   H     0.19269   0.12207   0.80098   0.00000  Uiso   1.00
N665   N     0.11736   0.16668   0.74999   0.00000  Uiso   1.00
N666   N     0.21597   0.16666   0.75001   0.00000  Uiso   1.00
O667   O     0.03958   0.10655   0.75000   0.00000  Uiso   1.00
O668   O     0.21068   0.19282   0.89173   0.00000  Uiso   1.00
O669   O     0.32544   0.09235   0.95953   0.00000  Uiso   1.00
O670   O     0.00745   0.09251   0.53852   0.00000  Uiso   1.00
O671   O     0.29104   0.29497   0.69195   0.00000  Uiso   1.00
O672   O     0.04216   0.03840   0.80814   0.00000  Uiso   1.00
O673   O     0.29375   0.22678   0.75000   0.00000  Uiso   1.00
O674   O     0.29372   0.10654   0.75000   0.00000  Uiso   1.00
O675   O     0.03961   0.22679   0.74999   0.00000  Uiso   1.00
O676   O     0.01852   0.16668   0.81491   0.00000  Uiso   1.00
O677   O     0.31481   0.16666   0.68508   0.00000  Uiso   1.00
O678   O     0.27267   0.16667   0.81492   0.00000  Uiso   1.00
O679   O     0.06067   0.16667   0.68508   0.00000  Uiso   1.00
O680   O     0.12062   0.19612   0.60632   0.00000  Uiso   1.00
C681   C     0.66617   0.08752   0.75127   0.00000  Uiso   1.00
C682   C     0.35538   0.02036   0.77835   0.00000  Uiso   1.00
C683   C     0.33448   0.29049   0.74767   0.00000  Uiso   1.00
C684   C     0.66551   0.04286   0.75234   0.00000  Uiso   1.00
C685   C     0.51520   0.14195   0.77827   0.00000  Uiso   1.00
C686   C     0.48477   0.19151   0.72187   0.00000  Uiso   1.00
C687   C     0.46576   0.14193   0.77823   0.00000  Uiso   1.00
C688   C     0.53422   0.19145   0.72182   0.00000  Uiso   1.00
C689   C     0.63848   0.16588   0.83551   0.00000  Uiso   1.00
C690   C     0.36148   0.16595   0.66449   0.00000  Uiso   1.00
C691   C     0.62125   0.15807   0.88289   0.00000  Uiso   1.00
C692   C     0.33383   0.24582   0.74873   0.00000  Uiso   1.00
C693   C     0.37838   0.15785   0.61721   0.00000  Uiso   1.00
C694   C     0.63404   0.12319   0.94574   0.00000  Uiso   1.00
C695   C     0.36515   0.12206   0.55479   0.00000  Uiso   1.00
C696   C     0.65087   0.13498   0.90180   0.00000  Uiso   1.00
C697   C     0.34907   0.13341   0.59917   0.00000  Uiso   1.00
C698   C     0.57268   0.16704   0.90786   0.00000  Uiso   1.00
C699   C     0.42614   0.16839   0.59140   0.00000  Uiso   1.00
C700   C     0.55574   0.15456   0.95208   0.00000  Uiso   1.00
C701   C     0.44298   0.15518   0.54747   0.00000  Uiso   1.00
C702   C     0.58896   0.13836   0.97234   0.00000  Uiso   1.00
C703   C     0.52913   0.14846   0.54344   0.00000  Uiso   1.00
C704   C     0.40988   0.13733   0.52789   0.00000  Uiso   1.00
C705   C     0.50595   0.15472   0.97651   0.00000  Uiso   1.00
C706   C     0.49281   0.15574   0.52298   0.00000  Uiso   1.00
C707   C     0.47001   0.14478   0.95642   0.00000  Uiso   1.00
C708   C     0.57577   0.13705   0.51832   0.00000  Uiso   1.00
C709   C     0.42359   0.13320   0.98209   0.00000  Uiso   1.00
C710   C     0.64299   0.02236   0.72501   0.00000  Uiso   1.00
C711   C     0.35701   0.31100   0.77498   0.00000  Uiso   1.00
C712   C     0.64457   0.31300   0.72168   0.00000  Uiso   1.00
Cu713  Cu    0.38022   0.16667   0.75000   0.00000  Uiso   1.00
Cu714  Cu    0.61978   0.16666   0.75000   0.00000  Uiso   1.00
H715   H     0.60143   0.12804   0.53509   0.00000  Uiso   1.00
H716   H     0.47388   0.21163   0.69942   0.00000  Uiso   1.00
H717   H     0.43965   0.12202   0.80091   0.00000  Uiso   1.00
H718   H     0.56031   0.21142   0.69921   0.00000  Uiso   1.00
H719   H     0.46441   0.18188   0.62941   0.00000  Uiso   1.00
H720   H     0.53323   0.17667   0.86998   0.00000  Uiso   1.00
H721   H     0.63464   0.07582   0.98215   0.00000  Uiso   1.00
H722   H     0.64686   0.08118   0.56294   0.00000  Uiso   1.00
H723   H     0.63958   0.26766   0.68321   0.00000  Uiso   1.00
H724   H     0.36023   0.06568   0.81689   0.00000  Uiso   1.00
H725   H     0.39878   0.12115   0.96579   0.00000  Uiso   1.00
H726   H     0.64766   0.12190   0.61997   0.00000  Uiso   1.00
H727   H     0.35263   0.12364   0.88172   0.00000  Uiso   1.00
H728   H     0.52054   0.14541   0.57870   0.00000  Uiso   1.00
H729   H     0.47900   0.13964   0.92142   0.00000  Uiso   1.00
H730   H     0.62577   0.03975   0.70467   0.00000  Uiso   1.00
H731   H     0.37426   0.29362   0.79530   0.00000  Uiso   1.00
H732   H     0.52602   0.12207   0.80098   0.00000  Uiso   1.00
N733   N     0.45069   0.16668   0.74999   0.00000  Uiso   1.00
N734   N     0.54931   0.16666   0.75001   0.00000  Uiso   1.00
O735   O     0.37291   0.10655   0.75000   0.00000  Uiso   1.00
O736   O     0.54401   0.19282   0.89173   0.00000  Uiso   1.00
O737   O     0.65877   0.09235   0.95953   0.00000  Uiso   1.00
O738   O     0.34079   0.09251   0.53852   0.00000  Uiso   1.00
O739   O     0.62438   0.29497   0.69195   0.00000  Uiso   1.00
O740   O     0.37549   0.03840   0.80814   0.00000  Uiso   1.00
O741   O     0.62709   0.22678   0.75000   0.00000  Uiso   1.00
O742   O     0.62706   0.10654   0.75000   0.00000  Uiso   1.00
O743   O     0.37294   0.22679   0.74999   0.00000  Uiso   1.00
O744   O     0.35186   0.16668   0.81491   0.00000  Uiso   1.00
O745   O     0.64814   0.16666   0.68508   0.00000  Uiso   1.00
O746   O     0.60600   0.16667   0.81492   0.00000  Uiso   1.00
O747   O     0.39400   0.16667   0.68508   0.00000  Uiso   1.00
O748   O     0.45395   0.19612   0.60632   0.00000  Uiso   1.00
C749   C     0.99950   0.08752   0.75127   0.00000  Uiso   1.00
C750   C     0.68872   0.02036   0.77835   0.00000  Uiso   1.00
C751   C     0.66781   0.29049   0.74767   0.00000  Uiso   1.00
C752   C     0.99884   0.04286   0.75234   0.00000  Uiso   1.00
C753   C     0.84853   0.14195   0.77827   0.00000  Uiso   1.00
C754   C     0.81810   0.19151   0.72187   0.00000  Uiso   1.00
C755   C     0.79909   0.14193   0.77823   0.00000  Uiso   1.00
C756   C     0.86756   0.19145   0.72182   0.00000  Uiso   1.00
C757   C     0.97181   0.16588   0.83551   0.00000  Uiso   1.00
C758   C     0.69482   0.16595   0.66449   0.00000  Uiso   1.00
C759   C     0.95458   0.15807   0.88289   0.00000  Uiso   1.00
C760   C     0.66716   0.24582   0.74873   0.00000  Uiso   1.00
C761   C     0.71171   0.15785   0.61721   0.00000  Uiso   1.00
C762   C     0.96737   0.12319   0.94574   0.00000  Uiso   1.00
C763   C     0.69848   0.12206   0.55479   0.00000  Uiso   1.00
C764   C     0.98421   0.13498   0.90180   0.00000  Uiso   1.00
C765   C     0.68241   0.13341   0.59917   0.00000  Uiso   1.00
C766   C     0.90601   0.16704   0.90786   0.00000  Uiso   1.00
C767   C     0.75947   0.16839   0.59140   0.00000  Uiso   1.00
C768   C     0.88907   0.15456   0.95208   0.00000  Uiso   1.00
C769   C     0.77632   0.15518   0.54747   0.00000  Uiso   1.00
C770   C     0.92230   0.13836   0.97234   0.00000  Uiso   1.00
C771   C     0.86246   0.14846   0.54344   0.00000  Uiso   1.00
C772   C     0.74321   0.13733   0.52789   0.00000  Uiso   1.00
C773   C     0.83928   0.15472   0.97651   0.00000  Uiso   1.00
C774   C     0.82614   0.15574   0.52298   0.00000  Uiso   1.00
C775   C     0.80334   0.14478   0.95642   0.00000  Uiso   1.00
C776   C     0.90910   0.13705   0.51832   0.00000  Uiso   1.00
C777   C     0.75692   0.13320   0.98209   0.00000  Uiso   1.00
C778   C     0.97632   0.02236   0.72501   0.00000  Uiso   1.00
C779   C     0.69035   0.31100   0.77498   0.00000  Uiso   1.00
C780   C     0.97791   0.31300   0.72168   0.00000  Uiso   1.00
Cu781  Cu    0.71355   0.16667   0.75000   0.00000  Uiso   1.00
Cu782  Cu    0.95311   0.16666   0.75000   0.00000  Uiso   1.00
H783   H     0.93476   0.12804   0.53509   0.00000  Uiso   1.00
H784   H     0.80722   0.21163   0.69942   0.00000  Uiso   1.00
H785   H     0.77298   0.12202   0.80091   0.00000  Uiso   1.00
H786   H     0.89364   0.21142   0.69921   0.00000  Uiso   1.00
H787   H     0.79774   0.18188   0.62941   0.00000  Uiso   1.00
H788   H     0.86657   0.17667   0.86998   0.00000  Uiso   1.00
H789   H     0.96797   0.07582   0.98215   0.00000  Uiso   1.00
H790   H     0.98019   0.08118   0.56294   0.00000  Uiso   1.00
H791   H     0.97291   0.26766   0.68321   0.00000  Uiso   1.00
H792   H     0.69357   0.06568   0.81689   0.00000  Uiso   1.00
H793   H     0.73212   0.12115   0.96579   0.00000  Uiso   1.00
H794   H     0.98099   0.12190   0.61997   0.00000  Uiso   1.00
H795   H     0.68596   0.12364   0.88172   0.00000  Uiso   1.00
H796   H     0.85388   0.14541   0.57870   0.00000  Uiso   1.00
H797   H     0.81234   0.13964   0.92142   0.00000  Uiso   1.00
H798   H     0.95910   0.03975   0.70467   0.00000  Uiso   1.00
H799   H     0.70759   0.29362   0.79530   0.00000  Uiso   1.00
H800   H     0.85935   0.12207   0.80098   0.00000  Uiso   1.00
N801   N     0.78403   0.16668   0.74999   0.00000  Uiso   1.00
N802   N     0.88264   0.16666   0.75001   0.00000  Uiso   1.00
O803   O     0.70625   0.10655   0.75000   0.00000  Uiso   1.00
O804   O     0.87735   0.19282   0.89173   0.00000  Uiso   1.00
O805   O     0.99211   0.09235   0.95953   0.00000  Uiso   1.00
O806   O     0.67412   0.09251   0.53852   0.00000  Uiso   1.00
O807   O     0.95771   0.29497   0.69195   0.00000  Uiso   1.00
O808   O     0.70883   0.03840   0.80814   0.00000  Uiso   1.00
O809   O     0.96042   0.22678   0.75000   0.00000  Uiso   1.00
O810   O     0.96039   0.10654   0.75000   0.00000  Uiso   1.00
O811   O     0.70628   0.22679   0.74999   0.00000  Uiso   1.00
O812   O     0.68519   0.16668   0.81491   0.00000  Uiso   1.00
O813   O     0.98148   0.16666   0.68508   0.00000  Uiso   1.00
O814   O     0.93933   0.16667   0.81492   0.00000  Uiso   1.00
O815   O     0.72733   0.16667   0.68508   0.00000  Uiso   1.00
O816   O     0.78729   0.19612   0.60632   0.00000  Uiso   1.00
C817   C     0.33283   0.42085   0.75127   0.00000  Uiso   1.00
C818   C     0.02205   0.35369   0.77835   0.00000  Uiso   1.00
C819   C     0.00115   0.62383   0.74767   0.00000  Uiso   1.00
C820   C     0.33218   0.37619   0.75234   0.00000  Uiso   1.00
C821   C     0.18186   0.47528   0.77827   0.00000  Uiso   1.00
C822   C     0.15143   0.52484   0.72187   0.00000  Uiso   1.00
C823   C     0.13243   0.47527   0.77823   0.00000  Uiso   1.00
C824   C     0.20089   0.52478   0.72182   0.00000  Uiso   1.00
C825   C     0.30515   0.49921   0.83551   0.00000  Uiso   1.00
C826   C     0.02815   0.49928   0.66449   0.00000  Uiso   1.00
C827   C     0.28791   0.49140   0.88289   0.00000  Uiso   1.00
C828   C     0.00050   0.57916   0.74873   0.00000  Uiso   1.00
C829   C     0.04505   0.49118   0.61721   0.00000  Uiso   1.00
C830   C     0.30070   0.45653   0.94574   0.00000  Uiso   1.00
C831   C     0.03182   0.45540   0.55479   0.00000  Uiso   1.00
C832   C     0.31754   0.46831   0.90180   0.00000  Uiso   1.00
C833   C     0.01574   0.46675   0.59917   0.00000  Uiso   1.00
C834   C     0.23935   0.50037   0.90786   0.00000  Uiso   1.00
C835   C     0.09281   0.50172   0.59140   0.00000  Uiso   1.00
C836   C     0.22241   0.48790   0.95208   0.00000  Uiso   1.00
C837   C     0.10965   0.48851   0.54747   0.00000  Uiso   1.00
C838   C     0.25563   0.47169   0.97234   0.00000  Uiso   1.00
C839   C     0.19580   0.48179   0.54344   0.00000  Uiso   1.00
C840   C     0.07655   0.47066   0.52789   0.00000  Uiso   1.00
C841   C     0.17262   0.48805   0.97651   0.00000  Uiso   1.00
C842   C     0.15947   0.48907   0.52298   0.00000  Uiso   1.00
C843   C     0.13667   0.47812   0.95642   0.00000  Uiso   1.00
C844   C     0.24244   0.47039   0.51832   0.00000  Uiso   1.00
C845   C     0.09026   0.46653   0.98209   0.00000  Uiso   1.00
C846   C     0.30966   0.35569   0.72501   0.00000  Uiso   1.00
C847   C     0.02368   0.64433   0.77498   0.00000  Uiso   1.00
C848   C     0.31124   0.64634   0.72168   0.00000  Uiso   1.00
Cu849  Cu    0.04689   0.50001   0.75000   0.00000  Uiso   1.00
Cu850  Cu    0.28645   0.49999   0.75000   0.00000  Uiso   1.00
H851   H     0.26810   0.46137   0.53509   0.00000  Uiso   1.00
H852   H     0.14055   0.54497   0.69942   0.00000  Uiso   1.00
H853   H     0.10632   0.45535   0.80091   0.00000  Uiso   1.00
H854   H     0.22698   0.54475   0.69921   0.00000  Uiso   1.00
H855   H     0.13108   0.51522   0.62941   0.00000  Uiso   1.00
H856   H     0.19990   0.51000   0.86998   0.00000  Uiso   1.00
H857   H     0.30130   0.40916   0.98215   0.00000  Uiso   1.00
H858   H     0.31352   0.41452   0.56294   0.00000  Uiso   1.00
H859   H     0.30624   0.60100   0.68321   0.00000  Uiso   1.00
H860   H     0.02690   0.39902   0.81689   0.00000  Uiso   1.00
H861   H     0.06545   0.45448   0.96579   0.00000  Uiso   1.00
H862   H     0.31432   0.45523   0.61997   0.00000  Uiso   1.00
H863   H     0.01930   0.45698   0.88172   0.00000  Uiso   1.00
H864   H     0.18721   0.47875   0.57870   0.00000  Uiso   1.00
H865   H     0.14567   0.47297   0.92142   0.00000  Uiso   1.00
H866   H     0.29244   0.37308   0.70467   0.00000  Uiso   1.00
H867   H     0.04093   0.62695   0.79530   0.00000  Uiso   1.00
H868   H     0.19269   0.45540   0.80098   0.00000  Uiso   1.00
N869   N     0.11736   0.50001   0.74999   0.00000  Uiso   1.00
N870   N     0.21597   0.49999   0.75001   0.00000  Uiso   1.00
O871   O     0.03958   0.43989   0.75000   0.00000  Uiso   1.00
O872   O     0.21068   0.52615   0.89173   0.00000  Uiso   1.00
O873   O     0.32544   0.42568   0.95953   0.00000  Uiso   1.00
O874   O     0.00745   0.42584   0.53852   0.00000  Uiso   1.00
O875   O     0.29104   0.62830   0.69195   0.00000  Uiso   1.00
O876   O     0.04216   0.37173   0.80814   0.00000  Uiso   1.00
O877   O     0.29375   0.56011   0.75000   0.00000  Uiso   1.00
O878   O     0.29372   0.43988   0.75000   0.00000  Uiso   1.00
O879   O     0.03961   0.56012   0.74999   0.00000  Uiso   1.00
O880   O     0.01852   0.50001   0.81491   0.00000  Uiso   1.00
O881   O     0.31481   0.49999   0.68508   0.00000  Uiso   1.00
O882   O     0.27267   0.50000   0.81492   0.00000  Uiso   1.00
O883   O     0.06067   0.50000   0.68508   0.00000  Uiso   1.00
O884   O     0.12062   0.52945   0.60632   0.00000  Uiso   1.00
C885   C     0.66617   0.42085   0.75127   0.00000  Uiso   1.00
C886   C     0.35538   0.35369   0.77835   0.00000  Uiso   1.00
C887   C     0.33448   0.62383   0.74767   0.00000  Uiso   1.00
C888   C     0.66551   0.37619   0.75234   0.00000  Uiso   1.00
C889   C     0.51520   0.47528   0.77827   0.00000  Uiso   1.00
C890   C     0.48477   0.52484   0.72187   0.00000  Uiso   1.00
C891   C     0.46576   0.47527   0.77823   0.00000  Uiso   1.00
C892   C     0.53422   0.52478   0.72182   0.00000  Uiso   1.00
C893   C     0.63848   0.49921   0.83551   0.00000  Uiso   1.00
C894   C     0.36148   0.49928   0.66449   0.00000  Uiso   1.00
C895   C     0.62125   0.49140   0.88289   0.00000  Uiso   1.00
C896   C     0.33383   0.57916   0.74873   0.00000  Uiso   1.00
C897   C     0.37838   0.49118   0.61721   0.00000  Uiso   1.00
C898   C     0.63404   0.45653   0.94574   0.00000  Uiso   1.00
C899   C     0.36515   0.45540   0.55479   0.00000  Uiso   1.00
C900   C     0.65087   0.46831   0.90180   0.00000  Uiso   1.00
C901   C     0.34907   0.46675   0.59917   0.00000  Uiso   1.00
C902   C     0.57268   0.50037   0.90786   0.00000  Uiso   1.00
C903   C     0.42614   0.50172   0.59140   0.00000  Uiso   1.00
C904   C     0.55574   0.48790   0.95208   0.00000  Uiso   1.00
C905   C     0.44298   0.48851   0.54747   0.00000  Uiso   1.00
C906   C     0.58896   0.47169   0.97234   0.00000  Uiso   1.00
C907   C     0.52913   0.48179   0.54344   0.00000  Uiso   1.00
C908   C     0.40988   0.47066   0.52789   0.00000  Uiso   1.00
C909   C     0.50595   0.48805   0.97651   0.00000  Uiso   1.00
C910   C     0.49281   0.48907   0.52298   0.00000  Uiso   1.00
C911   C     0.47001   0.47812   0.95642   0.00000  Uiso   1.00
C912   C     0.57577   0.47039   0.51832   0.00000  Uiso   1.00
C913   C     0.42359   0.46653   0.98209   0.00000  Uiso   1.00
C914   C     0.64299   0.35569   0.72501   0.00000  Uiso   1.00
C915   C     0.35701   0.64433   0.77498   0.00000  Uiso   1.00
C916   C     0.64457   0.64634   0.72168   0.00000  Uiso   1.00
Cu917  Cu    0.38022   0.50001   0.75000   0.00000  Uiso   1.00
Cu918  Cu    0.61978   0.49999   0.75000   0.00000  Uiso   1.00
H919   H     0.60143   0.46137   0.53509   0.00000  Uiso   1.00
H920   H     0.47388   0.54497   0.69942   0.00000  Uiso   1.00
H921   H     0.43965   0.45535   0.80091   0.00000  Uiso   1.00
H922   H     0.56031   0.54475   0.69921   0.00000  Uiso   1.00
H923   H     0.46441   0.51522   0.62941   0.00000  Uiso   1.00
H924   H     0.53323   0.51000   0.86998   0.00000  Uiso   1.00
H925   H     0.63464   0.40916   0.98215   0.00000  Uiso   1.00
H926   H     0.64686   0.41452   0.56294   0.00000  Uiso   1.00
H927   H     0.63958   0.60100   0.68321   0.00000  Uiso   1.00
H928   H     0.36023   0.39902   0.81689   0.00000  Uiso   1.00
H929   H     0.39878   0.45448   0.96579   0.00000  Uiso   1.00
H930   H     0.64766   0.45523   0.61997   0.00000  Uiso   1.00
H931   H     0.35263   0.45698   0.88172   0.00000  Uiso   1.00
H932   H     0.52054   0.47875   0.57870   0.00000  Uiso   1.00
H933   H     0.47900   0.47297   0.92142   0.00000  Uiso   1.00
H934   H     0.62577   0.37308   0.70467   0.00000  Uiso   1.00
H935   H     0.37426   0.62695   0.79530   0.00000  Uiso   1.00
H936   H     0.52602   0.45540   0.80098   0.00000  Uiso   1.00
N937   N     0.45069   0.50001   0.74999   0.00000  Uiso   1.00
N938   N     0.54931   0.49999   0.75001   0.00000  Uiso   1.00
O939   O     0.37291   0.43989   0.75000   0.00000  Uiso   1.00
O940   O     0.54401   0.52615   0.89173   0.00000  Uiso   1.00
O941   O     0.65877   0.42568   0.95953   0.00000  Uiso   1.00
O942   O     0.34079   0.42584   0.53852   0.00000  Uiso   1.00
O943   O     0.62438   0.62830   0.69195   0.00000  Uiso   1.00
O944   O     0.37549   0.37173   0.80814   0.00000  Uiso   1.00
O945   O     0.62709   0.56011   0.75000   0.00000  Uiso   1.00
O946   O     0.62706   0.43988   0.75000   0.00000  Uiso   1.00
O947   O     0.37294   0.56012   0.74999   0.00000  Uiso   1.00
O948   O     0.35186   0.50001   0.81491   0.00000  Uiso   1.00
O949   O     0.64814   0.49999   0.68508   0.00000  Uiso   1.00
O950   O     0.60600   0.50000   0.81492   0.00000  Uiso   1.00
O951   O     0.39400   0.50000   0.68508   0.00000  Uiso   1.00
O952   O     0.45395   0.52945   0.60632   0.00000  Uiso   1.00
C953   C     0.99950   0.42085   0.75127   0.00000  Uiso   1.00
C954   C     0.68872   0.35369   0.77835   0.00000  Uiso   1.00
C955   C     0.66781   0.62383   0.74767   0.00000  Uiso   1.00
C956   C     0.99884   0.37619   0.75234   0.00000  Uiso   1.00
C957   C     0.84853   0.47528   0.77827   0.00000  Uiso   1.00
C958   C     0.81810   0.52484   0.72187   0.00000  Uiso   1.00
C959   C     0.79909   0.47527   0.77823   0.00000  Uiso   1.00
C960   C     0.86756   0.52478   0.72182   0.00000  Uiso   1.00
C961   C     0.97181   0.49921   0.83551   0.00000  Uiso   1.00
C962   C     0.69482   0.49928   0.66449   0.00000  Uiso   1.00
C963   C     0.95458   0.49140   0.88289   0.00000  Uiso   1.00
C964   C     0.66716   0.57916   0.74873   0.00000  Uiso   1.00
C965   C     0.71171   0.49118   0.61721   0.00000  Uiso   1.00
C966   C     0.96737   0.45653   0.94574   0.00000  Uiso   1.00
C967   C     0.69848   0.45540   0.55479   0.00000  Uiso   1.00
C968   C     0.98421   0.46831   0.90180   0.00000  Uiso   1.00
C969   C     0.68241   0.46675   0.59917   0.00000  Uiso   1.00
C970   C     0.90601   0.50037   0.90786   0.00000  Uiso   1.00
C971   C     0.75947   0.50172   0.59140   0.00000  Uiso   1.00
C972   C     0.88907   0.48790   0.95208   0.00000  Uiso   1.00
C973   C     0.77632   0.48851   0.54747   0.00000  Uiso   1.00
C974   C     0.92230   0.47169   0.97234   0.00000  Uiso   1.00
C975   C     0.86246   0.48179   0.54344   0.00000  Uiso   1.00
C976   C     0.74321   0.47066   0.52789   0.00000  Uiso   1.00
C977   C     0.83928   0.48805   0.97651   0.00000  Uiso   1.00
C978   C     0.82614   0.48907   0.52298   0.00000  Uiso   1.00
C979   C     0.80334   0.47812   0.95642   0.00000  Uiso   1.00
C980   C     0.90910   0.47039   0.51832   0.00000  Uiso   1.00
C981   C     0.75692   0.46653   0.98209   0.00000  Uiso   1.00
C982   C     0.97632   0.35569   0.72501   0.00000  Uiso   1.00
C983   C     0.69035   0.64433   0.77498   0.00000  Uiso   1.00
C984   C     0.97791   0.64634   0.72168   0.00000  Uiso   1.00
Cu985  Cu    0.71355   0.50001   0.75000   0.00000  Uiso   1.00
Cu986  Cu    0.95311   0.49999   0.75000   0.00000  Uiso   1.00
H987   H     0.93476   0.46137   0.53509   0.00000  Uiso   1.00
H988   H     0.80722   0.54497   0.69942   0.00000  Uiso   1.00
H989   H     0.77298   0.45535   0.80091   0.00000  Uiso   1.00
H990   H     0.89364   0.54475   0.69921   0.00000  Uiso   1.00
H991   H     0.79774   0.51522   0.62941   0.00000  Uiso   1.00
H992   H     0.86657   0.51000   0.86998   0.00000  Uiso   1.00
H993   H     0.96797   0.40916   0.98215   0.00000  Uiso   1.00
H994   H     0.98019   0.41452   0.56294   0.00000  Uiso   1.00
H995   H     0.97291   0.60100   0.68321   0.00000  Uiso   1.00
H996   H     0.69357   0.39902   0.81689   0.00000  Uiso   1.00
H997   H     0.73212   0.45448   0.96579   0.00000  Uiso   1.00
H998   H     0.98099   0.45523   0.61997   0.00000  Uiso   1.00
H999   H     0.68596   0.45698   0.88172   0.00000  Uiso   1.00
H1000  H     0.85388   0.47875   0.57870   0.00000  Uiso   1.00
H1001  H     0.81234   0.47297   0.92142   0.00000  Uiso   1.00
H1002  H     0.95910   0.37308   0.70467   0.00000  Uiso   1.00
H1003  H     0.70759   0.62695   0.79530   0.00000  Uiso   1.00
H1004  H     0.85935   0.45540   0.80098   0.00000  Uiso   1.00
N1005  N     0.78403   0.50001   0.74999   0.00000  Uiso   1.00
N1006  N     0.88264   0.49999   0.75001   0.00000  Uiso   1.00
O1007  O     0.70625   0.43989   0.75000   0.00000  Uiso   1.00
O1008  O     0.87735   0.52615   0.89173   0.00000  Uiso   1.00
O1009  O     0.99211   0.42568   0.95953   0.00000  Uiso   1.00
O1010  O     0.67412   0.42584   0.53852   0.00000  Uiso   1.00
O1011  O     0.95771   0.62830   0.69195   0.00000  Uiso   1.00
O1012  O     0.70883   0.37173   0.80814   0.00000  Uiso   1.00
O1013  O     0.96042   0.56011   0.75000   0.00000  Uiso   1.00
O1014  O     0.96039   0.43988   0.75000   0.00000  Uiso   1.00
O1015  O     0.70628   0.56012   0.74999   0.00000  Uiso   1.00
O1016  O     0.68519   0.50001   0.81491   0.00000  Uiso   1.00
O1017  O     0.98148   0.49999   0.68508   0.00000  Uiso   1.00
O1018  O     0.93933   0.50000   0.81492   0.00000  Uiso   1.00
O1019  O     0.72733   0.50000   0.68508   0.00000  Uiso   1.00
O1020  O     0.78729   0.52945   0.60632   0.00000  Uiso   1.00
C1021  C     0.33283   0.75418   0.75127   0.00000  Uiso   1.00
C1022  C     0.02205   0.68702   0.77835   0.00000  Uiso   1.00
C1023  C     0.00115   0.95716   0.74767   0.00000  Uiso   1.00
C1024  C     0.33218   0.70953   0.75234   0.00000  Uiso   1.00
C1025  C     0.18186   0.80862   0.77827   0.00000  Uiso   1.00
C1026  C     0.15143   0.85818   0.72187   0.00000  Uiso   1.00
C1027  C     0.13243   0.80860   0.77823   0.00000  Uiso   1.00
C1028  C     0.20089   0.85811   0.72182   0.00000  Uiso   1.00
C1029  C     0.30515   0.83255   0.83551   0.00000  Uiso   1.00
C1030  C     0.02815   0.83262   0.66449   0.00000  Uiso   1.00
C1031  C     0.28791   0.82473   0.88289   0.00000  Uiso   1.00
C1032  C     0.00050   0.91249   0.74873   0.00000  Uiso   1.00
C1033  C     0.04505   0.82452   0.61721   0.00000  Uiso   1.00
C1034  C     0.30070   0.78986   0.94574   0.00000  Uiso   1.00
C1035  C     0.03182   0.78873   0.55479   0.00000  Uiso   1.00
C1036  C     0.31754   0.80164   0.90180   0.00000  Uiso   1.00
C1037  C     0.01574   0.80008   0.59917   0.00000  Uiso   1.00
C1038  C     0.23935   0.83371   0.90786   0.00000  Uiso   1.00
C1039  C     0.09281   0.83505   0.59140   0.00000  Uiso   1.00
C1040  C     0.22241   0.82123   0.95208   0.00000  Uiso   1.00
C1041  C     0.10965   0.82185   0.54747   0.00000  Uiso   1.00
C1042  C     0.25563   0.80503   0.97234   0.00000  Uiso   1.00
C1043  C     0.19580   0.81512   0.54344   0.00000  Uiso   1.00
C1044  C     0.07655   0.80400   0.52789   0.00000  Uiso   1.00
C1045  C     0.17262   0.82138   0.97651   0.00000  Uiso   1.00
C1046  C     0.15947   0.82240   0.52298   0.00000  Uiso   1.00
C1047  C     0.13667   0.81145   0.95642   0.00000  Uiso   1.00
C1048  C     0.24244   0.80372   0.51832   0.00000  Uiso   1.00
C1049  C     0.09026   0.79987   0.98209   0.00000  Uiso   1.00
C1050  C     0.30966   0.68903   0.72501   0.00000  Uiso   1.00
C1051  C     0.02368   0.97767   0.77498   0.00000  Uiso   1.00
C1052  C     0.31124   0.97967   0.72168   0.00000  Uiso   1.00
Cu1053 Cu    0.04689   0.83334   0.75000   0.00000  Uiso   1.00
Cu1054 Cu    0.28645   0.83333   0.75000   0.00000  Uiso   1.00
H1055  H     0.26810   0.79471   0.53509   0.00000  Uiso   1.00
H1056  H     0.14055   0.87830   0.69942   0.00000  Uiso   1.00
H1057  H     0.10632   0.78869   0.80091   0.00000  Uiso   1.00
H1058  H     0.22698   0.87808   0.69921   0.00000  Uiso   1.00
H1059  H     0.13108   0.84855   0.62941   0.00000  Uiso   1.00
H1060  H     0.19990   0.84334   0.86998   0.00000  Uiso   1.00
H1061  H     0.30130   0.74249   0.98215   0.00000  Uiso   1.00
H1062  H     0.31352   0.74785   0.56294   0.00000  Uiso   1.00
H1063  H     0.30624   0.93433   0.68321   0.00000  Uiso   1.00
H1064  H     0.02690   0.73235   0.81689   0.00000  Uiso   1.00
H1065  H     0.06545   0.78782   0.96579   0.00000  Uiso   1.00
H1066  H     0.31432   0.78856   0.61997   0.00000  Uiso   1.00
H1067  H     0.01930   0.79031   0.88172   0.00000  Uiso   1.00
H1068  H     0.18721   0.81208   0.57870   0.00000  Uiso   1.00
H1069  H     0.14567   0.80631   0.92142   0.00000  Uiso   1.00
H1070  H     0.29244   0.70641   0.70467   0.00000  Uiso   1.00
H1071  H     0.04093   0.96029   0.79530   0.00000  Uiso   1.00
H1072  H     0.19269   0.78874   0.80098   0.00000  Uiso   1.00
N1073  N     0.11736   0.83334   0.74999   0.00000  Uiso   1.00
N1074  N     0.21597   0.83332   0.75001   0.00000  Uiso   1.00
O1075  O     0.03958   0.77322   0.75000   0.00000  Uiso   1.00
O1076  O     0.21068   0.85949   0.89173   0.00000  Uiso   1.00
O1077  O     0.32544   0.75902   0.95953   0.00000  Uiso   1.00
O1078  O     0.00745   0.75917   0.53852   0.00000  Uiso   1.00
O1079  O     0.29104   0.96164   0.69195   0.00000  Uiso   1.00
O1080  O     0.04216   0.70507   0.80814   0.00000  Uiso   1.00
O1081  O     0.29375   0.89345   0.75000   0.00000  Uiso   1.00
O1082  O     0.29372   0.77321   0.75000   0.00000  Uiso   1.00
O1083  O     0.03961   0.89346   0.74999   0.00000  Uiso   1.00
O1084  O     0.01852   0.83334   0.81491   0.00000  Uiso   1.00
O1085  O     0.31481   0.83332   0.68508   0.00000  Uiso   1.00
O1086  O     0.27267   0.83333   0.81492   0.00000  Uiso   1.00
O1087  O     0.06067   0.83333   0.68508   0.00000  Uiso   1.00
O1088  O     0.12062   0.86278   0.60632   0.00000  Uiso   1.00
C1089  C     0.66617   0.75418   0.75127   0.00000  Uiso   1.00
C1090  C     0.35538   0.68702   0.77835   0.00000  Uiso   1.00
C1091  C     0.33448   0.95716   0.74767   0.00000  Uiso   1.00
C1092  C     0.66551   0.70953   0.75234   0.00000  Uiso   1.00
C1093  C     0.51520   0.80862   0.77827   0.00000  Uiso   1.00
C1094  C     0.48477   0.85818   0.72187   0.00000  Uiso   1.00
C1095  C     0.46576   0.80860   0.77823   0.00000  Uiso   1.00
C1096  C     0.53422   0.85811   0.72182   0.00000  Uiso   1.00
C1097  C     0.63848   0.83255   0.83551   0.00000  Uiso   1.00
C1098  C     0.36148   0.83262   0.66449   0.00000  Uiso   1.00
C1099  C     0.62125   0.82473   0.88289   0.00000  Uiso   1.00
C1100  C     0.33383   0.91249   0.74873   0.00000  Uiso   1.00
C1101  C     0.37838   0.82452   0.61721   0.00000  Uiso   1.00
C1102  C     0.63404   0.78986   0.94574   0.00000  Uiso   1.00
C1103  C     0.36515   0.78873   0.55479   0.00000  Uiso   1.00
C1104  C     0.65087   0.80164   0.90180   0.00000  Uiso   1.00
C1105  C     0.34907   0.80008   0.59917   0.00000  Uiso   1.00
C1106  C     0.57268   0.83371   0.90786   0.00000  Uiso   1.00
C1107  C     0.42614   0.83505   0.59140   0.00000  Uiso   1.00
C1108  C     0.55574   0.82123   0.95208   0.00000  Uiso   1.00
C1109  C     0.44298   0.82185   0.54747   0.00000  Uiso   1.00
C1110  C     0.58896   0.80503   0.97234   0.00000  Uiso   1.00
C1111  C     0.52913   0.81512   0.54344   0.00000  Uiso   1.00
C1112  C     0.40988   0.80400   0.52789   0.00000  Uiso   1.00
C1113  C     0.50595   0.82138   0.97651   0.00000  Uiso   1.00
C1114  C     0.49281   0.82240   0.52298   0.00000  Uiso   1.00
C1115  C     0.47001   0.81145   0.95642   0.00000  Uiso   1.00
C1116  C     0.57577   0.80372   0.51832   0.00000  Uiso   1.00
C1117  C     0.42359   0.79987   0.98209   0.00000  Uiso   1.00
C1118  C     0.64299   0.68903   0.72501   0.00000  Uiso   1.00
C1119  C     0.35701   0.97767   0.77498   0.00000  Uiso   1.00
C1120  C     0.64457   0.97967   0.72168   0.00000  Uiso   1.00
Cu1121 Cu    0.38022   0.83334   0.75000   0.00000  Uiso   1.00
Cu1122 Cu    0.61978   0.83333   0.75000   0.00000  Uiso   1.00
H1123  H     0.60143   0.79471   0.53509   0.00000  Uiso   1.00
H1124  H     0.47388   0.87830   0.69942   0.00000  Uiso   1.00
H1125  H     0.43965   0.78869   0.80091   0.00000  Uiso   1.00
H1126  H     0.56031   0.87808   0.69921   0.00000  Uiso   1.00
H1127  H     0.46441   0.84855   0.62941   0.00000  Uiso   1.00
H1128  H     0.53323   0.84334   0.86998   0.00000  Uiso   1.00
H1129  H     0.63464   0.74249   0.98215   0.00000  Uiso   1.00
H1130  H     0.64686   0.74785   0.56294   0.00000  Uiso   1.00
H1131  H     0.63958   0.93433   0.68321   0.00000  Uiso   1.00
H1132  H     0.36023   0.73235   0.81689   0.00000  Uiso   1.00
H1133  H     0.39878   0.78782   0.96579   0.00000  Uiso   1.00
H1134  H     0.64766   0.78856   0.61997   0.00000  Uiso   1.00
H1135  H     0.35263   0.79031   0.88172   0.00000  Uiso   1.00
H1136  H     0.52054   0.81208   0.57870   0.00000  Uiso   1.00
H1137  H     0.47900   0.80631   0.92142   0.00000  Uiso   1.00
H1138  H     0.62577   0.70641   0.70467   0.00000  Uiso   1.00
H1139  H     0.37426   0.96029   0.79530   0.00000  Uiso   1.00
H1140  H     0.52602   0.78874   0.80098   0.00000  Uiso   1.00
N1141  N     0.45069   0.83334   0.74999   0.00000  Uiso   1.00
N1142  N     0.54931   0.83332   0.75001   0.00000  Uiso   1.00
O1143  O     0.37291   0.77322   0.75000   0.00000  Uiso   1.00
O1144  O     0.54401   0.85949   0.89173   0.00000  Uiso   1.00
O1145  O     0.65877   0.75902   0.95953   0.00000  Uiso   1.00
O1146  O     0.34079   0.75917   0.53852   0.00000  Uiso   1.00
O1147  O     0.62438   0.96164   0.69195   0.00000  Uiso   1.00
O1148  O     0.37549   0.70507   0.80814   0.00000  Uiso   1.00
O1149  O     0.62709   0.89345   0.75000   0.00000  Uiso   1.00
O1150  O     0.62706   0.77321   0.75000   0.00000  Uiso   1.00
O1151  O     0.37294   0.89346   0.74999   0.00000  Uiso   1.00
O1152  O     0.35186   0.83334   0.81491   0.00000  Uiso   1.00
O1153  O     0.64814   0.83332   0.68508   0.00000  Uiso   1.00
O1154  O     0.60600   0.83333   0.81492   0.00000  Uiso   1.00
O1155  O     0.39400   0.83333   0.68508   0.00000  Uiso   1.00
O1156  O     0.45395   0.86278   0.60632   0.00000  Uiso   1.00
C1157  C     0.99950   0.75418   0.75127   0.00000  Uiso   1.00
C1158  C     0.68872   0.68702   0.77835   0.00000  Uiso   1.00
C1159  C     0.66781   0.95716   0.74767   0.00000  Uiso   1.00
C1160  C     0.99884   0.70953   0.75234   0.00000  Uiso   1.00
C1161  C     0.84853   0.80862   0.77827   0.00000  Uiso   1.00
C1162  C     0.81810   0.85818   0.72187   0.00000  Uiso   1.00
C1163  C     0.79909   0.80860   0.77823   0.00000  Uiso   1.00
C1164  C     0.86756   0.85811   0.72182   0.00000  Uiso   1.00
C1165  C     0.97181   0.83255   0.83551   0.00000  Uiso   1.00
C1166  C     0.69482   0.83262   0.66449   0.00000  Uiso   1.00
C1167  C     0.95458   0.82473   0.88289   0.00000  Uiso   1.00
C1168  C     0.66716   0.91249   0.74873   0.00000  Uiso   1.00
C1169  C     0.71171   0.82452   0.61721   0.00000  Uiso   1.00
C1170  C     0.96737   0.78986   0.94574   0.00000  Uiso   1.00
C1171  C     0.69848   0.78873   0.55479   0.00000  Uiso   1.00
C1172  C     0.98421   0.80164   0.90180   0.00000  Uiso   1.00
C1173  C     0.68241   0.80008   0.59917   0.00000  Uiso   1.00
C1174  C     0.90601   0.83371   0.90786   0.00000  Uiso   1.00
C1175  C     0.75947   0.83505   0.59140   0.00000  Uiso   1.00
C1176  C     0.88907   0.82123   0.95208   0.00000  Uiso   1.00
C1177  C     0.77632   0.82185   0.54747   0.00000  Uiso   1.00
C1178  C     0.92230   0.80503   0.97234   0.00000  Uiso   1.00
C1179  C     0.86246   0.81512   0.54344   0.00000  Uiso   1.00
C1180  C     0.74321   0.80400   0.52789   0.00000  Uiso   1.00
C1181  C     0.83928   0.82138   0.97651   0.00000  Uiso   1.00
C1182  C     0.82614   0.82240   0.52298   0.00000  Uiso   1.00
C1183  C     0.80334   0.81145   0.95642   0.00000  Uiso   1.00
C1184  C     0.90910   0.80372   0.51832   0.00000  Uiso   1.00
C1185  C     0.75692   0.79987   0.98209   0.00000  Uiso   1.00
C1186  C     0.97632   0.68903   0.72501   0.00000  Uiso   1.00
C1187  C     0.69035   0.97767   0.77498   0.00000  Uiso   1.00
C1188  C     0.97791   0.97967   0.72168   0.00000  Uiso   1.00
Cu1189 Cu    0.71355   0.83334   0.75000   0.00000  Uiso   1.00
Cu1190 Cu    0.95311   0.83333   0.75000   0.00000  Uiso   1.00
H1191  H     0.93476   0.79471   0.53509   0.00000  Uiso   1.00
H1192  H     0.80722   0.87830   0.69942   0.00000  Uiso   1.00
H1193  H     0.77298   0.78869   0.80091   0.00000  Uiso   1.00
H1194  H     0.89364   0.87808   0.69921   0.00000  Uiso   1.00
H1195  H     0.79774   0.84855   0.62941   0.00000  Uiso   1.00
H1196  H     0.86657   0.84334   0.86998   0.00000  Uiso   1.00
H1197  H     0.96797   0.74249   0.98215   0.00000  Uiso   1.00
H1198  H     0.98019   0.74785   0.56294   0.00000  Uiso   1.00
H1199  H     0.97291   0.93433   0.68321   0.00000  Uiso   1.00
H1200  H     0.69357   0.73235   0.81689   0.00000  Uiso   1.00
H1201  H     0.73212   0.78782   0.96579   0.00000  Uiso   1.00
H1202  H     0.98099   0.78856   0.61997   0.00000  Uiso   1.00
H1203  H     0.68596   0.79031   0.88172   0.00000  Uiso   1.00
H1204  H     0.85388   0.81208   0.57870   0.00000  Uiso   1.00
H1205  H     0.81234   0.80631   0.92142   0.00000  Uiso   1.00
H1206  H     0.95910   0.70641   0.70467   0.00000  Uiso   1.00
H1207  H     0.70759   0.96029   0.79530   0.00000  Uiso   1.00
H1208  H     0.85935   0.78874   0.80098   0.00000  Uiso   1.00
N1209  N     0.78403   0.83334   0.74999   0.00000  Uiso   1.00
N1210  N     0.88264   0.83332   0.75001   0.00000  Uiso   1.00
O1211  O     0.70625   0.77322   0.75000   0.00000  Uiso   1.00
O1212  O     0.87735   0.85949   0.89173   0.00000  Uiso   1.00
O1213  O     0.99211   0.75902   0.95953   0.00000  Uiso   1.00
O1214  O     0.67412   0.75917   0.53852   0.00000  Uiso   1.00
O1215  O     0.95771   0.96164   0.69195   0.00000  Uiso   1.00
O1216  O     0.70883   0.70507   0.80814   0.00000  Uiso   1.00
O1217  O     0.96042   0.89345   0.75000   0.00000  Uiso   1.00
O1218  O     0.96039   0.77321   0.75000   0.00000  Uiso   1.00
O1219  O     0.70628   0.89346   0.74999   0.00000  Uiso   1.00
O1220  O     0.68519   0.83334   0.81491   0.00000  Uiso   1.00
O1221  O     0.98148   0.83332   0.68508   0.00000  Uiso   1.00
O1222  O     0.93933   0.83333   0.81492   0.00000  Uiso   1.00
O1223  O     0.72733   0.83333   0.68508   0.00000  Uiso   1.00
O1224  O     0.78729   0.86278   0.60632   0.00000  Uiso   1.00
loop_
_geom_bond_atom_site_label_1
_geom_bond_atom_site_label_2
_geom_bond_distance
_geom_bond_site_symmetry_2
_ccdc_geom_bond_type
C1     C4      1.446   .     S
C1     O62     1.295   .     A
C1     O123    1.295   .     S
C2     O60     1.381   .     S
C2     C140    1.414   1_455 S
C2     C439    1.386   1_545 S
C3     C31     1.399   .     A
C3     C12     1.446   .     S
C3     C168    1.414   1_455 S
C4     C30     1.399   .     A
C4     C70     1.414   .     S
C5     H52     1.082   .     S
C5     N54     1.369   .     A
C5     C7      1.422   .     A
C6     H36     1.081   .     S
C6     N53     1.369   .     A
C6     C8      1.422   .     A
C7     H37     1.082   .     S
C7     N53     1.369   .     A
C8     H38     1.082   .     S
C8     N54     1.369   .     A
C9     C11     1.462   .     S
C9     O66     1.294   .     A
C9     O132    1.305   .     S
C10    O67     1.294   .     A
C10    C13     1.461   .     S
C10    O201    1.305   1_455 S
C11    C16     1.400   .     A
C11    C18     1.415   .     A
C12    O63     1.295   .     A
C12    O197    1.296   1_455 S
C13    C17     1.399   .     A
C13    C19     1.412   .     A
C14    C22     1.408   .     A
C14    C16     1.389   .     A
C14    O57     1.374   .     S
C15    C24     1.402   .     A
C15    O58     1.376   .     S
C15    C17     1.399   .     A
C16    H115    1.084   .     S
C17    H182    1.084   1_455 S
C18    O56     1.378   .     S
C18    C20     1.404   .     A
C19    O68     1.378   .     S
C19    C21     1.404   .     A
C20    C25     1.409   .     A
C20    C22     1.407   .     A
C21    C26     1.410   .     A
C21    C24     1.409   .     A
C22    C640    1.399   .     S
C23    H48     1.079   .     S
C23    C28     1.390   .     A
C23    C26     1.409   .     A
C24    C641    1.399   1_554 S
C25    C27     1.407   .     A
C25    C638    1.414   .     S
C26    C637    1.414   1_554 S
C27    C29     1.389   .     A
C27    H49     1.080   .     S
C28    H35     1.074   .     S
C28    C634    1.399   1_554 S
C29    H45     1.074   .     S
C29    C636    1.399   .     S
C30    H50     1.085   .     S
C30    C440    1.386   1_545 S
C31    H51     1.085   .     S
C31    C206    1.386   .     S
C32    O59     1.381   .     S
C32    C71     1.414   .     S
C32    C234    1.386   .     S
Cu33   O55     1.957   .     S
Cu33   O63     1.958   .     S
Cu33   O64     1.982   .     S
Cu33   N53     2.027   .     S
Cu33   O67     1.986   .     S
Cu33   Cu170   2.697   1_455 S
Cu34   O66     1.986   .     S
Cu34   N54     2.027   .     S
Cu34   O62     1.958   .     S
Cu34   O61     1.957   .     S
Cu34   O65     1.982   .     S
Cu34   Cu101   2.697   .     S
H39    O68     0.989   .     S
H40    O56     0.990   .     S
H41    O57     0.991   .     S
H42    O126    0.992   .     S
H43    O59     0.989   .     S
H44    O60     0.989   .     S
H46    C85     1.084   .     S
H47    C152    1.084   1_455 S
O55    C137    1.295   1_455 S
O58    H178    0.992   1_455 S
O61    C80     1.296   .     S
O64    C145    1.305   1_455 S
O65    C78     1.305   .     S
C69    C72     1.446   .     S
C69    O130    1.295   .     A
C69    O191    1.295   .     S
C70    O128    1.381   .     S
C70    C507    1.386   1_545 S
C71    C99     1.399   .     A
C71    C80     1.446   .     S
C72    C98     1.399   .     A
C72    C138    1.414   .     S
C73    H120    1.082   .     S
C73    N122    1.369   .     A
C73    C75     1.422   .     A
C74    H104    1.081   .     S
C74    N121    1.369   .     A
C74    C76     1.422   .     A
C75    H105    1.082   .     S
C75    N121    1.369   .     A
C76    H106    1.082   .     S
C76    N122    1.369   .     A
C77    C79     1.462   .     S
C77    O134    1.294   .     A
C77    O200    1.305   .     S
C78    O135    1.294   .     A
C78    C81     1.461   .     S
C79    C84     1.400   .     A
C79    C86     1.415   .     A
C80    O131    1.295   .     A
C81    C85     1.399   .     A
C81    C87     1.412   .     A
C82    C90     1.408   .     A
C82    C84     1.389   .     A
C82    O125    1.374   .     S
C83    C92     1.402   .     A
C83    O126    1.376   .     S
C83    C85     1.399   .     A
C84    H183    1.084   .     S
C86    O124    1.378   .     S
C86    C88     1.404   .     A
C87    O136    1.378   .     S
C87    C89     1.404   .     A
C88    C93     1.409   .     A
C88    C90     1.407   .     A
C89    C94     1.410   .     A
C89    C92     1.409   .     A
C90    C708    1.399   .     S
C91    H116    1.079   .     S
C91    C96     1.390   .     A
C91    C94     1.409   .     A
C92    C709    1.399   1_554 S
C93    C95     1.407   .     A
C93    C706    1.414   .     S
C94    C705    1.414   1_554 S
C95    C97     1.389   .     A
C95    H117    1.080   .     S
C96    H103    1.074   .     S
C96    C702    1.399   1_554 S
C97    H113    1.074   .     S
C97    C704    1.399   .     S
C98    H118    1.085   .     S
C98    C508    1.386   1_545 S
C99    H119    1.085   .     S
C99    C274    1.386   .     S
C100   O127    1.381   .     S
C100   C139    1.414   .     S
C100   C302    1.386   .     S
Cu101  O123    1.957   .     S
Cu101  O131    1.958   .     S
Cu101  O132    1.982   .     S
Cu101  N121    2.027   .     S
Cu101  O135    1.986   .     S
Cu102  O134    1.986   .     S
Cu102  N122    2.027   .     S
Cu102  O130    1.958   .     S
Cu102  O129    1.957   .     S
Cu102  O133    1.982   .     S
Cu102  Cu169   2.697   .     S
H107   O136    0.989   .     S
H108   O124    0.990   .     S
H109   O125    0.991   .     S
H110   O194    0.992   .     S
H111   O127    0.989   .     S
H112   O128    0.989   .     S
H114   C153    1.084   .     S
O129   C148    1.296   .     S
O133   C146    1.305   .     S
C137   C140    1.446   .     S
C137   O198    1.295   .     A
C137   O55     1.295   1_655 S
C138   O196    1.381   .     S
C138   C575    1.386   1_545 S
C139   C167    1.399   .     A
C139   C148    1.446   .     S
C140   C166    1.399   .     A
C140   C2      1.414   1_655 S
C141   H188    1.082   .     S
C141   N190    1.369   .     A
C141   C143    1.422   .     A
C142   H172    1.081   .     S
C142   N189    1.369   .     A
C142   C144    1.422   .     A
C143   H173    1.082   .     S
C143   N189    1.369   .     A
C144   H174    1.082   .     S
C144   N190    1.369   .     A
C145   C147    1.462   .     S
C145   O202    1.294   .     A
C145   O64     1.305   1_655 S
C146   O203    1.294   .     A
C146   C149    1.461   .     S
C147   C152    1.400   .     A
C147   C154    1.415   .     A
C148   O199    1.295   .     A
C149   C153    1.399   .     A
C149   C155    1.412   .     A
C150   C158    1.408   .     A
C150   C152    1.389   .     A
C150   O193    1.374   .     S
C151   C160    1.402   .     A
C151   O194    1.376   .     S
C151   C153    1.399   .     A
C152   H47     1.084   1_655 S
C154   O192    1.378   .     S
C154   C156    1.404   .     A
C155   O204    1.378   .     S
C155   C157    1.404   .     A
C156   C161    1.409   .     A
C156   C158    1.407   .     A
C157   C162    1.410   .     A
C157   C160    1.409   .     A
C158   C776    1.399   .     S
C159   H184    1.079   .     S
C159   C164    1.390   .     A
C159   C162    1.409   .     A
C160   C777    1.399   1_554 S
C161   C163    1.407   .     A
C161   C774    1.414   .     S
C162   C773    1.414   1_554 S
C163   C165    1.389   .     A
C163   H185    1.080   .     S
C164   H171    1.074   .     S
C164   C770    1.399   1_554 S
C165   H181    1.074   .     S
C165   C772    1.399   .     S
C166   H186    1.085   .     S
C166   C576    1.386   1_545 S
C167   H187    1.085   .     S
C167   C342    1.386   .     S
C168   O195    1.381   .     S
C168   C3      1.414   1_655 S
C168   C370    1.386   .     S
Cu169  O191    1.957   .     S
Cu169  O199    1.958   .     S
Cu169  O200    1.982   .     S
Cu169  N189    2.027   .     S
Cu169  O203    1.986   .     S
Cu170  O202    1.986   .     S
Cu170  N190    2.027   .     S
Cu170  O198    1.958   .     S
Cu170  O197    1.957   .     S
Cu170  O201    1.982   .     S
Cu170  Cu33    2.697   1_655 S
H175   O204    0.989   .     S
H176   O192    0.990   .     S
H177   O193    0.991   .     S
H178   O58     0.992   1_655 S
H179   O195    0.989   .     S
H180   O196    0.989   .     S
H182   C17     1.084   1_655 S
O197   C12     1.296   1_655 S
O201   C10     1.305   1_655 S
C205   C208    1.446   .     S
C205   O266    1.295   .     A
C205   O327    1.295   .     S
C206   O264    1.381   .     S
C206   C344    1.414   1_455 S
C207   C235    1.399   .     A
C207   C216    1.446   .     S
C207   C372    1.414   1_455 S
C208   C234    1.399   .     A
C208   C274    1.414   .     S
C209   H256    1.082   .     S
C209   N258    1.369   .     A
C209   C211    1.422   .     A
C210   H240    1.081   .     S
C210   N257    1.369   .     A
C210   C212    1.422   .     A
C211   H241    1.082   .     S
C211   N257    1.369   .     A
C212   H242    1.082   .     S
C212   N258    1.369   .     A
C213   C215    1.462   .     S
C213   O270    1.294   .     A
C213   O336    1.305   .     S
C214   O271    1.294   .     A
C214   C217    1.461   .     S
C214   O405    1.305   1_455 S
C215   C220    1.400   .     A
C215   C222    1.415   .     A
C216   O267    1.295   .     A
C216   O401    1.296   1_455 S
C217   C221    1.399   .     A
C217   C223    1.412   .     A
C218   C226    1.408   .     A
C218   C220    1.389   .     A
C218   O261    1.374   .     S
C219   C228    1.402   .     A
C219   O262    1.376   .     S
C219   C221    1.399   .     A
C220   H319    1.084   .     S
C221   H386    1.084   1_455 S
C222   O260    1.378   .     S
C222   C224    1.404   .     A
C223   O272    1.378   .     S
C223   C225    1.404   .     A
C224   C229    1.409   .     A
C224   C226    1.407   .     A
C225   C230    1.410   .     A
C225   C228    1.409   .     A
C226   C844    1.399   .     S
C227   H252    1.079   .     S
C227   C232    1.390   .     A
C227   C230    1.409   .     A
C228   C845    1.399   1_554 S
C229   C231    1.407   .     A
C229   C842    1.414   .     S
C230   C841    1.414   1_554 S
C231   C233    1.389   .     A
C231   H253    1.080   .     S
C232   H239    1.074   .     S
C232   C838    1.399   1_554 S
C233   H249    1.074   .     S
C233   C840    1.399   .     S
C234   H254    1.085   .     S
C235   H255    1.085   .     S
C235   C410    1.386   .     S
C236   O263    1.381   .     S
C236   C275    1.414   .     S
C236   C438    1.386   .     S
Cu237  O259    1.957   .     S
Cu237  O267    1.958   .     S
Cu237  O268    1.982   .     S
Cu237  N257    2.027   .     S
Cu237  O271    1.986   .     S
Cu237  Cu374   2.697   1_455 S
Cu238  O270    1.986   .     S
Cu238  N258    2.027   .     S
Cu238  O266    1.958   .     S
Cu238  O265    1.957   .     S
Cu238  O269    1.982   .     S
Cu238  Cu305   2.697   .     S
H243   O272    0.989   .     S
H244   O260    0.990   .     S
H245   O261    0.991   .     S
H246   O330    0.992   .     S
H247   O263    0.989   .     S
H248   O264    0.989   .     S
H250   C289    1.084   .     S
H251   C356    1.084   1_455 S
O259   C341    1.295   1_455 S
O262   H382    0.992   1_455 S
O265   C284    1.296   .     S
O268   C349    1.305   1_455 S
O269   C282    1.305   .     S
C273   C276    1.446   .     S
C273   O334    1.295   .     A
C273   O395    1.295   .     S
C274   O332    1.381   .     S
C275   C303    1.399   .     A
C275   C284    1.446   .     S
C276   C302    1.399   .     A
C276   C342    1.414   .     S
C277   H324    1.082   .     S
C277   N326    1.369   .     A
C277   C279    1.422   .     A
C278   H308    1.081   .     S
C278   N325    1.369   .     A
C278   C280    1.422   .     A
C279   H309    1.082   .     S
C279   N325    1.369   .     A
C280   H310    1.082   .     S
C280   N326    1.369   .     A
C281   C283    1.462   .     S
C281   O338    1.294   .     A
C281   O404    1.305   .     S
C282   O339    1.294   .     A
C282   C285    1.461   .     S
C283   C288    1.400   .     A
C283   C290    1.415   .     A
C284   O335    1.295   .     A
C285   C289    1.399   .     A
C285   C291    1.412   .     A
C286   C294    1.408   .     A
C286   C288    1.389   .     A
C286   O329    1.374   .     S
C287   C296    1.402   .     A
C287   O330    1.376   .     S
C287   C289    1.399   .     A
C288   H387    1.084   .     S
C290   O328    1.378   .     S
C290   C292    1.404   .     A
C291   O340    1.378   .     S
C291   C293    1.404   .     A
C292   C297    1.409   .     A
C292   C294    1.407   .     A
C293   C298    1.410   .     A
C293   C296    1.409   .     A
C294   C912    1.399   .     S
C295   H320    1.079   .     S
C295   C300    1.390   .     A
C295   C298    1.409   .     A
C296   C913    1.399   1_554 S
C297   C299    1.407   .     A
C297   C910    1.414   .     S
C298   C909    1.414   1_554 S
C299   C301    1.389   .     A
C299   H321    1.080   .     S
C300   H307    1.074   .     S
C300   C906    1.399   1_554 S
C301   H317    1.074   .     S
C301   C908    1.399   .     S
C302   H322    1.085   .     S
C303   H323    1.085   .     S
C303   C478    1.386   .     S
C304   O331    1.381   .     S
C304   C343    1.414   .     S
C304   C506    1.386   .     S
Cu305  O327    1.957   .     S
Cu305  O335    1.958   .     S
Cu305  O336    1.982   .     S
Cu305  N325    2.027   .     S
Cu305  O339    1.986   .     S
Cu306  O338    1.986   .     S
Cu306  N326    2.027   .     S
Cu306  O334    1.958   .     S
Cu306  O333    1.957   .     S
Cu306  O337    1.982   .     S
Cu306  Cu373   2.697   .     S
H311   O340    0.989   .     S
H312   O328    0.990   .     S
H313   O329    0.991   .     S
H314   O398    0.992   .     S
H315   O331    0.989   .     S
H316   O332    0.989   .     S
H318   C357    1.084   .     S
O333   C352    1.296   .     S
O337   C350    1.305   .     S
C341   C344    1.446   .     S
C341   O402    1.295   .     A
C341   O259    1.295   1_655 S
C342   O400    1.381   .     S
C343   C371    1.399   .     A
C343   C352    1.446   .     S
C344   C370    1.399   .     A
C344   C206    1.414   1_655 S
C345   H392    1.082   .     S
C345   N394    1.369   .     A
C345   C347    1.422   .     A
C346   H376    1.081   .     S
C346   N393    1.369   .     A
C346   C348    1.422   .     A
C347   H377    1.082   .     S
C347   N393    1.369   .     A
C348   H378    1.082   .     S
C348   N394    1.369   .     A
C349   C351    1.462   .     S
C349   O406    1.294   .     A
C349   O268    1.305   1_655 S
C350   O407    1.294   .     A
C350   C353    1.461   .     S
C351   C356    1.400   .     A
C351   C358    1.415   .     A
C352   O403    1.295   .     A
C353   C357    1.399   .     A
C353   C359    1.412   .     A
C354   C362    1.408   .     A
C354   C356    1.389   .     A
C354   O397    1.374   .     S
C355   C364    1.402   .     A
C355   O398    1.376   .     S
C355   C357    1.399   .     A
C356   H251    1.084   1_655 S
C358   O396    1.378   .     S
C358   C360    1.404   .     A
C359   O408    1.378   .     S
C359   C361    1.404   .     A
C360   C365    1.409   .     A
C360   C362    1.407   .     A
C361   C366    1.410   .     A
C361   C364    1.409   .     A
C362   C980    1.399   .     S
C363   H388    1.079   .     S
C363   C368    1.390   .     A
C363   C366    1.409   .     A
C364   C981    1.399   1_554 S
C365   C367    1.407   .     A
C365   C978    1.414   .     S
C366   C977    1.414   1_554 S
C367   C369    1.389   .     A
C367   H389    1.080   .     S
C368   H375    1.074   .     S
C368   C974    1.399   1_554 S
C369   H385    1.074   .     S
C369   C976    1.399   .     S
C370   H390    1.085   .     S
C371   H391    1.085   .     S
C371   C546    1.386   .     S
C372   O399    1.381   .     S
C372   C207    1.414   1_655 S
C372   C574    1.386   .     S
Cu373  O395    1.957   .     S
Cu373  O403    1.958   .     S
Cu373  O404    1.982   .     S
Cu373  N393    2.027   .     S
Cu373  O407    1.986   .     S
Cu374  O406    1.986   .     S
Cu374  N394    2.027   .     S
Cu374  O402    1.958   .     S
Cu374  O401    1.957   .     S
Cu374  O405    1.982   .     S
Cu374  Cu237   2.697   1_655 S
H379   O408    0.989   .     S
H380   O396    0.990   .     S
H381   O397    0.991   .     S
H382   O262    0.992   1_655 S
H383   O399    0.989   .     S
H384   O400    0.989   .     S
H386   C221    1.084   1_655 S
O401   C216    1.296   1_655 S
O405   C214    1.305   1_655 S
C409   C412    1.446   .     S
C409   O470    1.295   .     A
C409   O531    1.295   .     S
C410   O468    1.381   .     S
C410   C548    1.414   1_455 S
C411   C439    1.399   .     A
C411   C420    1.446   .     S
C411   C576    1.414   1_455 S
C412   C438    1.399   .     A
C412   C478    1.414   .     S
C413   H460    1.082   .     S
C413   N462    1.369   .     A
C413   C415    1.422   .     A
C414   H444    1.081   .     S
C414   N461    1.369   .     A
C414   C416    1.422   .     A
C415   H445    1.082   .     S
C415   N461    1.369   .     A
C416   H446    1.082   .     S
C416   N462    1.369   .     A
C417   C419    1.462   .     S
C417   O474    1.294   .     A
C417   O540    1.305   .     S
C418   O475    1.294   .     A
C418   C421    1.461   .     S
C418   O609    1.305   1_455 S
C419   C424    1.400   .     A
C419   C426    1.415   .     A
C420   O471    1.295   .     A
C420   O605    1.296   1_455 S
C421   C425    1.399   .     A
C421   C427    1.412   .     A
C422   C430    1.408   .     A
C422   C424    1.389   .     A
C422   O465    1.374   .     S
C423   C432    1.402   .     A
C423   O466    1.376   .     S
C423   C425    1.399   .     A
C424   H523    1.084   .     S
C425   H590    1.084   1_455 S
C426   O464    1.378   .     S
C426   C428    1.404   .     A
C427   O476    1.378   .     S
C427   C429    1.404   .     A
C428   C433    1.409   .     A
C428   C430    1.407   .     A
C429   C434    1.410   .     A
C429   C432    1.409   .     A
C430   C1048   1.399   .     S
C431   H456    1.079   .     S
C431   C436    1.390   .     A
C431   C434    1.409   .     A
C432   C1049   1.399   1_554 S
C433   C435    1.407   .     A
C433   C1046   1.414   .     S
C434   C1045   1.414   1_554 S
C435   C437    1.389   .     A
C435   H457    1.080   .     S
C436   H443    1.074   .     S
C436   C1042   1.399   1_554 S
C437   H453    1.074   .     S
C437   C1044   1.399   .     S
C438   H458    1.085   .     S
C439   H459    1.085   .     S
C439   C2      1.386   1_565 S
C440   O467    1.381   .     S
C440   C479    1.414   .     S
C440   C30     1.386   1_565 S
Cu441  O463    1.957   .     S
Cu441  O471    1.958   .     S
Cu441  O472    1.982   .     S
Cu441  N461    2.027   .     S
Cu441  O475    1.986   .     S
Cu441  Cu578   2.697   1_455 S
Cu442  O474    1.986   .     S
Cu442  N462    2.027   .     S
Cu442  O470    1.958   .     S
Cu442  O469    1.957   .     S
Cu442  O473    1.982   .     S
Cu442  Cu509   2.697   .     S
H447   O476    0.989   .     S
H448   O464    0.990   .     S
H449   O465    0.991   .     S
H450   O534    0.992   .     S
H451   O467    0.989   .     S
H452   O468    0.989   .     S
H454   C493    1.084   .     S
H455   C560    1.084   1_455 S
O463   C545    1.295   1_455 S
O466   H586    0.992   1_455 S
O469   C488    1.296   .     S
O472   C553    1.305   1_455 S
O473   C486    1.305   .     S
C477   C480    1.446   .     S
C477   O538    1.295   .     A
C477   O599    1.295   .     S
C478   O536    1.381   .     S
C479   C507    1.399   .     A
C479   C488    1.446   .     S
C480   C506    1.399   .     A
C480   C546    1.414   .     S
C481   H528    1.082   .     S
C481   N530    1.369   .     A
C481   C483    1.422   .     A
C482   H512    1.081   .     S
C482   N529    1.369   .     A
C482   C484    1.422   .     A
C483   H513    1.082   .     S
C483   N529    1.369   .     A
C484   H514    1.082   .     S
C484   N530    1.369   .     A
C485   C487    1.462   .     S
C485   O542    1.294   .     A
C485   O608    1.305   .     S
C486   O543    1.294   .     A
C486   C489    1.461   .     S
C487   C492    1.400   .     A
C487   C494    1.415   .     A
C488   O539    1.295   .     A
C489   C493    1.399   .     A
C489   C495    1.412   .     A
C490   C498    1.408   .     A
C490   C492    1.389   .     A
C490   O533    1.374   .     S
C491   C500    1.402   .     A
C491   O534    1.376   .     S
C491   C493    1.399   .     A
C492   H591    1.084   .     S
C494   O532    1.378   .     S
C494   C496    1.404   .     A
C495   O544    1.378   .     S
C495   C497    1.404   .     A
C496   C501    1.409   .     A
C496   C498    1.407   .     A
C497   C502    1.410   .     A
C497   C500    1.409   .     A
C498   C1116   1.399   .     S
C499   H524    1.079   .     S
C499   C504    1.390   .     A
C499   C502    1.409   .     A
C500   C1117   1.399   1_554 S
C501   C503    1.407   .     A
C501   C1114   1.414   .     S
C502   C1113   1.414   1_554 S
C503   C505    1.389   .     A
C503   H525    1.080   .     S
C504   H511    1.074   .     S
C504   C1110   1.399   1_554 S
C505   H521    1.074   .     S
C505   C1112   1.399   .     S
C506   H526    1.085   .     S
C507   H527    1.085   .     S
C507   C70     1.386   1_565 S
C508   O535    1.381   .     S
C508   C547    1.414   .     S
C508   C98     1.386   1_565 S
Cu509  O531    1.957   .     S
Cu509  O539    1.958   .     S
Cu509  O540    1.982   .     S
Cu509  N529    2.027   .     S
Cu509  O543    1.986   .     S
Cu510  O542    1.986   .     S
Cu510  N530    2.027   .     S
Cu510  O538    1.958   .     S
Cu510  O537    1.957   .     S
Cu510  O541    1.982   .     S
Cu510  Cu577   2.697   .     S
H515   O544    0.989   .     S
H516   O532    0.990   .     S
H517   O533    0.991   .     S
H518   O602    0.992   .     S
H519   O535    0.989   .     S
H520   O536    0.989   .     S
H522   C561    1.084   .     S
O537   C556    1.296   .     S
O541   C554    1.305   .     S
C545   C548    1.446   .     S
C545   O606    1.295   .     A
C545   O463    1.295   1_655 S
C546   O604    1.381   .     S
C547   C575    1.399   .     A
C547   C556    1.446   .     S
C548   C574    1.399   .     A
C548   C410    1.414   1_655 S
C549   H596    1.082   .     S
C549   N598    1.369   .     A
C549   C551    1.422   .     A
C550   H580    1.081   .     S
C550   N597    1.369   .     A
C550   C552    1.422   .     A
C551   H581    1.082   .     S
C551   N597    1.369   .     A
C552   H582    1.082   .     S
C552   N598    1.369   .     A
C553   C555    1.462   .     S
C553   O610    1.294   .     A
C553   O472    1.305   1_655 S
C554   O611    1.294   .     A
C554   C557    1.461   .     S
C555   C560    1.400   .     A
C555   C562    1.415   .     A
C556   O607    1.295   .     A
C557   C561    1.399   .     A
C557   C563    1.412   .     A
C558   C566    1.408   .     A
C558   C560    1.389   .     A
C558   O601    1.374   .     S
C559   C568    1.402   .     A
C559   O602    1.376   .     S
C559   C561    1.399   .     A
C560   H455    1.084   1_655 S
C562   O600    1.378   .     S
C562   C564    1.404   .     A
C563   O612    1.378   .     S
C563   C565    1.404   .     A
C564   C569    1.409   .     A
C564   C566    1.407   .     A
C565   C570    1.410   .     A
C565   C568    1.409   .     A
C566   C1184   1.399   .     S
C567   H592    1.079   .     S
C567   C572    1.390   .     A
C567   C570    1.409   .     A
C568   C1185   1.399   1_554 S
C569   C571    1.407   .     A
C569   C1182   1.414   .     S
C570   C1181   1.414   1_554 S
C571   C573    1.389   .     A
C571   H593    1.080   .     S
C572   H579    1.074   .     S
C572   C1178   1.399   1_554 S
C573   H589    1.074   .     S
C573   C1180   1.399   .     S
C574   H594    1.085   .     S
C575   H595    1.085   .     S
C575   C138    1.386   1_565 S
C576   O603    1.381   .     S
C576   C411    1.414   1_655 S
C576   C166    1.386   1_565 S
Cu577  O599    1.957   .     S
Cu577  O607    1.958   .     S
Cu577  O608    1.982   .     S
Cu577  N597    2.027   .     S
Cu577  O611    1.986   .     S
Cu578  O610    1.986   .     S
Cu578  N598    2.027   .     S
Cu578  O606    1.958   .     S
Cu578  O605    1.957   .     S
Cu578  O609    1.982   .     S
Cu578  Cu441   2.697   1_655 S
H583   O612    0.989   .     S
H584   O600    0.990   .     S
H585   O601    0.991   .     S
H586   O466    0.992   1_655 S
H587   O603    0.989   .     S
H588   O604    0.989   .     S
H590   C425    1.084   1_655 S
O605   C420    1.296   1_655 S
O609   C418    1.305   1_655 S
C613   C616    1.446   .     S
C613   O674    1.295   .     A
C613   O735    1.295   .     S
C614   O672    1.381   .     S
C614   C752    1.414   1_455 S
C614   C1051   1.386   1_545 S
C615   C643    1.399   .     A
C615   C624    1.446   .     S
C615   C780    1.414   1_455 S
C616   C642    1.399   .     A
C616   C682    1.414   .     S
C617   H664    1.082   .     S
C617   N666    1.369   .     A
C617   C619    1.422   .     A
C618   H648    1.081   .     S
C618   N665    1.369   .     A
C618   C620    1.422   .     A
C619   H649    1.082   .     S
C619   N665    1.369   .     A
C620   H650    1.082   .     S
C620   N666    1.369   .     A
C621   C623    1.462   .     S
C621   O678    1.294   .     A
C621   O744    1.305   .     S
C622   O679    1.294   .     A
C622   C625    1.461   .     S
C622   O813    1.305   1_455 S
C623   C628    1.400   .     A
C623   C630    1.415   .     A
C624   O675    1.295   .     A
C624   O809    1.296   1_455 S
C625   C629    1.399   .     A
C625   C631    1.412   .     A
C626   C634    1.408   .     A
C626   C628    1.389   .     A
C626   O669    1.374   .     S
C627   C636    1.402   .     A
C627   O670    1.376   .     S
C627   C629    1.399   .     A
C628   H727    1.084   .     S
C629   H794    1.084   1_455 S
C630   O668    1.378   .     S
C630   C632    1.404   .     A
C631   O680    1.378   .     S
C631   C633    1.404   .     A
C632   C637    1.409   .     A
C632   C634    1.407   .     A
C633   C638    1.410   .     A
C633   C636    1.409   .     A
C634   C28     1.399   1_556 S
C635   H660    1.079   .     S
C635   C640    1.390   .     A
C635   C638    1.409   .     A
C637   C639    1.407   .     A
C637   C26     1.414   1_556 S
C639   C641    1.389   .     A
C639   H661    1.080   .     S
C640   H647    1.074   .     S
C641   H657    1.074   .     S
C641   C24     1.399   1_556 S
C642   H662    1.085   .     S
C642   C1052   1.386   1_545 S
C643   H663    1.085   .     S
C643   C818    1.386   .     S
C644   O671    1.381   .     S
C644   C683    1.414   .     S
C644   C846    1.386   .     S
Cu645  O667    1.957   .     S
Cu645  O675    1.958   .     S
Cu645  O676    1.982   .     S
Cu645  N665    2.027   .     S
Cu645  O679    1.986   .     S
Cu645  Cu782   2.697   1_455 S
Cu646  O678    1.986   .     S
Cu646  N666    2.027   .     S
Cu646  O674    1.958   .     S
Cu646  O673    1.957   .     S
Cu646  O677    1.982   .     S
Cu646  Cu713   2.697   .     S
H651   O680    0.989   .     S
H652   O668    0.990   .     S
H653   O669    0.991   .     S
H654   O738    0.992   .     S
H655   O671    0.989   .     S
H656   O672    0.989   .     S
H658   C697    1.084   .     S
H659   C764    1.084   1_455 S
O667   C749    1.295   1_455 S
O670   H790    0.992   1_455 S
O673   C692    1.296   .     S
O676   C757    1.305   1_455 S
O677   C690    1.305   .     S
C681   C684    1.446   .     S
C681   O742    1.295   .     A
C681   O803    1.295   .     S
C682   O740    1.381   .     S
C682   C1119   1.386   1_545 S
C683   C711    1.399   .     A
C683   C692    1.446   .     S
C684   C710    1.399   .     A
C684   C750    1.414   .     S
C685   H732    1.082   .     S
C685   N734    1.369   .     A
C685   C687    1.422   .     A
C686   H716    1.081   .     S
C686   N733    1.369   .     A
C686   C688    1.422   .     A
C687   H717    1.082   .     S
C687   N733    1.369   .     A
C688   H718    1.082   .     S
C688   N734    1.369   .     A
C689   C691    1.462   .     S
C689   O746    1.294   .     A
C689   O812    1.305   .     S
C690   O747    1.294   .     A
C690   C693    1.461   .     S
C691   C696    1.400   .     A
C691   C698    1.415   .     A
C692   O743    1.295   .     A
C693   C697    1.399   .     A
C693   C699    1.412   .     A
C694   C702    1.408   .     A
C694   C696    1.389   .     A
C694   O737    1.374   .     S
C695   C704    1.402   .     A
C695   O738    1.376   .     S
C695   C697    1.399   .     A
C696   H795    1.084   .     S
C698   O736    1.378   .     S
C698   C700    1.404   .     A
C699   O748    1.378   .     S
C699   C701    1.404   .     A
C700   C705    1.409   .     A
C700   C702    1.407   .     A
C701   C706    1.410   .     A
C701   C704    1.409   .     A
C702   C96     1.399   1_556 S
C703   H728    1.079   .     S
C703   C708    1.390   .     A
C703   C706    1.409   .     A
C705   C707    1.407   .     A
C705   C94     1.414   1_556 S
C707   C709    1.389   .     A
C707   H729    1.080   .     S
C708   H715    1.074   .     S
C709   H725    1.074   .     S
C709   C92     1.399   1_556 S
C710   H730    1.085   .     S
C710   C1120   1.386   1_545 S
C711   H731    1.085   .     S
C711   C886    1.386   .     S
C712   O739    1.381   .     S
C712   C751    1.414   .     S
C712   C914    1.386   .     S
Cu713  O735    1.957   .     S
Cu713  O743    1.958   .     S
Cu713  O744    1.982   .     S
Cu713  N733    2.027   .     S
Cu713  O747    1.986   .     S
Cu714  O746    1.986   .     S
Cu714  N734    2.027   .     S
Cu714  O742    1.958   .     S
Cu714  O741    1.957   .     S
Cu714  O745    1.982   .     S
Cu714  Cu781   2.697   .     S
H719   O748    0.989   .     S
H720   O736    0.990   .     S
H721   O737    0.991   .     S
H722   O806    0.992   .     S
H723   O739    0.989   .     S
H724   O740    0.989   .     S
H726   C765    1.084   .     S
O741   C760    1.296   .     S
O745   C758    1.305   .     S
C749   C752    1.446   .     S
C749   O810    1.295   .     A
C749   O667    1.295   1_655 S
C750   O808    1.381   .     S
C750   C1187   1.386   1_545 S
C751   C779    1.399   .     A
C751   C760    1.446   .     S
C752   C778    1.399   .     A
C752   C614    1.414   1_655 S
C753   H800    1.082   .     S
C753   N802    1.369   .     A
C753   C755    1.422   .     A
C754   H784    1.081   .     S
C754   N801    1.369   .     A
C754   C756    1.422   .     A
C755   H785    1.082   .     S
C755   N801    1.369   .     A
C756   H786    1.082   .     S
C756   N802    1.369   .     A
C757   C759    1.462   .     S
C757   O814    1.294   .     A
C757   O676    1.305   1_655 S
C758   O815    1.294   .     A
C758   C761    1.461   .     S
C759   C764    1.400   .     A
C759   C766    1.415   .     A
C760   O811    1.295   .     A
C761   C765    1.399   .     A
C761   C767    1.412   .     A
C762   C770    1.408   .     A
C762   C764    1.389   .     A
C762   O805    1.374   .     S
C763   C772    1.402   .     A
C763   O806    1.376   .     S
C763   C765    1.399   .     A
C764   H659    1.084   1_655 S
C766   O804    1.378   .     S
C766   C768    1.404   .     A
C767   O816    1.378   .     S
C767   C769    1.404   .     A
C768   C773    1.409   .     A
C768   C770    1.407   .     A
C769   C774    1.410   .     A
C769   C772    1.409   .     A
C770   C164    1.399   1_556 S
C771   H796    1.079   .     S
C771   C776    1.390   .     A
C771   C774    1.409   .     A
C773   C775    1.407   .     A
C773   C162    1.414   1_556 S
C775   C777    1.389   .     A
C775   H797    1.080   .     S
C776   H783    1.074   .     S
C777   H793    1.074   .     S
C777   C160    1.399   1_556 S
C778   H798    1.085   .     S
C778   C1188   1.386   1_545 S
C779   H799    1.085   .     S
C779   C954    1.386   .     S
C780   O807    1.381   .     S
C780   C615    1.414   1_655 S
C780   C982    1.386   .     S
Cu781  O803    1.957   .     S
Cu781  O811    1.958   .     S
Cu781  O812    1.982   .     S
Cu781  N801    2.027   .     S
Cu781  O815    1.986   .     S
Cu782  O814    1.986   .     S
Cu782  N802    2.027   .     S
Cu782  O810    1.958   .     S
Cu782  O809    1.957   .     S
Cu782  O813    1.982   .     S
Cu782  Cu645   2.697   1_655 S
H787   O816    0.989   .     S
H788   O804    0.990   .     S
H789   O805    0.991   .     S
H790   O670    0.992   1_655 S
H791   O807    0.989   .     S
H792   O808    0.989   .     S
H794   C629    1.084   1_655 S
O809   C624    1.296   1_655 S
O813   C622    1.305   1_655 S
C817   C820    1.446   .     S
C817   O878    1.295   .     A
C817   O939    1.295   .     S
C818   O876    1.381   .     S
C818   C956    1.414   1_455 S
C819   C847    1.399   .     A
C819   C828    1.446   .     S
C819   C984    1.414   1_455 S
C820   C846    1.399   .     A
C820   C886    1.414   .     S
C821   H868    1.082   .     S
C821   N870    1.369   .     A
C821   C823    1.422   .     A
C822   H852    1.081   .     S
C822   N869    1.369   .     A
C822   C824    1.422   .     A
C823   H853    1.082   .     S
C823   N869    1.369   .     A
C824   H854    1.082   .     S
C824   N870    1.369   .     A
C825   C827    1.462   .     S
C825   O882    1.294   .     A
C825   O948    1.305   .     S
C826   O883    1.294   .     A
C826   C829    1.461   .     S
C826   O1017   1.305   1_455 S
C827   C832    1.400   .     A
C827   C834    1.415   .     A
C828   O879    1.295   .     A
C828   O1013   1.296   1_455 S
C829   C833    1.399   .     A
C829   C835    1.412   .     A
C830   C838    1.408   .     A
C830   C832    1.389   .     A
C830   O873    1.374   .     S
C831   C840    1.402   .     A
C831   O874    1.376   .     S
C831   C833    1.399   .     A
C832   H931    1.084   .     S
C833   H998    1.084   1_455 S
C834   O872    1.378   .     S
C834   C836    1.404   .     A
C835   O884    1.378   .     S
C835   C837    1.404   .     A
C836   C841    1.409   .     A
C836   C838    1.407   .     A
C837   C842    1.410   .     A
C837   C840    1.409   .     A
C838   C232    1.399   1_556 S
C839   H864    1.079   .     S
C839   C844    1.390   .     A
C839   C842    1.409   .     A
C841   C843    1.407   .     A
C841   C230    1.414   1_556 S
C843   C845    1.389   .     A
C843   H865    1.080   .     S
C844   H851    1.074   .     S
C845   H861    1.074   .     S
C845   C228    1.399   1_556 S
C846   H866    1.085   .     S
C847   H867    1.085   .     S
C847   C1022   1.386   .     S
C848   O875    1.381   .     S
C848   C887    1.414   .     S
C848   C1050   1.386   .     S
Cu849  O871    1.957   .     S
Cu849  O879    1.958   .     S
Cu849  O880    1.982   .     S
Cu849  N869    2.027   .     S
Cu849  O883    1.986   .     S
Cu849  Cu986   2.697   1_455 S
Cu850  O882    1.986   .     S
Cu850  N870    2.027   .     S
Cu850  O878    1.958   .     S
Cu850  O877    1.957   .     S
Cu850  O881    1.982   .     S
Cu850  Cu917   2.697   .     S
H855   O884    0.989   .     S
H856   O872    0.990   .     S
H857   O873    0.991   .     S
H858   O942    0.992   .     S
H859   O875    0.989   .     S
H860   O876    0.989   .     S
H862   C901    1.084   .     S
H863   C968    1.084   1_455 S
O871   C953    1.295   1_455 S
O874   H994    0.992   1_455 S
O877   C896    1.296   .     S
O880   C961    1.305   1_455 S
O881   C894    1.305   .     S
C885   C888    1.446   .     S
C885   O946    1.295   .     A
C885   O1007   1.295   .     S
C886   O944    1.381   .     S
C887   C915    1.399   .     A
C887   C896    1.446   .     S
C888   C914    1.399   .     A
C888   C954    1.414   .     S
C889   H936    1.082   .     S
C889   N938    1.369   .     A
C889   C891    1.422   .     A
C890   H920    1.081   .     S
C890   N937    1.369   .     A
C890   C892    1.422   .     A
C891   H921    1.082   .     S
C891   N937    1.369   .     A
C892   H922    1.082   .     S
C892   N938    1.369   .     A
C893   C895    1.462   .     S
C893   O950    1.294   .     A
C893   O1016   1.305   .     S
C894   O951    1.294   .     A
C894   C897    1.461   .     S
C895   C900    1.400   .     A
C895   C902    1.415   .     A
C896   O947    1.295   .     A
C897   C901    1.399   .     A
C897   C903    1.412   .     A
C898   C906    1.408   .     A
C898   C900    1.389   .     A
C898   O941    1.374   .     S
C899   C908    1.402   .     A
C899   O942    1.376   .     S
C899   C901    1.399   .     A
C900   H999    1.084   .     S
C902   O940    1.378   .     S
C902   C904    1.404   .     A
C903   O952    1.378   .     S
C903   C905    1.404   .     A
C904   C909    1.409   .     A
C904   C906    1.407   .     A
C905   C910    1.410   .     A
C905   C908    1.409   .     A
C906   C300    1.399   1_556 S
C907   H932    1.079   .     S
C907   C912    1.390   .     A
C907   C910    1.409   .     A
C909   C911    1.407   .     A
C909   C298    1.414   1_556 S
C911   C913    1.389   .     A
C911   H933    1.080   .     S
C912   H919    1.074   .     S
C913   H929    1.074   .     S
C913   C296    1.399   1_556 S
C914   H934    1.085   .     S
C915   H935    1.085   .     S
C915   C1090   1.386   .     S
C916   O943    1.381   .     S
C916   C955    1.414   .     S
C916   C1118   1.386   .     S
Cu917  O939    1.957   .     S
Cu917  O947    1.958   .     S
Cu917  O948    1.982   .     S
Cu917  N937    2.027   .     S
Cu917  O951    1.986   .     S
Cu918  O950    1.986   .     S
Cu918  N938    2.027   .     S
Cu918  O946    1.958   .     S
Cu918  O945    1.957   .     S
Cu918  O949    1.982   .     S
Cu918  Cu985   2.697   .     S
H923   O952    0.989   .     S
H924   O940    0.990   .     S
H925   O941    0.991   .     S
H926   O1010   0.992   .     S
H927   O943    0.989   .     S
H928   O944    0.989   .     S
H930   C969    1.084   .     S
O945   C964    1.296   .     S
O949   C962    1.305   .     S
C953   C956    1.446   .     S
C953   O1014   1.295   .     A
C953   O871    1.295   1_655 S
C954   O1012   1.381   .     S
C955   C983    1.399   .     A
C955   C964    1.446   .     S
C956   C982    1.399   .     A
C956   C818    1.414   1_655 S
C957   H1004   1.082   .     S
C957   N1006   1.369   .     A
C957   C959    1.422   .     A
C958   H988    1.081   .     S
C958   N1005   1.369   .     A
C958   C960    1.422   .     A
C959   H989    1.082   .     S
C959   N1005   1.369   .     A
C960   H990    1.082   .     S
C960   N1006   1.369   .     A
C961   C963    1.462   .     S
C961   O1018   1.294   .     A
C961   O880    1.305   1_655 S
C962   O1019   1.294   .     A
C962   C965    1.461   .     S
C963   C968    1.400   .     A
C963   C970    1.415   .     A
C964   O1015   1.295   .     A
C965   C969    1.399   .     A
C965   C971    1.412   .     A
C966   C974    1.408   .     A
C966   C968    1.389   .     A
C966   O1009   1.374   .     S
C967   C976    1.402   .     A
C967   O1010   1.376   .     S
C967   C969    1.399   .     A
C968   H863    1.084   1_655 S
C970   O1008   1.378   .     S
C970   C972    1.404   .     A
C971   O1020   1.378   .     S
C971   C973    1.404   .     A
C972   C977    1.409   .     A
C972   C974    1.407   .     A
C973   C978    1.410   .     A
C973   C976    1.409   .     A
C974   C368    1.399   1_556 S
C975   H1000   1.079   .     S
C975   C980    1.390   .     A
C975   C978    1.409   .     A
C977   C979    1.407   .     A
C977   C366    1.414   1_556 S
C979   C981    1.389   .     A
C979   H1001   1.080   .     S
C980   H987    1.074   .     S
C981   H997    1.074   .     S
C981   C364    1.399   1_556 S
C982   H1002   1.085   .     S
C983   H1003   1.085   .     S
C983   C1158   1.386   .     S
C984   O1011   1.381   .     S
C984   C819    1.414   1_655 S
C984   C1186   1.386   .     S
Cu985  O1007   1.957   .     S
Cu985  O1015   1.958   .     S
Cu985  O1016   1.982   .     S
Cu985  N1005   2.027   .     S
Cu985  O1019   1.986   .     S
Cu986  O1018   1.986   .     S
Cu986  N1006   2.027   .     S
Cu986  O1014   1.958   .     S
Cu986  O1013   1.957   .     S
Cu986  O1017   1.982   .     S
Cu986  Cu849   2.697   1_655 S
H991   O1020   0.989   .     S
H992   O1008   0.990   .     S
H993   O1009   0.991   .     S
H994   O874    0.992   1_655 S
H995   O1011   0.989   .     S
H996   O1012   0.989   .     S
H998   C833    1.084   1_655 S
O1013  C828    1.296   1_655 S
O1017  C826    1.305   1_655 S
C1021  C1024   1.446   .     S
C1021  O1082   1.295   .     A
C1021  O1143   1.295   .     S
C1022  O1080   1.381   .     S
C1022  C1160   1.414   1_455 S
C1023  C1051   1.399   .     A
C1023  C1032   1.446   .     S
C1023  C1188   1.414   1_455 S
C1024  C1050   1.399   .     A
C1024  C1090   1.414   .     S
C1025  H1072   1.082   .     S
C1025  N1074   1.369   .     A
C1025  C1027   1.422   .     A
C1026  H1056   1.081   .     S
C1026  N1073   1.369   .     A
C1026  C1028   1.422   .     A
C1027  H1057   1.082   .     S
C1027  N1073   1.369   .     A
C1028  H1058   1.082   .     S
C1028  N1074   1.369   .     A
C1029  C1031   1.462   .     S
C1029  O1086   1.294   .     A
C1029  O1152   1.305   .     S
C1030  O1087   1.294   .     A
C1030  C1033   1.461   .     S
C1030  O1221   1.305   1_455 S
C1031  C1036   1.400   .     A
C1031  C1038   1.415   .     A
C1032  O1083   1.295   .     A
C1032  O1217   1.296   1_455 S
C1033  C1037   1.399   .     A
C1033  C1039   1.412   .     A
C1034  C1042   1.408   .     A
C1034  C1036   1.389   .     A
C1034  O1077   1.374   .     S
C1035  C1044   1.402   .     A
C1035  O1078   1.376   .     S
C1035  C1037   1.399   .     A
C1036  H1135   1.084   .     S
C1037  H1202   1.084   1_455 S
C1038  O1076   1.378   .     S
C1038  C1040   1.404   .     A
C1039  O1088   1.378   .     S
C1039  C1041   1.404   .     A
C1040  C1045   1.409   .     A
C1040  C1042   1.407   .     A
C1041  C1046   1.410   .     A
C1041  C1044   1.409   .     A
C1042  C436    1.399   1_556 S
C1043  H1068   1.079   .     S
C1043  C1048   1.390   .     A
C1043  C1046   1.409   .     A
C1045  C1047   1.407   .     A
C1045  C434    1.414   1_556 S
C1047  C1049   1.389   .     A
C1047  H1069   1.080   .     S
C1048  H1055   1.074   .     S
C1049  H1065   1.074   .     S
C1049  C432    1.399   1_556 S
C1050  H1070   1.085   .     S
C1051  H1071   1.085   .     S
C1051  C614    1.386   1_565 S
C1052  O1079   1.381   .     S
C1052  C1091   1.414   .     S
C1052  C642    1.386   1_565 S
Cu1053 O1075   1.957   .     S
Cu1053 O1083   1.958   .     S
Cu1053 O1084   1.982   .     S
Cu1053 N1073   2.027   .     S
Cu1053 O1087   1.986   .     S
Cu1053 Cu1190  2.697   1_455 S
Cu1054 O1086   1.986   .     S
Cu1054 N1074   2.027   .     S
Cu1054 O1082   1.958   .     S
Cu1054 O1081   1.957   .     S
Cu1054 O1085   1.982   .     S
Cu1054 Cu1121  2.697   .     S
H1059  O1088   0.989   .     S
H1060  O1076   0.990   .     S
H1061  O1077   0.991   .     S
H1062  O1146   0.992   .     S
H1063  O1079   0.989   .     S
H1064  O1080   0.989   .     S
H1066  C1105   1.084   .     S
H1067  C1172   1.084   1_455 S
O1075  C1157   1.295   1_455 S
O1078  H1198   0.992   1_455 S
O1081  C1100   1.296   .     S
O1084  C1165   1.305   1_455 S
O1085  C1098   1.305   .     S
C1089  C1092   1.446   .     S
C1089  O1150   1.295   .     A
C1089  O1211   1.295   .     S
C1090  O1148   1.381   .     S
C1091  C1119   1.399   .     A
C1091  C1100   1.446   .     S
C1092  C1118   1.399   .     A
C1092  C1158   1.414   .     S
C1093  H1140   1.082   .     S
C1093  N1142   1.369   .     A
C1093  C1095   1.422   .     A
C1094  H1124   1.081   .     S
C1094  N1141   1.369   .     A
C1094  C1096   1.422   .     A
C1095  H1125   1.082   .     S
C1095  N1141   1.369   .     A
C1096  H1126   1.082   .     S
C1096  N1142   1.369   .     A
C1097  C1099   1.462   .     S
C1097  O1154   1.294   .     A
C1097  O1220   1.305   .     S
C1098  O1155   1.294   .     A
C1098  C1101   1.461   .     S
C1099  C1104   1.400   .     A
C1099  C1106   1.415   .     A
C1100  O1151   1.295   .     A
C1101  C1105   1.399   .     A
C1101  C1107   1.412   .     A
C1102  C1110   1.408   .     A
C1102  C1104   1.389   .     A
C1102  O1145   1.374   .     S
C1103  C1112   1.402   .     A
C1103  O1146   1.376   .     S
C1103  C1105   1.399   .     A
C1104  H1203   1.084   .     S
C1106  O1144   1.378   .     S
C1106  C1108   1.404   .     A
C1107  O1156   1.378   .     S
C1107  C1109   1.404   .     A
C1108  C1113   1.409   .     A
C1108  C1110   1.407   .     A
C1109  C1114   1.410   .     A
C1109  C1112   1.409   .     A
C1110  C504    1.399   1_556 S
C1111  H1136   1.079   .     S
C1111  C1116   1.390   .     A
C1111  C1114   1.409   .     A
C1113  C1115   1.407   .     A
C1113  C502    1.414   1_556 S
C1115  C1117   1.389   .     A
C1115  H1137   1.080   .     S
C1116  H1123   1.074   .     S
C1117  H1133   1.074   .     S
C1117  C500    1.399   1_556 S
C1118  H1138   1.085   .     S
C1119  H1139   1.085   .     S
C1119  C682    1.386   1_565 S
C1120  O1147   1.381   .     S
C1120  C1159   1.414   .     S
C1120  C710    1.386   1_565 S
Cu1121 O1143   1.957   .     S
Cu1121 O1151   1.958   .     S
Cu1121 O1152   1.982   .     S
Cu1121 N1141   2.027   .     S
Cu1121 O1155   1.986   .     S
Cu1122 O1154   1.986   .     S
Cu1122 N1142   2.027   .     S
Cu1122 O1150   1.958   .     S
Cu1122 O1149   1.957   .     S
Cu1122 O1153   1.982   .     S
Cu1122 Cu1189  2.697   .     S
H1127  O1156   0.989   .     S
H1128  O1144   0.990   .     S
H1129  O1145   0.991   .     S
H1130  O1214   0.992   .     S
H1131  O1147   0.989   .     S
H1132  O1148   0.989   .     S
H1134  C1173   1.084   .     S
O1149  C1168   1.296   .     S
O1153  C1166   1.305   .     S
C1157  C1160   1.446   .     S
C1157  O1218   1.295   .     A
C1157  O1075   1.295   1_655 S
C1158  O1216   1.381   .     S
C1159  C1187   1.399   .     A
C1159  C1168   1.446   .     S
C1160  C1186   1.399   .     A
C1160  C1022   1.414   1_655 S
C1161  H1208   1.082   .     S
C1161  N1210   1.369   .     A
C1161  C1163   1.422   .     A
C1162  H1192   1.081   .     S
C1162  N1209   1.369   .     A
C1162  C1164   1.422   .     A
C1163  H1193   1.082   .     S
C1163  N1209   1.369   .     A
C1164  H1194   1.082   .     S
C1164  N1210   1.369   .     A
C1165  C1167   1.462   .     S
C1165  O1222   1.294   .     A
C1165  O1084   1.305   1_655 S
C1166  O1223   1.294   .     A
C1166  C1169   1.461   .     S
C1167  C1172   1.400   .     A
C1167  C1174   1.415   .     A
C1168  O1219   1.295   .     A
C1169  C1173   1.399   .     A
C1169  C1175   1.412   .     A
C1170  C1178   1.408   .     A
C1170  C1172   1.389   .     A
C1170  O1213   1.374   .     S
C1171  C1180   1.402   .     A
C1171  O1214   1.376   .     S
C1171  C1173   1.399   .     A
C1172  H1067   1.084   1_655 S
C1174  O1212   1.378   .     S
C1174  C1176   1.404   .     A
C1175  O1224   1.378   .     S
C1175  C1177   1.404   .     A
C1176  C1181   1.409   .     A
C1176  C1178   1.407   .     A
C1177  C1182   1.410   .     A
C1177  C1180   1.409   .     A
C1178  C572    1.399   1_556 S
C1179  H1204   1.079   .     S
C1179  C1184   1.390   .     A
C1179  C1182   1.409   .     A
C1181  C1183   1.407   .     A
C1181  C570    1.414   1_556 S
C1183  C1185   1.389   .     A
C1183  H1205   1.080   .     S
C1184  H1191   1.074   .     S
C1185  H1201   1.074   .     S
C1185  C568    1.399   1_556 S
C1186  H1206   1.085   .     S
C1187  H1207   1.085   .     S
C1187  C750    1.386   1_565 S
C1188  O1215   1.381   .     S
C1188  C1023   1.414   1_655 S
C1188  C778    1.386   1_565 S
Cu1189 O1211   1.957   .     S
Cu1189 O1219   1.958   .     S
Cu1189 O1220   1.982   .     S
Cu1189 N1209   2.027   .     S
Cu1189 O1223   1.986   .     S
Cu1190 O1222   1.986   .     S
Cu1190 N1210   2.027   .     S
Cu1190 O1218   1.958   .     S
Cu1190 O1217   1.957   .     S
Cu1190 O1221   1.982   .     S
Cu1190 Cu1053  2.697   1_655 S
H1195  O1224   0.989   .     S
H1196  O1212   0.990   .     S
H1197  O1213   0.991   .     S
H1198  O1078   0.992   1_655 S
H1199  O1215   0.989   .     S
H1200  O1216   0.989   .     S
H1202  C1037   1.084   1_655 S
O1217  C1032   1.296   1_655 S
O1221  C1030   1.305   1_655 S
