data_str_m2_o2_o10_pcu_sym.102
_audit_creation_date              2020-01-03
_audit_creation_method            'Materials Studio'
_symmetry_space_group_name_H-M    'P1'
_symmetry_Int_Tables_number       1
_symmetry_cell_setting            triclinic
loop_
_symmetry_equiv_pos_as_xyz
  x,y,z
_cell_length_a                    26.2002
_cell_length_b                    30.1699
_cell_length_c                    27.7369
_cell_angle_alpha                 89.7574
_cell_angle_beta                  97.9377
_cell_angle_gamma                 90.1801
loop_
_atom_site_label
_atom_site_type_symbol
_atom_site_fract_x
_atom_site_fract_y
_atom_site_fract_z
_atom_site_U_iso_or_equiv
_atom_site_adp_type
_atom_site_occupancy
C1     C     0.16614   0.16491   0.25004   0.00000  Uiso   1.00
C2     C     0.20614   0.27099   0.45108   0.00000  Uiso   1.00
C3     C     0.16667   0.25003   0.02733   0.00000  Uiso   1.00
C4     C     0.16666   0.25003   0.47265   0.00000  Uiso   1.00
C5     C     0.06790   0.24998   0.23756   0.00000  Uiso   1.00
C6     C     0.26544   0.25001   0.26245   0.00000  Uiso   1.00
C7     C     0.01263   0.25000   0.23069   0.00000  Uiso   1.00
C8     C     0.32071   0.24998   0.26933   0.00000  Uiso   1.00
C9     C     0.13039   0.04884   0.28288   0.00000  Uiso   1.00
C10    C     0.13205   0.45111   0.20674   0.00000  Uiso   1.00
C11    C     0.13629   0.09498   0.28379   0.00000  Uiso   1.00
C12    C     0.16619   0.33510   0.24982   0.00000  Uiso   1.00
C13    C     0.13795   0.40500   0.20753   0.00000  Uiso   1.00
C14    C     0.16290   0.11666   0.25001   0.00000  Uiso   1.00
C15    C     0.16299   0.38338   0.24896   0.00000  Uiso   1.00
C16    C     0.18479   0.09224   0.21546   0.00000  Uiso   1.00
C17    C     0.18334   0.40788   0.28981   0.00000  Uiso   1.00
C18    C     0.18106   0.04635   0.21522   0.00000  Uiso   1.00
C19    C     0.17954   0.45375   0.28901   0.00000  Uiso   1.00
C20    C     0.15386   0.02434   0.24839   0.00000  Uiso   1.00
C21    C     0.15387   0.47568   0.24802   0.00000  Uiso   1.00
C22    C     0.09839   0.02793   0.31718   0.00000  Uiso   1.00
C23    C     0.19041   0.28431   0.05690   0.00000  Uiso   1.00
C24    C     0.10181   0.47194   0.16315   0.00000  Uiso   1.00
C25    C     0.12718   0.22905   0.44098   0.00000  Uiso   1.00
C26    C     0.19029   0.28349   0.10762   0.00000  Uiso   1.00
C27    C     0.12814   0.22913   0.39038   0.00000  Uiso   1.00
C28    C     0.14304   0.21654   0.10174   0.00000  Uiso   1.00
C29    C     0.20520   0.27086   0.40023   0.00000  Uiso   1.00
C30    C     0.14293   0.21574   0.05101   0.00000  Uiso   1.00
Cu31   Cu    0.16667   0.24999   0.29821   0.00000  Uiso   1.00
Cu32   Cu    0.16667   0.25000   0.20178   0.00000  Uiso   1.00
H33    H     0.32598   0.25004   0.19363   0.00000  Uiso   1.00
H34    H     0.09516   0.21306   0.45485   0.00000  Uiso   1.00
H35    H     0.20907   0.30996   0.12957   0.00000  Uiso   1.00
H36    H     0.09768   0.21251   0.36688   0.00000  Uiso   1.00
H37    H     0.12423   0.19007   0.11900   0.00000  Uiso   1.00
H38    H     0.23566   0.28743   0.38449   0.00000  Uiso   1.00
H39    H     0.12485   0.18795   0.03081   0.00000  Uiso   1.00
H40    H     0.23815   0.28699   0.47314   0.00000  Uiso   1.00
H41    H     0.06784   0.03293   0.37989   0.00000  Uiso   1.00
H42    H     0.07468   0.46709   0.09161   0.00000  Uiso   1.00
H43    H     0.00735   0.24993   0.30639   0.00000  Uiso   1.00
H44    H     0.11841   0.11441   0.30964   0.00000  Uiso   1.00
H45    H     0.12127   0.38558   0.17648   0.00000  Uiso   1.00
H46    H     0.20556   0.10861   0.18923   0.00000  Uiso   1.00
H47    H     0.20294   0.39159   0.32200   0.00000  Uiso   1.00
H48    H     0.19955   0.02778   0.18913   0.00000  Uiso   1.00
H49    H     0.19682   0.47238   0.32044   0.00000  Uiso   1.00
H50    H     0.20849   0.31211   0.04117   0.00000  Uiso   1.00
N51    N     0.16667   0.25001   0.12934   0.00000  Uiso   1.00
N52    N     0.16667   0.24999   0.37065   0.00000  Uiso   1.00
O53    O     0.16667   0.18572   0.29071   0.00000  Uiso   1.00
O54    O     0.09059   0.05019   0.35969   0.00000  Uiso   1.00
O55    O     0.08060   0.00767   0.16624   0.00000  Uiso   1.00
O56    O     0.09638   0.44991   0.11845   0.00000  Uiso   1.00
O57    O     0.16666   0.31427   0.20929   0.00000  Uiso   1.00
O58    O     0.16667   0.18573   0.20928   0.00000  Uiso   1.00
O59    O     0.16666   0.31427   0.29072   0.00000  Uiso   1.00
O60    O     0.09161   0.24999   0.28132   0.00000  Uiso   1.00
O61    O     0.24172   0.25000   0.21868   0.00000  Uiso   1.00
O62    O     0.09161   0.25000   0.19989   0.00000  Uiso   1.00
O63    O     0.24172   0.25000   0.30011   0.00000  Uiso   1.00
O64    O     0.07780   0.49194   0.30802   0.00000  Uiso   1.00
C65    C     0.49947   0.16491   0.25004   0.00000  Uiso   1.00
C66    C     0.53947   0.27099   0.45108   0.00000  Uiso   1.00
C67    C     0.50000   0.25003   0.02733   0.00000  Uiso   1.00
C68    C     0.49999   0.25003   0.47265   0.00000  Uiso   1.00
C69    C     0.40123   0.24998   0.23756   0.00000  Uiso   1.00
C70    C     0.59877   0.25001   0.26245   0.00000  Uiso   1.00
C71    C     0.34597   0.25000   0.23069   0.00000  Uiso   1.00
C72    C     0.65404   0.24998   0.26933   0.00000  Uiso   1.00
C73    C     0.46373   0.04884   0.28288   0.00000  Uiso   1.00
C74    C     0.46539   0.45111   0.20674   0.00000  Uiso   1.00
C75    C     0.46963   0.09498   0.28379   0.00000  Uiso   1.00
C76    C     0.49952   0.33510   0.24982   0.00000  Uiso   1.00
C77    C     0.47129   0.40500   0.20753   0.00000  Uiso   1.00
C78    C     0.49624   0.11666   0.25001   0.00000  Uiso   1.00
C79    C     0.49632   0.38338   0.24896   0.00000  Uiso   1.00
C80    C     0.51813   0.09224   0.21546   0.00000  Uiso   1.00
C81    C     0.51667   0.40788   0.28981   0.00000  Uiso   1.00
C82    C     0.51439   0.04635   0.21522   0.00000  Uiso   1.00
C83    C     0.51288   0.45375   0.28901   0.00000  Uiso   1.00
C84    C     0.48719   0.02434   0.24839   0.00000  Uiso   1.00
C85    C     0.48720   0.47568   0.24802   0.00000  Uiso   1.00
C86    C     0.43173   0.02793   0.31718   0.00000  Uiso   1.00
C87    C     0.52374   0.28431   0.05690   0.00000  Uiso   1.00
C88    C     0.43514   0.47194   0.16315   0.00000  Uiso   1.00
C89    C     0.46052   0.22905   0.44098   0.00000  Uiso   1.00
C90    C     0.52362   0.28349   0.10762   0.00000  Uiso   1.00
C91    C     0.46147   0.22913   0.39038   0.00000  Uiso   1.00
C92    C     0.47637   0.21654   0.10174   0.00000  Uiso   1.00
C93    C     0.53853   0.27086   0.40023   0.00000  Uiso   1.00
C94    C     0.47626   0.21574   0.05101   0.00000  Uiso   1.00
Cu95   Cu    0.50000   0.24999   0.29821   0.00000  Uiso   1.00
Cu96   Cu    0.50000   0.25000   0.20178   0.00000  Uiso   1.00
H97    H     0.65932   0.25004   0.19363   0.00000  Uiso   1.00
H98    H     0.42850   0.21306   0.45485   0.00000  Uiso   1.00
H99    H     0.54240   0.30996   0.12957   0.00000  Uiso   1.00
H100   H     0.43102   0.21251   0.36688   0.00000  Uiso   1.00
H101   H     0.45757   0.19007   0.11900   0.00000  Uiso   1.00
H102   H     0.56899   0.28743   0.38449   0.00000  Uiso   1.00
H103   H     0.45819   0.18795   0.03081   0.00000  Uiso   1.00
H104   H     0.57149   0.28699   0.47314   0.00000  Uiso   1.00
H105   H     0.40117   0.03293   0.37989   0.00000  Uiso   1.00
H106   H     0.40801   0.46709   0.09161   0.00000  Uiso   1.00
H107   H     0.34068   0.24993   0.30639   0.00000  Uiso   1.00
H108   H     0.45175   0.11441   0.30964   0.00000  Uiso   1.00
H109   H     0.45461   0.38558   0.17648   0.00000  Uiso   1.00
H110   H     0.53890   0.10861   0.18923   0.00000  Uiso   1.00
H111   H     0.53627   0.39159   0.32200   0.00000  Uiso   1.00
H112   H     0.53288   0.02778   0.18913   0.00000  Uiso   1.00
H113   H     0.53015   0.47238   0.32044   0.00000  Uiso   1.00
H114   H     0.54182   0.31211   0.04117   0.00000  Uiso   1.00
N115   N     0.50000   0.25001   0.12934   0.00000  Uiso   1.00
N116   N     0.50000   0.24999   0.37065   0.00000  Uiso   1.00
O117   O     0.50000   0.18572   0.29071   0.00000  Uiso   1.00
O118   O     0.42392   0.05019   0.35969   0.00000  Uiso   1.00
O119   O     0.41393   0.00767   0.16624   0.00000  Uiso   1.00
O120   O     0.42971   0.44991   0.11845   0.00000  Uiso   1.00
O121   O     0.50000   0.31427   0.20929   0.00000  Uiso   1.00
O122   O     0.50000   0.18573   0.20928   0.00000  Uiso   1.00
O123   O     0.50000   0.31427   0.29072   0.00000  Uiso   1.00
O124   O     0.42495   0.24999   0.28132   0.00000  Uiso   1.00
O125   O     0.57505   0.25000   0.21868   0.00000  Uiso   1.00
O126   O     0.42495   0.25000   0.19989   0.00000  Uiso   1.00
O127   O     0.57505   0.25000   0.30011   0.00000  Uiso   1.00
O128   O     0.41113   0.49194   0.30802   0.00000  Uiso   1.00
C129   C     0.83281   0.16491   0.25004   0.00000  Uiso   1.00
C130   C     0.87280   0.27099   0.45108   0.00000  Uiso   1.00
C131   C     0.83333   0.25003   0.02733   0.00000  Uiso   1.00
C132   C     0.83333   0.25003   0.47265   0.00000  Uiso   1.00
C133   C     0.73456   0.24998   0.23756   0.00000  Uiso   1.00
C134   C     0.93211   0.25001   0.26245   0.00000  Uiso   1.00
C135   C     0.67930   0.25000   0.23069   0.00000  Uiso   1.00
C136   C     0.98737   0.24998   0.26933   0.00000  Uiso   1.00
C137   C     0.79706   0.04884   0.28288   0.00000  Uiso   1.00
C138   C     0.79872   0.45111   0.20674   0.00000  Uiso   1.00
C139   C     0.80296   0.09498   0.28379   0.00000  Uiso   1.00
C140   C     0.83285   0.33510   0.24982   0.00000  Uiso   1.00
C141   C     0.80462   0.40500   0.20753   0.00000  Uiso   1.00
C142   C     0.82957   0.11666   0.25001   0.00000  Uiso   1.00
C143   C     0.82966   0.38338   0.24896   0.00000  Uiso   1.00
C144   C     0.85146   0.09224   0.21546   0.00000  Uiso   1.00
C145   C     0.85001   0.40788   0.28981   0.00000  Uiso   1.00
C146   C     0.84772   0.04635   0.21522   0.00000  Uiso   1.00
C147   C     0.84621   0.45375   0.28901   0.00000  Uiso   1.00
C148   C     0.82053   0.02434   0.24839   0.00000  Uiso   1.00
C149   C     0.82054   0.47568   0.24802   0.00000  Uiso   1.00
C150   C     0.76506   0.02793   0.31718   0.00000  Uiso   1.00
C151   C     0.85707   0.28431   0.05690   0.00000  Uiso   1.00
C152   C     0.76847   0.47194   0.16315   0.00000  Uiso   1.00
C153   C     0.79385   0.22905   0.44098   0.00000  Uiso   1.00
C154   C     0.85695   0.28349   0.10762   0.00000  Uiso   1.00
C155   C     0.79480   0.22913   0.39038   0.00000  Uiso   1.00
C156   C     0.80971   0.21654   0.10174   0.00000  Uiso   1.00
C157   C     0.87187   0.27086   0.40023   0.00000  Uiso   1.00
C158   C     0.80960   0.21574   0.05101   0.00000  Uiso   1.00
Cu159  Cu    0.83333   0.24999   0.29821   0.00000  Uiso   1.00
Cu160  Cu    0.83333   0.25000   0.20178   0.00000  Uiso   1.00
H161   H     0.99265   0.25004   0.19363   0.00000  Uiso   1.00
H162   H     0.76183   0.21306   0.45485   0.00000  Uiso   1.00
H163   H     0.87574   0.30996   0.12957   0.00000  Uiso   1.00
H164   H     0.76435   0.21251   0.36688   0.00000  Uiso   1.00
H165   H     0.79090   0.19007   0.11900   0.00000  Uiso   1.00
H166   H     0.90233   0.28743   0.38449   0.00000  Uiso   1.00
H167   H     0.79152   0.18795   0.03081   0.00000  Uiso   1.00
H168   H     0.90482   0.28699   0.47314   0.00000  Uiso   1.00
H169   H     0.73451   0.03293   0.37989   0.00000  Uiso   1.00
H170   H     0.74135   0.46709   0.09161   0.00000  Uiso   1.00
H171   H     0.67402   0.24993   0.30639   0.00000  Uiso   1.00
H172   H     0.78508   0.11441   0.30964   0.00000  Uiso   1.00
H173   H     0.78794   0.38558   0.17648   0.00000  Uiso   1.00
H174   H     0.87223   0.10861   0.18923   0.00000  Uiso   1.00
H175   H     0.86960   0.39159   0.32200   0.00000  Uiso   1.00
H176   H     0.86622   0.02778   0.18913   0.00000  Uiso   1.00
H177   H     0.86349   0.47238   0.32044   0.00000  Uiso   1.00
H178   H     0.87515   0.31211   0.04117   0.00000  Uiso   1.00
N179   N     0.83333   0.25001   0.12934   0.00000  Uiso   1.00
N180   N     0.83333   0.24999   0.37065   0.00000  Uiso   1.00
O181   O     0.83334   0.18572   0.29071   0.00000  Uiso   1.00
O182   O     0.75726   0.05019   0.35969   0.00000  Uiso   1.00
O183   O     0.74727   0.00767   0.16624   0.00000  Uiso   1.00
O184   O     0.76305   0.44991   0.11845   0.00000  Uiso   1.00
O185   O     0.83333   0.31427   0.20929   0.00000  Uiso   1.00
O186   O     0.83334   0.18573   0.20928   0.00000  Uiso   1.00
O187   O     0.83333   0.31427   0.29072   0.00000  Uiso   1.00
O188   O     0.75828   0.24999   0.28132   0.00000  Uiso   1.00
O189   O     0.90839   0.25000   0.21868   0.00000  Uiso   1.00
O190   O     0.75828   0.25000   0.19989   0.00000  Uiso   1.00
O191   O     0.90839   0.25000   0.30011   0.00000  Uiso   1.00
O192   O     0.74446   0.49194   0.30802   0.00000  Uiso   1.00
C193   C     0.16614   0.66491   0.25004   0.00000  Uiso   1.00
C194   C     0.20614   0.77099   0.45108   0.00000  Uiso   1.00
C195   C     0.16667   0.75003   0.02733   0.00000  Uiso   1.00
C196   C     0.16666   0.75003   0.47265   0.00000  Uiso   1.00
C197   C     0.06790   0.74998   0.23756   0.00000  Uiso   1.00
C198   C     0.26544   0.75001   0.26245   0.00000  Uiso   1.00
C199   C     0.01263   0.75000   0.23069   0.00000  Uiso   1.00
C200   C     0.32071   0.74998   0.26933   0.00000  Uiso   1.00
C201   C     0.13039   0.54884   0.28288   0.00000  Uiso   1.00
C202   C     0.13205   0.95111   0.20674   0.00000  Uiso   1.00
C203   C     0.13629   0.59498   0.28379   0.00000  Uiso   1.00
C204   C     0.16619   0.83510   0.24982   0.00000  Uiso   1.00
C205   C     0.13795   0.90500   0.20753   0.00000  Uiso   1.00
C206   C     0.16290   0.61666   0.25001   0.00000  Uiso   1.00
C207   C     0.16299   0.88338   0.24896   0.00000  Uiso   1.00
C208   C     0.18479   0.59224   0.21546   0.00000  Uiso   1.00
C209   C     0.18334   0.90788   0.28981   0.00000  Uiso   1.00
C210   C     0.18106   0.54635   0.21522   0.00000  Uiso   1.00
C211   C     0.17954   0.95375   0.28901   0.00000  Uiso   1.00
C212   C     0.15386   0.52434   0.24839   0.00000  Uiso   1.00
C213   C     0.15387   0.97568   0.24802   0.00000  Uiso   1.00
C214   C     0.09839   0.52793   0.31718   0.00000  Uiso   1.00
C215   C     0.19041   0.78431   0.05690   0.00000  Uiso   1.00
C216   C     0.10181   0.97194   0.16315   0.00000  Uiso   1.00
C217   C     0.12718   0.72905   0.44098   0.00000  Uiso   1.00
C218   C     0.19029   0.78349   0.10762   0.00000  Uiso   1.00
C219   C     0.12814   0.72913   0.39038   0.00000  Uiso   1.00
C220   C     0.14304   0.71654   0.10174   0.00000  Uiso   1.00
C221   C     0.20520   0.77086   0.40023   0.00000  Uiso   1.00
C222   C     0.14293   0.71574   0.05101   0.00000  Uiso   1.00
Cu223  Cu    0.16667   0.74999   0.29821   0.00000  Uiso   1.00
Cu224  Cu    0.16667   0.75000   0.20178   0.00000  Uiso   1.00
H225   H     0.32598   0.75004   0.19363   0.00000  Uiso   1.00
H226   H     0.09516   0.71306   0.45485   0.00000  Uiso   1.00
H227   H     0.20907   0.80996   0.12957   0.00000  Uiso   1.00
H228   H     0.09768   0.71251   0.36688   0.00000  Uiso   1.00
H229   H     0.12423   0.69007   0.11900   0.00000  Uiso   1.00
H230   H     0.23566   0.78743   0.38449   0.00000  Uiso   1.00
H231   H     0.12485   0.68795   0.03081   0.00000  Uiso   1.00
H232   H     0.23815   0.78699   0.47314   0.00000  Uiso   1.00
H233   H     0.06784   0.53293   0.37989   0.00000  Uiso   1.00
H234   H     0.07468   0.96709   0.09161   0.00000  Uiso   1.00
H235   H     0.00735   0.74993   0.30639   0.00000  Uiso   1.00
H236   H     0.11841   0.61441   0.30964   0.00000  Uiso   1.00
H237   H     0.12127   0.88558   0.17648   0.00000  Uiso   1.00
H238   H     0.20556   0.60861   0.18923   0.00000  Uiso   1.00
H239   H     0.20294   0.89159   0.32200   0.00000  Uiso   1.00
H240   H     0.19955   0.52778   0.18913   0.00000  Uiso   1.00
H241   H     0.19682   0.97238   0.32044   0.00000  Uiso   1.00
H242   H     0.20849   0.81211   0.04117   0.00000  Uiso   1.00
N243   N     0.16667   0.75001   0.12934   0.00000  Uiso   1.00
N244   N     0.16667   0.74999   0.37065   0.00000  Uiso   1.00
O245   O     0.16667   0.68572   0.29071   0.00000  Uiso   1.00
O246   O     0.09059   0.55019   0.35969   0.00000  Uiso   1.00
O247   O     0.08060   0.50767   0.16624   0.00000  Uiso   1.00
O248   O     0.09638   0.94991   0.11845   0.00000  Uiso   1.00
O249   O     0.16666   0.81427   0.20929   0.00000  Uiso   1.00
O250   O     0.16667   0.68573   0.20928   0.00000  Uiso   1.00
O251   O     0.16666   0.81427   0.29072   0.00000  Uiso   1.00
O252   O     0.09161   0.74999   0.28132   0.00000  Uiso   1.00
O253   O     0.24172   0.75000   0.21868   0.00000  Uiso   1.00
O254   O     0.09161   0.75000   0.19989   0.00000  Uiso   1.00
O255   O     0.24172   0.75000   0.30011   0.00000  Uiso   1.00
O256   O     0.07780   0.99194   0.30802   0.00000  Uiso   1.00
C257   C     0.49947   0.66491   0.25004   0.00000  Uiso   1.00
C258   C     0.53947   0.77099   0.45108   0.00000  Uiso   1.00
C259   C     0.50000   0.75003   0.02733   0.00000  Uiso   1.00
C260   C     0.49999   0.75003   0.47265   0.00000  Uiso   1.00
C261   C     0.40123   0.74998   0.23756   0.00000  Uiso   1.00
C262   C     0.59877   0.75001   0.26245   0.00000  Uiso   1.00
C263   C     0.34597   0.75000   0.23069   0.00000  Uiso   1.00
C264   C     0.65404   0.74998   0.26933   0.00000  Uiso   1.00
C265   C     0.46373   0.54884   0.28288   0.00000  Uiso   1.00
C266   C     0.46539   0.95111   0.20674   0.00000  Uiso   1.00
C267   C     0.46963   0.59498   0.28379   0.00000  Uiso   1.00
C268   C     0.49952   0.83510   0.24982   0.00000  Uiso   1.00
C269   C     0.47129   0.90500   0.20753   0.00000  Uiso   1.00
C270   C     0.49624   0.61666   0.25001   0.00000  Uiso   1.00
C271   C     0.49632   0.88338   0.24896   0.00000  Uiso   1.00
C272   C     0.51813   0.59224   0.21546   0.00000  Uiso   1.00
C273   C     0.51667   0.90788   0.28981   0.00000  Uiso   1.00
C274   C     0.51439   0.54635   0.21522   0.00000  Uiso   1.00
C275   C     0.51288   0.95375   0.28901   0.00000  Uiso   1.00
C276   C     0.48719   0.52434   0.24839   0.00000  Uiso   1.00
C277   C     0.48720   0.97568   0.24802   0.00000  Uiso   1.00
C278   C     0.43173   0.52793   0.31718   0.00000  Uiso   1.00
C279   C     0.52374   0.78431   0.05690   0.00000  Uiso   1.00
C280   C     0.43514   0.97194   0.16315   0.00000  Uiso   1.00
C281   C     0.46052   0.72905   0.44098   0.00000  Uiso   1.00
C282   C     0.52362   0.78349   0.10762   0.00000  Uiso   1.00
C283   C     0.46147   0.72913   0.39038   0.00000  Uiso   1.00
C284   C     0.47637   0.71654   0.10174   0.00000  Uiso   1.00
C285   C     0.53853   0.77086   0.40023   0.00000  Uiso   1.00
C286   C     0.47626   0.71574   0.05101   0.00000  Uiso   1.00
Cu287  Cu    0.50000   0.74999   0.29821   0.00000  Uiso   1.00
Cu288  Cu    0.50000   0.75000   0.20178   0.00000  Uiso   1.00
H289   H     0.65932   0.75004   0.19363   0.00000  Uiso   1.00
H290   H     0.42850   0.71306   0.45485   0.00000  Uiso   1.00
H291   H     0.54240   0.80996   0.12957   0.00000  Uiso   1.00
H292   H     0.43102   0.71251   0.36688   0.00000  Uiso   1.00
H293   H     0.45757   0.69007   0.11900   0.00000  Uiso   1.00
H294   H     0.56899   0.78743   0.38449   0.00000  Uiso   1.00
H295   H     0.45819   0.68795   0.03081   0.00000  Uiso   1.00
H296   H     0.57149   0.78699   0.47314   0.00000  Uiso   1.00
H297   H     0.40117   0.53293   0.37989   0.00000  Uiso   1.00
H298   H     0.40801   0.96709   0.09161   0.00000  Uiso   1.00
H299   H     0.34068   0.74993   0.30639   0.00000  Uiso   1.00
H300   H     0.45175   0.61441   0.30964   0.00000  Uiso   1.00
H301   H     0.45461   0.88558   0.17648   0.00000  Uiso   1.00
H302   H     0.53890   0.60861   0.18923   0.00000  Uiso   1.00
H303   H     0.53627   0.89159   0.32200   0.00000  Uiso   1.00
H304   H     0.53288   0.52778   0.18913   0.00000  Uiso   1.00
H305   H     0.53015   0.97238   0.32044   0.00000  Uiso   1.00
H306   H     0.54182   0.81211   0.04117   0.00000  Uiso   1.00
N307   N     0.50000   0.75001   0.12934   0.00000  Uiso   1.00
N308   N     0.50000   0.74999   0.37065   0.00000  Uiso   1.00
O309   O     0.50000   0.68572   0.29071   0.00000  Uiso   1.00
O310   O     0.42392   0.55019   0.35969   0.00000  Uiso   1.00
O311   O     0.41393   0.50767   0.16624   0.00000  Uiso   1.00
O312   O     0.42971   0.94991   0.11845   0.00000  Uiso   1.00
O313   O     0.50000   0.81427   0.20929   0.00000  Uiso   1.00
O314   O     0.50000   0.68573   0.20928   0.00000  Uiso   1.00
O315   O     0.50000   0.81427   0.29072   0.00000  Uiso   1.00
O316   O     0.42495   0.74999   0.28132   0.00000  Uiso   1.00
O317   O     0.57505   0.75000   0.21868   0.00000  Uiso   1.00
O318   O     0.42495   0.75000   0.19989   0.00000  Uiso   1.00
O319   O     0.57505   0.75000   0.30011   0.00000  Uiso   1.00
O320   O     0.41113   0.99194   0.30802   0.00000  Uiso   1.00
C321   C     0.83281   0.66491   0.25004   0.00000  Uiso   1.00
C322   C     0.87280   0.77099   0.45108   0.00000  Uiso   1.00
C323   C     0.83333   0.75003   0.02733   0.00000  Uiso   1.00
C324   C     0.83333   0.75003   0.47265   0.00000  Uiso   1.00
C325   C     0.73456   0.74998   0.23756   0.00000  Uiso   1.00
C326   C     0.93211   0.75001   0.26245   0.00000  Uiso   1.00
C327   C     0.67930   0.75000   0.23069   0.00000  Uiso   1.00
C328   C     0.98737   0.74998   0.26933   0.00000  Uiso   1.00
C329   C     0.79706   0.54884   0.28288   0.00000  Uiso   1.00
C330   C     0.79872   0.95111   0.20674   0.00000  Uiso   1.00
C331   C     0.80296   0.59498   0.28379   0.00000  Uiso   1.00
C332   C     0.83285   0.83510   0.24982   0.00000  Uiso   1.00
C333   C     0.80462   0.90500   0.20753   0.00000  Uiso   1.00
C334   C     0.82957   0.61666   0.25001   0.00000  Uiso   1.00
C335   C     0.82966   0.88338   0.24896   0.00000  Uiso   1.00
C336   C     0.85146   0.59224   0.21546   0.00000  Uiso   1.00
C337   C     0.85001   0.90788   0.28981   0.00000  Uiso   1.00
C338   C     0.84772   0.54635   0.21522   0.00000  Uiso   1.00
C339   C     0.84621   0.95375   0.28901   0.00000  Uiso   1.00
C340   C     0.82053   0.52434   0.24839   0.00000  Uiso   1.00
C341   C     0.82054   0.97568   0.24802   0.00000  Uiso   1.00
C342   C     0.76506   0.52793   0.31718   0.00000  Uiso   1.00
C343   C     0.85707   0.78431   0.05690   0.00000  Uiso   1.00
C344   C     0.76847   0.97194   0.16315   0.00000  Uiso   1.00
C345   C     0.79385   0.72905   0.44098   0.00000  Uiso   1.00
C346   C     0.85695   0.78349   0.10762   0.00000  Uiso   1.00
C347   C     0.79480   0.72913   0.39038   0.00000  Uiso   1.00
C348   C     0.80971   0.71654   0.10174   0.00000  Uiso   1.00
C349   C     0.87187   0.77086   0.40023   0.00000  Uiso   1.00
C350   C     0.80960   0.71574   0.05101   0.00000  Uiso   1.00
Cu351  Cu    0.83333   0.74999   0.29821   0.00000  Uiso   1.00
Cu352  Cu    0.83333   0.75000   0.20178   0.00000  Uiso   1.00
H353   H     0.99265   0.75004   0.19363   0.00000  Uiso   1.00
H354   H     0.76183   0.71306   0.45485   0.00000  Uiso   1.00
H355   H     0.87574   0.80996   0.12957   0.00000  Uiso   1.00
H356   H     0.76435   0.71251   0.36688   0.00000  Uiso   1.00
H357   H     0.79090   0.69007   0.11900   0.00000  Uiso   1.00
H358   H     0.90233   0.78743   0.38449   0.00000  Uiso   1.00
H359   H     0.79152   0.68795   0.03081   0.00000  Uiso   1.00
H360   H     0.90482   0.78699   0.47314   0.00000  Uiso   1.00
H361   H     0.73451   0.53293   0.37989   0.00000  Uiso   1.00
H362   H     0.74135   0.96709   0.09161   0.00000  Uiso   1.00
H363   H     0.67402   0.74993   0.30639   0.00000  Uiso   1.00
H364   H     0.78508   0.61441   0.30964   0.00000  Uiso   1.00
H365   H     0.78794   0.88558   0.17648   0.00000  Uiso   1.00
H366   H     0.87223   0.60861   0.18923   0.00000  Uiso   1.00
H367   H     0.86960   0.89159   0.32200   0.00000  Uiso   1.00
H368   H     0.86622   0.52778   0.18913   0.00000  Uiso   1.00
H369   H     0.86349   0.97238   0.32044   0.00000  Uiso   1.00
H370   H     0.87515   0.81211   0.04117   0.00000  Uiso   1.00
N371   N     0.83333   0.75001   0.12934   0.00000  Uiso   1.00
N372   N     0.83333   0.74999   0.37065   0.00000  Uiso   1.00
O373   O     0.83334   0.68572   0.29071   0.00000  Uiso   1.00
O374   O     0.75726   0.55019   0.35969   0.00000  Uiso   1.00
O375   O     0.74727   0.50767   0.16624   0.00000  Uiso   1.00
O376   O     0.76305   0.94991   0.11845   0.00000  Uiso   1.00
O377   O     0.83333   0.81427   0.20929   0.00000  Uiso   1.00
O378   O     0.83334   0.68573   0.20928   0.00000  Uiso   1.00
O379   O     0.83333   0.81427   0.29072   0.00000  Uiso   1.00
O380   O     0.75828   0.74999   0.28132   0.00000  Uiso   1.00
O381   O     0.90839   0.75000   0.21868   0.00000  Uiso   1.00
O382   O     0.75828   0.75000   0.19989   0.00000  Uiso   1.00
O383   O     0.90839   0.75000   0.30011   0.00000  Uiso   1.00
O384   O     0.74446   0.99194   0.30802   0.00000  Uiso   1.00
C385   C     0.16614   0.16491   0.75004   0.00000  Uiso   1.00
C386   C     0.20614   0.27099   0.95108   0.00000  Uiso   1.00
C387   C     0.16667   0.25003   0.52733   0.00000  Uiso   1.00
C388   C     0.16666   0.25003   0.97265   0.00000  Uiso   1.00
C389   C     0.06790   0.24998   0.73756   0.00000  Uiso   1.00
C390   C     0.26544   0.25001   0.76245   0.00000  Uiso   1.00
C391   C     0.01263   0.25000   0.73069   0.00000  Uiso   1.00
C392   C     0.32071   0.24998   0.76933   0.00000  Uiso   1.00
C393   C     0.13039   0.04884   0.78288   0.00000  Uiso   1.00
C394   C     0.13205   0.45111   0.70674   0.00000  Uiso   1.00
C395   C     0.13629   0.09498   0.78379   0.00000  Uiso   1.00
C396   C     0.16619   0.33510   0.74982   0.00000  Uiso   1.00
C397   C     0.13795   0.40500   0.70753   0.00000  Uiso   1.00
C398   C     0.16290   0.11666   0.75001   0.00000  Uiso   1.00
C399   C     0.16299   0.38338   0.74896   0.00000  Uiso   1.00
C400   C     0.18479   0.09224   0.71546   0.00000  Uiso   1.00
C401   C     0.18334   0.40788   0.78981   0.00000  Uiso   1.00
C402   C     0.18106   0.04635   0.71522   0.00000  Uiso   1.00
C403   C     0.17954   0.45375   0.78901   0.00000  Uiso   1.00
C404   C     0.15386   0.02434   0.74839   0.00000  Uiso   1.00
C405   C     0.15387   0.47568   0.74802   0.00000  Uiso   1.00
C406   C     0.09839   0.02793   0.81718   0.00000  Uiso   1.00
C407   C     0.19041   0.28431   0.55690   0.00000  Uiso   1.00
C408   C     0.10181   0.47194   0.66315   0.00000  Uiso   1.00
C409   C     0.12718   0.22905   0.94098   0.00000  Uiso   1.00
C410   C     0.19029   0.28349   0.60762   0.00000  Uiso   1.00
C411   C     0.12814   0.22913   0.89038   0.00000  Uiso   1.00
C412   C     0.14304   0.21654   0.60174   0.00000  Uiso   1.00
C413   C     0.20520   0.27086   0.90023   0.00000  Uiso   1.00
C414   C     0.14293   0.21574   0.55101   0.00000  Uiso   1.00
Cu415  Cu    0.16667   0.24999   0.79821   0.00000  Uiso   1.00
Cu416  Cu    0.16667   0.25000   0.70178   0.00000  Uiso   1.00
H417   H     0.32598   0.25004   0.69363   0.00000  Uiso   1.00
H418   H     0.09516   0.21306   0.95485   0.00000  Uiso   1.00
H419   H     0.20907   0.30996   0.62957   0.00000  Uiso   1.00
H420   H     0.09768   0.21251   0.86688   0.00000  Uiso   1.00
H421   H     0.12423   0.19007   0.61900   0.00000  Uiso   1.00
H422   H     0.23566   0.28743   0.88449   0.00000  Uiso   1.00
H423   H     0.12485   0.18795   0.53081   0.00000  Uiso   1.00
H424   H     0.23815   0.28699   0.97314   0.00000  Uiso   1.00
H425   H     0.06784   0.03293   0.87989   0.00000  Uiso   1.00
H426   H     0.07468   0.46709   0.59161   0.00000  Uiso   1.00
H427   H     0.00735   0.24993   0.80639   0.00000  Uiso   1.00
H428   H     0.11841   0.11441   0.80964   0.00000  Uiso   1.00
H429   H     0.12127   0.38558   0.67648   0.00000  Uiso   1.00
H430   H     0.20556   0.10861   0.68923   0.00000  Uiso   1.00
H431   H     0.20294   0.39159   0.82200   0.00000  Uiso   1.00
H432   H     0.19955   0.02778   0.68913   0.00000  Uiso   1.00
H433   H     0.19682   0.47238   0.82044   0.00000  Uiso   1.00
H434   H     0.20849   0.31211   0.54117   0.00000  Uiso   1.00
N435   N     0.16667   0.25001   0.62934   0.00000  Uiso   1.00
N436   N     0.16667   0.24999   0.87065   0.00000  Uiso   1.00
O437   O     0.16667   0.18572   0.79071   0.00000  Uiso   1.00
O438   O     0.09059   0.05019   0.85969   0.00000  Uiso   1.00
O439   O     0.08060   0.00767   0.66624   0.00000  Uiso   1.00
O440   O     0.09638   0.44991   0.61845   0.00000  Uiso   1.00
O441   O     0.16666   0.31427   0.70929   0.00000  Uiso   1.00
O442   O     0.16667   0.18573   0.70928   0.00000  Uiso   1.00
O443   O     0.16666   0.31427   0.79072   0.00000  Uiso   1.00
O444   O     0.09161   0.24999   0.78132   0.00000  Uiso   1.00
O445   O     0.24172   0.25000   0.71868   0.00000  Uiso   1.00
O446   O     0.09161   0.25000   0.69989   0.00000  Uiso   1.00
O447   O     0.24172   0.25000   0.80011   0.00000  Uiso   1.00
O448   O     0.07780   0.49194   0.80802   0.00000  Uiso   1.00
C449   C     0.49947   0.16491   0.75004   0.00000  Uiso   1.00
C450   C     0.53947   0.27099   0.95108   0.00000  Uiso   1.00
C451   C     0.50000   0.25003   0.52733   0.00000  Uiso   1.00
C452   C     0.49999   0.25003   0.97265   0.00000  Uiso   1.00
C453   C     0.40123   0.24998   0.73756   0.00000  Uiso   1.00
C454   C     0.59877   0.25001   0.76245   0.00000  Uiso   1.00
C455   C     0.34597   0.25000   0.73069   0.00000  Uiso   1.00
C456   C     0.65404   0.24998   0.76933   0.00000  Uiso   1.00
C457   C     0.46373   0.04884   0.78288   0.00000  Uiso   1.00
C458   C     0.46539   0.45111   0.70674   0.00000  Uiso   1.00
C459   C     0.46963   0.09498   0.78379   0.00000  Uiso   1.00
C460   C     0.49952   0.33510   0.74982   0.00000  Uiso   1.00
C461   C     0.47129   0.40500   0.70753   0.00000  Uiso   1.00
C462   C     0.49624   0.11666   0.75001   0.00000  Uiso   1.00
C463   C     0.49632   0.38338   0.74896   0.00000  Uiso   1.00
C464   C     0.51813   0.09224   0.71546   0.00000  Uiso   1.00
C465   C     0.51667   0.40788   0.78981   0.00000  Uiso   1.00
C466   C     0.51439   0.04635   0.71522   0.00000  Uiso   1.00
C467   C     0.51288   0.45375   0.78901   0.00000  Uiso   1.00
C468   C     0.48719   0.02434   0.74839   0.00000  Uiso   1.00
C469   C     0.48720   0.47568   0.74802   0.00000  Uiso   1.00
C470   C     0.43173   0.02793   0.81718   0.00000  Uiso   1.00
C471   C     0.52374   0.28431   0.55690   0.00000  Uiso   1.00
C472   C     0.43514   0.47194   0.66315   0.00000  Uiso   1.00
C473   C     0.46052   0.22905   0.94098   0.00000  Uiso   1.00
C474   C     0.52362   0.28349   0.60762   0.00000  Uiso   1.00
C475   C     0.46147   0.22913   0.89038   0.00000  Uiso   1.00
C476   C     0.47637   0.21654   0.60174   0.00000  Uiso   1.00
C477   C     0.53853   0.27086   0.90023   0.00000  Uiso   1.00
C478   C     0.47626   0.21574   0.55101   0.00000  Uiso   1.00
Cu479  Cu    0.50000   0.24999   0.79821   0.00000  Uiso   1.00
Cu480  Cu    0.50000   0.25000   0.70178   0.00000  Uiso   1.00
H481   H     0.65932   0.25004   0.69363   0.00000  Uiso   1.00
H482   H     0.42850   0.21306   0.95485   0.00000  Uiso   1.00
H483   H     0.54240   0.30996   0.62957   0.00000  Uiso   1.00
H484   H     0.43102   0.21251   0.86688   0.00000  Uiso   1.00
H485   H     0.45757   0.19007   0.61900   0.00000  Uiso   1.00
H486   H     0.56899   0.28743   0.88449   0.00000  Uiso   1.00
H487   H     0.45819   0.18795   0.53081   0.00000  Uiso   1.00
H488   H     0.57149   0.28699   0.97314   0.00000  Uiso   1.00
H489   H     0.40117   0.03293   0.87989   0.00000  Uiso   1.00
H490   H     0.40801   0.46709   0.59161   0.00000  Uiso   1.00
H491   H     0.34068   0.24993   0.80639   0.00000  Uiso   1.00
H492   H     0.45175   0.11441   0.80964   0.00000  Uiso   1.00
H493   H     0.45461   0.38558   0.67648   0.00000  Uiso   1.00
H494   H     0.53890   0.10861   0.68923   0.00000  Uiso   1.00
H495   H     0.53627   0.39159   0.82200   0.00000  Uiso   1.00
H496   H     0.53288   0.02778   0.68913   0.00000  Uiso   1.00
H497   H     0.53015   0.47238   0.82044   0.00000  Uiso   1.00
H498   H     0.54182   0.31211   0.54117   0.00000  Uiso   1.00
N499   N     0.50000   0.25001   0.62934   0.00000  Uiso   1.00
N500   N     0.50000   0.24999   0.87065   0.00000  Uiso   1.00
O501   O     0.50000   0.18572   0.79071   0.00000  Uiso   1.00
O502   O     0.42392   0.05019   0.85969   0.00000  Uiso   1.00
O503   O     0.41393   0.00767   0.66624   0.00000  Uiso   1.00
O504   O     0.42971   0.44991   0.61845   0.00000  Uiso   1.00
O505   O     0.50000   0.31427   0.70929   0.00000  Uiso   1.00
O506   O     0.50000   0.18573   0.70928   0.00000  Uiso   1.00
O507   O     0.50000   0.31427   0.79072   0.00000  Uiso   1.00
O508   O     0.42495   0.24999   0.78132   0.00000  Uiso   1.00
O509   O     0.57505   0.25000   0.71868   0.00000  Uiso   1.00
O510   O     0.42495   0.25000   0.69989   0.00000  Uiso   1.00
O511   O     0.57505   0.25000   0.80011   0.00000  Uiso   1.00
O512   O     0.41113   0.49194   0.80802   0.00000  Uiso   1.00
C513   C     0.83281   0.16491   0.75004   0.00000  Uiso   1.00
C514   C     0.87280   0.27099   0.95108   0.00000  Uiso   1.00
C515   C     0.83333   0.25003   0.52733   0.00000  Uiso   1.00
C516   C     0.83333   0.25003   0.97265   0.00000  Uiso   1.00
C517   C     0.73456   0.24998   0.73756   0.00000  Uiso   1.00
C518   C     0.93211   0.25001   0.76245   0.00000  Uiso   1.00
C519   C     0.67930   0.25000   0.73069   0.00000  Uiso   1.00
C520   C     0.98737   0.24998   0.76933   0.00000  Uiso   1.00
C521   C     0.79706   0.04884   0.78288   0.00000  Uiso   1.00
C522   C     0.79872   0.45111   0.70674   0.00000  Uiso   1.00
C523   C     0.80296   0.09498   0.78379   0.00000  Uiso   1.00
C524   C     0.83285   0.33510   0.74982   0.00000  Uiso   1.00
C525   C     0.80462   0.40500   0.70753   0.00000  Uiso   1.00
C526   C     0.82957   0.11666   0.75001   0.00000  Uiso   1.00
C527   C     0.82966   0.38338   0.74896   0.00000  Uiso   1.00
C528   C     0.85146   0.09224   0.71546   0.00000  Uiso   1.00
C529   C     0.85001   0.40788   0.78981   0.00000  Uiso   1.00
C530   C     0.84772   0.04635   0.71522   0.00000  Uiso   1.00
C531   C     0.84621   0.45375   0.78901   0.00000  Uiso   1.00
C532   C     0.82053   0.02434   0.74839   0.00000  Uiso   1.00
C533   C     0.82054   0.47568   0.74802   0.00000  Uiso   1.00
C534   C     0.76506   0.02793   0.81718   0.00000  Uiso   1.00
C535   C     0.85707   0.28431   0.55690   0.00000  Uiso   1.00
C536   C     0.76847   0.47194   0.66315   0.00000  Uiso   1.00
C537   C     0.79385   0.22905   0.94098   0.00000  Uiso   1.00
C538   C     0.85695   0.28349   0.60762   0.00000  Uiso   1.00
C539   C     0.79480   0.22913   0.89038   0.00000  Uiso   1.00
C540   C     0.80971   0.21654   0.60174   0.00000  Uiso   1.00
C541   C     0.87187   0.27086   0.90023   0.00000  Uiso   1.00
C542   C     0.80960   0.21574   0.55101   0.00000  Uiso   1.00
Cu543  Cu    0.83333   0.24999   0.79821   0.00000  Uiso   1.00
Cu544  Cu    0.83333   0.25000   0.70178   0.00000  Uiso   1.00
H545   H     0.99265   0.25004   0.69363   0.00000  Uiso   1.00
H546   H     0.76183   0.21306   0.95485   0.00000  Uiso   1.00
H547   H     0.87574   0.30996   0.62957   0.00000  Uiso   1.00
H548   H     0.76435   0.21251   0.86688   0.00000  Uiso   1.00
H549   H     0.79090   0.19007   0.61900   0.00000  Uiso   1.00
H550   H     0.90233   0.28743   0.88449   0.00000  Uiso   1.00
H551   H     0.79152   0.18795   0.53081   0.00000  Uiso   1.00
H552   H     0.90482   0.28699   0.97314   0.00000  Uiso   1.00
H553   H     0.73451   0.03293   0.87989   0.00000  Uiso   1.00
H554   H     0.74135   0.46709   0.59161   0.00000  Uiso   1.00
H555   H     0.67402   0.24993   0.80639   0.00000  Uiso   1.00
H556   H     0.78508   0.11441   0.80964   0.00000  Uiso   1.00
H557   H     0.78794   0.38558   0.67648   0.00000  Uiso   1.00
H558   H     0.87223   0.10861   0.68923   0.00000  Uiso   1.00
H559   H     0.86960   0.39159   0.82200   0.00000  Uiso   1.00
H560   H     0.86622   0.02778   0.68913   0.00000  Uiso   1.00
H561   H     0.86349   0.47238   0.82044   0.00000  Uiso   1.00
H562   H     0.87515   0.31211   0.54117   0.00000  Uiso   1.00
N563   N     0.83333   0.25001   0.62934   0.00000  Uiso   1.00
N564   N     0.83333   0.24999   0.87065   0.00000  Uiso   1.00
O565   O     0.83334   0.18572   0.79071   0.00000  Uiso   1.00
O566   O     0.75726   0.05019   0.85969   0.00000  Uiso   1.00
O567   O     0.74727   0.00767   0.66624   0.00000  Uiso   1.00
O568   O     0.76305   0.44991   0.61845   0.00000  Uiso   1.00
O569   O     0.83333   0.31427   0.70929   0.00000  Uiso   1.00
O570   O     0.83334   0.18573   0.70928   0.00000  Uiso   1.00
O571   O     0.83333   0.31427   0.79072   0.00000  Uiso   1.00
O572   O     0.75828   0.24999   0.78132   0.00000  Uiso   1.00
O573   O     0.90839   0.25000   0.71868   0.00000  Uiso   1.00
O574   O     0.75828   0.25000   0.69989   0.00000  Uiso   1.00
O575   O     0.90839   0.25000   0.80011   0.00000  Uiso   1.00
O576   O     0.74446   0.49194   0.80802   0.00000  Uiso   1.00
C577   C     0.16614   0.66491   0.75004   0.00000  Uiso   1.00
C578   C     0.20614   0.77099   0.95108   0.00000  Uiso   1.00
C579   C     0.16667   0.75003   0.52733   0.00000  Uiso   1.00
C580   C     0.16666   0.75003   0.97265   0.00000  Uiso   1.00
C581   C     0.06790   0.74998   0.73756   0.00000  Uiso   1.00
C582   C     0.26544   0.75001   0.76245   0.00000  Uiso   1.00
C583   C     0.01263   0.75000   0.73069   0.00000  Uiso   1.00
C584   C     0.32071   0.74998   0.76933   0.00000  Uiso   1.00
C585   C     0.13039   0.54884   0.78288   0.00000  Uiso   1.00
C586   C     0.13205   0.95111   0.70674   0.00000  Uiso   1.00
C587   C     0.13629   0.59498   0.78379   0.00000  Uiso   1.00
C588   C     0.16619   0.83510   0.74982   0.00000  Uiso   1.00
C589   C     0.13795   0.90500   0.70753   0.00000  Uiso   1.00
C590   C     0.16290   0.61666   0.75001   0.00000  Uiso   1.00
C591   C     0.16299   0.88338   0.74896   0.00000  Uiso   1.00
C592   C     0.18479   0.59224   0.71546   0.00000  Uiso   1.00
C593   C     0.18334   0.90788   0.78981   0.00000  Uiso   1.00
C594   C     0.18106   0.54635   0.71522   0.00000  Uiso   1.00
C595   C     0.17954   0.95375   0.78901   0.00000  Uiso   1.00
C596   C     0.15386   0.52434   0.74839   0.00000  Uiso   1.00
C597   C     0.15387   0.97568   0.74802   0.00000  Uiso   1.00
C598   C     0.09839   0.52793   0.81718   0.00000  Uiso   1.00
C599   C     0.19041   0.78431   0.55690   0.00000  Uiso   1.00
C600   C     0.10181   0.97194   0.66315   0.00000  Uiso   1.00
C601   C     0.12718   0.72905   0.94098   0.00000  Uiso   1.00
C602   C     0.19029   0.78349   0.60762   0.00000  Uiso   1.00
C603   C     0.12814   0.72913   0.89038   0.00000  Uiso   1.00
C604   C     0.14304   0.71654   0.60174   0.00000  Uiso   1.00
C605   C     0.20520   0.77086   0.90023   0.00000  Uiso   1.00
C606   C     0.14293   0.71574   0.55101   0.00000  Uiso   1.00
Cu607  Cu    0.16667   0.74999   0.79821   0.00000  Uiso   1.00
Cu608  Cu    0.16667   0.75000   0.70178   0.00000  Uiso   1.00
H609   H     0.32598   0.75004   0.69363   0.00000  Uiso   1.00
H610   H     0.09516   0.71306   0.95485   0.00000  Uiso   1.00
H611   H     0.20907   0.80996   0.62957   0.00000  Uiso   1.00
H612   H     0.09768   0.71251   0.86688   0.00000  Uiso   1.00
H613   H     0.12423   0.69007   0.61900   0.00000  Uiso   1.00
H614   H     0.23566   0.78743   0.88449   0.00000  Uiso   1.00
H615   H     0.12485   0.68795   0.53081   0.00000  Uiso   1.00
H616   H     0.23815   0.78699   0.97314   0.00000  Uiso   1.00
H617   H     0.06784   0.53293   0.87989   0.00000  Uiso   1.00
H618   H     0.07468   0.96709   0.59161   0.00000  Uiso   1.00
H619   H     0.00735   0.74993   0.80639   0.00000  Uiso   1.00
H620   H     0.11841   0.61441   0.80964   0.00000  Uiso   1.00
H621   H     0.12127   0.88558   0.67648   0.00000  Uiso   1.00
H622   H     0.20556   0.60861   0.68923   0.00000  Uiso   1.00
H623   H     0.20294   0.89159   0.82200   0.00000  Uiso   1.00
H624   H     0.19955   0.52778   0.68913   0.00000  Uiso   1.00
H625   H     0.19682   0.97238   0.82044   0.00000  Uiso   1.00
H626   H     0.20849   0.81211   0.54117   0.00000  Uiso   1.00
N627   N     0.16667   0.75001   0.62934   0.00000  Uiso   1.00
N628   N     0.16667   0.74999   0.87065   0.00000  Uiso   1.00
O629   O     0.16667   0.68572   0.79071   0.00000  Uiso   1.00
O630   O     0.09059   0.55019   0.85969   0.00000  Uiso   1.00
O631   O     0.08060   0.50767   0.66624   0.00000  Uiso   1.00
O632   O     0.09638   0.94991   0.61845   0.00000  Uiso   1.00
O633   O     0.16666   0.81427   0.70929   0.00000  Uiso   1.00
O634   O     0.16667   0.68573   0.70928   0.00000  Uiso   1.00
O635   O     0.16666   0.81427   0.79072   0.00000  Uiso   1.00
O636   O     0.09161   0.74999   0.78132   0.00000  Uiso   1.00
O637   O     0.24172   0.75000   0.71868   0.00000  Uiso   1.00
O638   O     0.09161   0.75000   0.69989   0.00000  Uiso   1.00
O639   O     0.24172   0.75000   0.80011   0.00000  Uiso   1.00
O640   O     0.07780   0.99194   0.80802   0.00000  Uiso   1.00
C641   C     0.49947   0.66491   0.75004   0.00000  Uiso   1.00
C642   C     0.53947   0.77099   0.95108   0.00000  Uiso   1.00
C643   C     0.50000   0.75003   0.52733   0.00000  Uiso   1.00
C644   C     0.49999   0.75003   0.97265   0.00000  Uiso   1.00
C645   C     0.40123   0.74998   0.73756   0.00000  Uiso   1.00
C646   C     0.59877   0.75001   0.76245   0.00000  Uiso   1.00
C647   C     0.34597   0.75000   0.73069   0.00000  Uiso   1.00
C648   C     0.65404   0.74998   0.76933   0.00000  Uiso   1.00
C649   C     0.46373   0.54884   0.78288   0.00000  Uiso   1.00
C650   C     0.46539   0.95111   0.70674   0.00000  Uiso   1.00
C651   C     0.46963   0.59498   0.78379   0.00000  Uiso   1.00
C652   C     0.49952   0.83510   0.74982   0.00000  Uiso   1.00
C653   C     0.47129   0.90500   0.70753   0.00000  Uiso   1.00
C654   C     0.49624   0.61666   0.75001   0.00000  Uiso   1.00
C655   C     0.49632   0.88338   0.74896   0.00000  Uiso   1.00
C656   C     0.51813   0.59224   0.71546   0.00000  Uiso   1.00
C657   C     0.51667   0.90788   0.78981   0.00000  Uiso   1.00
C658   C     0.51439   0.54635   0.71522   0.00000  Uiso   1.00
C659   C     0.51288   0.95375   0.78901   0.00000  Uiso   1.00
C660   C     0.48719   0.52434   0.74839   0.00000  Uiso   1.00
C661   C     0.48720   0.97568   0.74802   0.00000  Uiso   1.00
C662   C     0.43173   0.52793   0.81718   0.00000  Uiso   1.00
C663   C     0.52374   0.78431   0.55690   0.00000  Uiso   1.00
C664   C     0.43514   0.97194   0.66315   0.00000  Uiso   1.00
C665   C     0.46052   0.72905   0.94098   0.00000  Uiso   1.00
C666   C     0.52362   0.78349   0.60762   0.00000  Uiso   1.00
C667   C     0.46147   0.72913   0.89038   0.00000  Uiso   1.00
C668   C     0.47637   0.71654   0.60174   0.00000  Uiso   1.00
C669   C     0.53853   0.77086   0.90023   0.00000  Uiso   1.00
C670   C     0.47626   0.71574   0.55101   0.00000  Uiso   1.00
Cu671  Cu    0.50000   0.74999   0.79821   0.00000  Uiso   1.00
Cu672  Cu    0.50000   0.75000   0.70178   0.00000  Uiso   1.00
H673   H     0.65932   0.75004   0.69363   0.00000  Uiso   1.00
H674   H     0.42850   0.71306   0.95485   0.00000  Uiso   1.00
H675   H     0.54240   0.80996   0.62957   0.00000  Uiso   1.00
H676   H     0.43102   0.71251   0.86688   0.00000  Uiso   1.00
H677   H     0.45757   0.69007   0.61900   0.00000  Uiso   1.00
H678   H     0.56899   0.78743   0.88449   0.00000  Uiso   1.00
H679   H     0.45819   0.68795   0.53081   0.00000  Uiso   1.00
H680   H     0.57149   0.78699   0.97314   0.00000  Uiso   1.00
H681   H     0.40117   0.53293   0.87989   0.00000  Uiso   1.00
H682   H     0.40801   0.96709   0.59161   0.00000  Uiso   1.00
H683   H     0.34068   0.74993   0.80639   0.00000  Uiso   1.00
H684   H     0.45175   0.61441   0.80964   0.00000  Uiso   1.00
H685   H     0.45461   0.88558   0.67648   0.00000  Uiso   1.00
H686   H     0.53890   0.60861   0.68923   0.00000  Uiso   1.00
H687   H     0.53627   0.89159   0.82200   0.00000  Uiso   1.00
H688   H     0.53288   0.52778   0.68913   0.00000  Uiso   1.00
H689   H     0.53015   0.97238   0.82044   0.00000  Uiso   1.00
H690   H     0.54182   0.81211   0.54117   0.00000  Uiso   1.00
N691   N     0.50000   0.75001   0.62934   0.00000  Uiso   1.00
N692   N     0.50000   0.74999   0.87065   0.00000  Uiso   1.00
O693   O     0.50000   0.68572   0.79071   0.00000  Uiso   1.00
O694   O     0.42392   0.55019   0.85969   0.00000  Uiso   1.00
O695   O     0.41393   0.50767   0.66624   0.00000  Uiso   1.00
O696   O     0.42971   0.94991   0.61845   0.00000  Uiso   1.00
O697   O     0.50000   0.81427   0.70929   0.00000  Uiso   1.00
O698   O     0.50000   0.68573   0.70928   0.00000  Uiso   1.00
O699   O     0.50000   0.81427   0.79072   0.00000  Uiso   1.00
O700   O     0.42495   0.74999   0.78132   0.00000  Uiso   1.00
O701   O     0.57505   0.75000   0.71868   0.00000  Uiso   1.00
O702   O     0.42495   0.75000   0.69989   0.00000  Uiso   1.00
O703   O     0.57505   0.75000   0.80011   0.00000  Uiso   1.00
O704   O     0.41113   0.99194   0.80802   0.00000  Uiso   1.00
C705   C     0.83281   0.66491   0.75004   0.00000  Uiso   1.00
C706   C     0.87280   0.77099   0.95108   0.00000  Uiso   1.00
C707   C     0.83333   0.75003   0.52733   0.00000  Uiso   1.00
C708   C     0.83333   0.75003   0.97265   0.00000  Uiso   1.00
C709   C     0.73456   0.74998   0.73756   0.00000  Uiso   1.00
C710   C     0.93211   0.75001   0.76245   0.00000  Uiso   1.00
C711   C     0.67930   0.75000   0.73069   0.00000  Uiso   1.00
C712   C     0.98737   0.74998   0.76933   0.00000  Uiso   1.00
C713   C     0.79706   0.54884   0.78288   0.00000  Uiso   1.00
C714   C     0.79872   0.95111   0.70674   0.00000  Uiso   1.00
C715   C     0.80296   0.59498   0.78379   0.00000  Uiso   1.00
C716   C     0.83285   0.83510   0.74982   0.00000  Uiso   1.00
C717   C     0.80462   0.90500   0.70753   0.00000  Uiso   1.00
C718   C     0.82957   0.61666   0.75001   0.00000  Uiso   1.00
C719   C     0.82966   0.88338   0.74896   0.00000  Uiso   1.00
C720   C     0.85146   0.59224   0.71546   0.00000  Uiso   1.00
C721   C     0.85001   0.90788   0.78981   0.00000  Uiso   1.00
C722   C     0.84772   0.54635   0.71522   0.00000  Uiso   1.00
C723   C     0.84621   0.95375   0.78901   0.00000  Uiso   1.00
C724   C     0.82053   0.52434   0.74839   0.00000  Uiso   1.00
C725   C     0.82054   0.97568   0.74802   0.00000  Uiso   1.00
C726   C     0.76506   0.52793   0.81718   0.00000  Uiso   1.00
C727   C     0.85707   0.78431   0.55690   0.00000  Uiso   1.00
C728   C     0.76847   0.97194   0.66315   0.00000  Uiso   1.00
C729   C     0.79385   0.72905   0.94098   0.00000  Uiso   1.00
C730   C     0.85695   0.78349   0.60762   0.00000  Uiso   1.00
C731   C     0.79480   0.72913   0.89038   0.00000  Uiso   1.00
C732   C     0.80971   0.71654   0.60174   0.00000  Uiso   1.00
C733   C     0.87187   0.77086   0.90023   0.00000  Uiso   1.00
C734   C     0.80960   0.71574   0.55101   0.00000  Uiso   1.00
Cu735  Cu    0.83333   0.74999   0.79821   0.00000  Uiso   1.00
Cu736  Cu    0.83333   0.75000   0.70178   0.00000  Uiso   1.00
H737   H     0.99265   0.75004   0.69363   0.00000  Uiso   1.00
H738   H     0.76183   0.71306   0.95485   0.00000  Uiso   1.00
H739   H     0.87574   0.80996   0.62957   0.00000  Uiso   1.00
H740   H     0.76435   0.71251   0.86688   0.00000  Uiso   1.00
H741   H     0.79090   0.69007   0.61900   0.00000  Uiso   1.00
H742   H     0.90233   0.78743   0.88449   0.00000  Uiso   1.00
H743   H     0.79152   0.68795   0.53081   0.00000  Uiso   1.00
H744   H     0.90482   0.78699   0.97314   0.00000  Uiso   1.00
H745   H     0.73451   0.53293   0.87989   0.00000  Uiso   1.00
H746   H     0.74135   0.96709   0.59161   0.00000  Uiso   1.00
H747   H     0.67402   0.74993   0.80639   0.00000  Uiso   1.00
H748   H     0.78508   0.61441   0.80964   0.00000  Uiso   1.00
H749   H     0.78794   0.88558   0.67648   0.00000  Uiso   1.00
H750   H     0.87223   0.60861   0.68923   0.00000  Uiso   1.00
H751   H     0.86960   0.89159   0.82200   0.00000  Uiso   1.00
H752   H     0.86622   0.52778   0.68913   0.00000  Uiso   1.00
H753   H     0.86349   0.97238   0.82044   0.00000  Uiso   1.00
H754   H     0.87515   0.81211   0.54117   0.00000  Uiso   1.00
N755   N     0.83333   0.75001   0.62934   0.00000  Uiso   1.00
N756   N     0.83333   0.74999   0.87065   0.00000  Uiso   1.00
O757   O     0.83334   0.68572   0.79071   0.00000  Uiso   1.00
O758   O     0.75726   0.55019   0.85969   0.00000  Uiso   1.00
O759   O     0.74727   0.50767   0.66624   0.00000  Uiso   1.00
O760   O     0.76305   0.94991   0.61845   0.00000  Uiso   1.00
O761   O     0.83333   0.81427   0.70929   0.00000  Uiso   1.00
O762   O     0.83334   0.68573   0.70928   0.00000  Uiso   1.00
O763   O     0.83333   0.81427   0.79072   0.00000  Uiso   1.00
O764   O     0.75828   0.74999   0.78132   0.00000  Uiso   1.00
O765   O     0.90839   0.75000   0.71868   0.00000  Uiso   1.00
O766   O     0.75828   0.75000   0.69989   0.00000  Uiso   1.00
O767   O     0.90839   0.75000   0.80011   0.00000  Uiso   1.00
O768   O     0.74446   0.99194   0.80802   0.00000  Uiso   1.00
loop_
_geom_bond_atom_site_label_1
_geom_bond_atom_site_label_2
_geom_bond_distance
_geom_bond_site_symmetry_2
_ccdc_geom_bond_type
C1     O53     1.292   .     A
C1     C14     1.458   .     S
C1     O58     1.293   .     A
C2     C4      1.411   .     A
C2     C29     1.407   .     A
C2     H40     1.081   .     S
C3     C30     1.411   .     A
C3     C23     1.411   .     A
C3     C388    1.517   1_554 S
C4     C25     1.411   .     A
C4     C387    1.517   .     S
C5     O62     1.287   .     A
C5     O60     1.285   .     A
C5     C7      1.434   .     S
C6     O63     1.287   .     A
C6     O61     1.285   .     A
C6     C8      1.434   .     S
C7     C136    1.335   1_455 S
C7     H161    1.087   1_455 S
C8     C71     1.335   .     S
C8     H107    1.087   .     S
C9     C20     1.418   .     A
C9     C11     1.400   .     A
C9     C22     1.489   .     S
C10    C24     1.489   .     S
C10    C13     1.400   .     A
C10    C21     1.418   .     A
C11    H44     1.084   .     S
C11    C14     1.401   .     A
C12    C15     1.459   .     S
C12    O57     1.292   .     A
C12    O59     1.293   .     A
C13    H45     1.084   .     S
C13    C15     1.402   .     A
C14    C16     1.397   .     A
C15    C17     1.397   .     A
C16    C18     1.388   .     A
C16    H46     1.083   .     S
C17    C19     1.388   .     A
C17    H47     1.083   .     S
C18    C20     1.403   .     A
C18    H48     1.084   .     S
C19    H49     1.084   .     S
C19    C21     1.403   .     A
C20    C213    1.468   1_545 S
C21    C212    1.468   .     S
C22    O54     1.399   .     S
C22    O256    1.223   1_545 S
C23    C26     1.407   .     A
C23    H50     1.081   .     S
C24    O56     1.399   .     S
C24    O247    1.223   .     S
C25    C27     1.407   .     A
C25    H34     1.081   .     S
C26    N51     1.364   .     A
C26    H35     1.081   .     S
C27    H36     1.081   .     S
C27    N52     1.364   .     A
C28    C30     1.407   .     A
C28    H37     1.081   .     S
C28    N51     1.364   .     A
C29    H38     1.081   .     S
C29    N52     1.364   .     A
C30    H39     1.081   .     S
Cu31   O63     1.960   .     S
Cu31   Cu32    2.675   .     S
Cu31   N52     2.009   .     S
Cu31   O53     1.951   .     S
Cu31   O60     1.958   .     S
Cu31   O59     1.949   .     S
Cu32   N51     2.009   .     S
Cu32   O58     1.949   .     S
Cu32   O62     1.960   .     S
Cu32   O57     1.951   .     S
Cu32   O61     1.958   .     S
H33    C71     1.087   .     S
H41    O54     1.014   .     S
H42    O56     1.014   .     S
H43    C136    1.087   1_455 S
O55    C216    1.223   1_545 S
O64    C214    1.223   .     S
C65    O117    1.292   .     A
C65    C78     1.458   .     S
C65    O122    1.293   .     A
C66    C68     1.411   .     A
C66    C93     1.407   .     A
C66    H104    1.081   .     S
C67    C94     1.411   .     A
C67    C87     1.411   .     A
C67    C452    1.517   1_554 S
C68    C89     1.411   .     A
C68    C451    1.517   .     S
C69    O126    1.287   .     A
C69    O124    1.285   .     A
C69    C71     1.434   .     S
C70    O127    1.287   .     A
C70    O125    1.285   .     A
C70    C72     1.434   .     S
C72    C135    1.335   .     S
C72    H171    1.087   .     S
C73    C84     1.418   .     A
C73    C75     1.400   .     A
C73    C86     1.489   .     S
C74    C88     1.489   .     S
C74    C77     1.400   .     A
C74    C85     1.418   .     A
C75    H108    1.084   .     S
C75    C78     1.401   .     A
C76    C79     1.459   .     S
C76    O121    1.292   .     A
C76    O123    1.293   .     A
C77    H109    1.084   .     S
C77    C79     1.402   .     A
C78    C80     1.397   .     A
C79    C81     1.397   .     A
C80    C82     1.388   .     A
C80    H110    1.083   .     S
C81    C83     1.388   .     A
C81    H111    1.083   .     S
C82    C84     1.403   .     A
C82    H112    1.084   .     S
C83    H113    1.084   .     S
C83    C85     1.403   .     A
C84    C277    1.468   1_545 S
C85    C276    1.468   .     S
C86    O118    1.399   .     S
C86    O320    1.223   1_545 S
C87    C90     1.407   .     A
C87    H114    1.081   .     S
C88    O120    1.399   .     S
C88    O311    1.223   .     S
C89    C91     1.407   .     A
C89    H98     1.081   .     S
C90    N115    1.364   .     A
C90    H99     1.081   .     S
C91    H100    1.081   .     S
C91    N116    1.364   .     A
C92    C94     1.407   .     A
C92    H101    1.081   .     S
C92    N115    1.364   .     A
C93    H102    1.081   .     S
C93    N116    1.364   .     A
C94    H103    1.081   .     S
Cu95   O127    1.960   .     S
Cu95   Cu96    2.675   .     S
Cu95   N116    2.009   .     S
Cu95   O117    1.951   .     S
Cu95   O124    1.958   .     S
Cu95   O123    1.949   .     S
Cu96   N115    2.009   .     S
Cu96   O122    1.949   .     S
Cu96   O126    1.960   .     S
Cu96   O121    1.951   .     S
Cu96   O125    1.958   .     S
H97    C135    1.087   .     S
H105   O118    1.014   .     S
H106   O120    1.014   .     S
O119   C280    1.223   1_545 S
O128   C278    1.223   .     S
C129   O181    1.292   .     A
C129   C142    1.458   .     S
C129   O186    1.293   .     A
C130   C132    1.411   .     A
C130   C157    1.407   .     A
C130   H168    1.081   .     S
C131   C158    1.411   .     A
C131   C151    1.411   .     A
C131   C516    1.517   1_554 S
C132   C153    1.411   .     A
C132   C515    1.517   .     S
C133   O190    1.287   .     A
C133   O188    1.285   .     A
C133   C135    1.434   .     S
C134   O191    1.287   .     A
C134   O189    1.285   .     A
C134   C136    1.434   .     S
C136   C7      1.335   1_655 S
C136   H43     1.087   1_655 S
C137   C148    1.418   .     A
C137   C139    1.400   .     A
C137   C150    1.489   .     S
C138   C152    1.489   .     S
C138   C141    1.400   .     A
C138   C149    1.418   .     A
C139   H172    1.084   .     S
C139   C142    1.401   .     A
C140   C143    1.459   .     S
C140   O185    1.292   .     A
C140   O187    1.293   .     A
C141   H173    1.084   .     S
C141   C143    1.402   .     A
C142   C144    1.397   .     A
C143   C145    1.397   .     A
C144   C146    1.388   .     A
C144   H174    1.083   .     S
C145   C147    1.388   .     A
C145   H175    1.083   .     S
C146   C148    1.403   .     A
C146   H176    1.084   .     S
C147   H177    1.084   .     S
C147   C149    1.403   .     A
C148   C341    1.468   1_545 S
C149   C340    1.468   .     S
C150   O182    1.399   .     S
C150   O384    1.223   1_545 S
C151   C154    1.407   .     A
C151   H178    1.081   .     S
C152   O184    1.399   .     S
C152   O375    1.223   .     S
C153   C155    1.407   .     A
C153   H162    1.081   .     S
C154   N179    1.364   .     A
C154   H163    1.081   .     S
C155   H164    1.081   .     S
C155   N180    1.364   .     A
C156   C158    1.407   .     A
C156   H165    1.081   .     S
C156   N179    1.364   .     A
C157   H166    1.081   .     S
C157   N180    1.364   .     A
C158   H167    1.081   .     S
Cu159  O191    1.960   .     S
Cu159  Cu160   2.675   .     S
Cu159  N180    2.009   .     S
Cu159  O181    1.951   .     S
Cu159  O188    1.958   .     S
Cu159  O187    1.949   .     S
Cu160  N179    2.009   .     S
Cu160  O186    1.949   .     S
Cu160  O190    1.960   .     S
Cu160  O185    1.951   .     S
Cu160  O189    1.958   .     S
H161   C7      1.087   1_655 S
H169   O182    1.014   .     S
H170   O184    1.014   .     S
O183   C344    1.223   1_545 S
O192   C342    1.223   .     S
C193   O245    1.292   .     A
C193   C206    1.458   .     S
C193   O250    1.293   .     A
C194   C196    1.411   .     A
C194   C221    1.407   .     A
C194   H232    1.081   .     S
C195   C222    1.411   .     A
C195   C215    1.411   .     A
C195   C580    1.517   1_554 S
C196   C217    1.411   .     A
C196   C579    1.517   .     S
C197   O254    1.287   .     A
C197   O252    1.285   .     A
C197   C199    1.434   .     S
C198   O255    1.287   .     A
C198   O253    1.285   .     A
C198   C200    1.434   .     S
C199   C328    1.335   1_455 S
C199   H353    1.087   1_455 S
C200   C263    1.335   .     S
C200   H299    1.087   .     S
C201   C212    1.418   .     A
C201   C203    1.400   .     A
C201   C214    1.489   .     S
C202   C216    1.489   .     S
C202   C205    1.400   .     A
C202   C213    1.418   .     A
C203   H236    1.084   .     S
C203   C206    1.401   .     A
C204   C207    1.459   .     S
C204   O249    1.292   .     A
C204   O251    1.293   .     A
C205   H237    1.084   .     S
C205   C207    1.402   .     A
C206   C208    1.397   .     A
C207   C209    1.397   .     A
C208   C210    1.388   .     A
C208   H238    1.083   .     S
C209   C211    1.388   .     A
C209   H239    1.083   .     S
C210   C212    1.403   .     A
C210   H240    1.084   .     S
C211   H241    1.084   .     S
C211   C213    1.403   .     A
C213   C20     1.468   1_565 S
C214   O246    1.399   .     S
C215   C218    1.407   .     A
C215   H242    1.081   .     S
C216   O248    1.399   .     S
C216   O55     1.223   1_565 S
C217   C219    1.407   .     A
C217   H226    1.081   .     S
C218   N243    1.364   .     A
C218   H227    1.081   .     S
C219   H228    1.081   .     S
C219   N244    1.364   .     A
C220   C222    1.407   .     A
C220   H229    1.081   .     S
C220   N243    1.364   .     A
C221   H230    1.081   .     S
C221   N244    1.364   .     A
C222   H231    1.081   .     S
Cu223  O255    1.960   .     S
Cu223  Cu224   2.675   .     S
Cu223  N244    2.009   .     S
Cu223  O245    1.951   .     S
Cu223  O252    1.958   .     S
Cu223  O251    1.949   .     S
Cu224  N243    2.009   .     S
Cu224  O250    1.949   .     S
Cu224  O254    1.960   .     S
Cu224  O249    1.951   .     S
Cu224  O253    1.958   .     S
H225   C263    1.087   .     S
H233   O246    1.014   .     S
H234   O248    1.014   .     S
H235   C328    1.087   1_455 S
O256   C22     1.223   1_565 S
C257   O309    1.292   .     A
C257   C270    1.458   .     S
C257   O314    1.293   .     A
C258   C260    1.411   .     A
C258   C285    1.407   .     A
C258   H296    1.081   .     S
C259   C286    1.411   .     A
C259   C279    1.411   .     A
C259   C644    1.517   1_554 S
C260   C281    1.411   .     A
C260   C643    1.517   .     S
C261   O318    1.287   .     A
C261   O316    1.285   .     A
C261   C263    1.434   .     S
C262   O319    1.287   .     A
C262   O317    1.285   .     A
C262   C264    1.434   .     S
C264   C327    1.335   .     S
C264   H363    1.087   .     S
C265   C276    1.418   .     A
C265   C267    1.400   .     A
C265   C278    1.489   .     S
C266   C280    1.489   .     S
C266   C269    1.400   .     A
C266   C277    1.418   .     A
C267   H300    1.084   .     S
C267   C270    1.401   .     A
C268   C271    1.459   .     S
C268   O313    1.292   .     A
C268   O315    1.293   .     A
C269   H301    1.084   .     S
C269   C271    1.402   .     A
C270   C272    1.397   .     A
C271   C273    1.397   .     A
C272   C274    1.388   .     A
C272   H302    1.083   .     S
C273   C275    1.388   .     A
C273   H303    1.083   .     S
C274   C276    1.403   .     A
C274   H304    1.084   .     S
C275   H305    1.084   .     S
C275   C277    1.403   .     A
C277   C84     1.468   1_565 S
C278   O310    1.399   .     S
C279   C282    1.407   .     A
C279   H306    1.081   .     S
C280   O312    1.399   .     S
C280   O119    1.223   1_565 S
C281   C283    1.407   .     A
C281   H290    1.081   .     S
C282   N307    1.364   .     A
C282   H291    1.081   .     S
C283   H292    1.081   .     S
C283   N308    1.364   .     A
C284   C286    1.407   .     A
C284   H293    1.081   .     S
C284   N307    1.364   .     A
C285   H294    1.081   .     S
C285   N308    1.364   .     A
C286   H295    1.081   .     S
Cu287  O319    1.960   .     S
Cu287  Cu288   2.675   .     S
Cu287  N308    2.009   .     S
Cu287  O309    1.951   .     S
Cu287  O316    1.958   .     S
Cu287  O315    1.949   .     S
Cu288  N307    2.009   .     S
Cu288  O314    1.949   .     S
Cu288  O318    1.960   .     S
Cu288  O313    1.951   .     S
Cu288  O317    1.958   .     S
H289   C327    1.087   .     S
H297   O310    1.014   .     S
H298   O312    1.014   .     S
O320   C86     1.223   1_565 S
C321   O373    1.292   .     A
C321   C334    1.458   .     S
C321   O378    1.293   .     A
C322   C324    1.411   .     A
C322   C349    1.407   .     A
C322   H360    1.081   .     S
C323   C350    1.411   .     A
C323   C343    1.411   .     A
C323   C708    1.517   1_554 S
C324   C345    1.411   .     A
C324   C707    1.517   .     S
C325   O382    1.287   .     A
C325   O380    1.285   .     A
C325   C327    1.434   .     S
C326   O383    1.287   .     A
C326   O381    1.285   .     A
C326   C328    1.434   .     S
C328   C199    1.335   1_655 S
C328   H235    1.087   1_655 S
C329   C340    1.418   .     A
C329   C331    1.400   .     A
C329   C342    1.489   .     S
C330   C344    1.489   .     S
C330   C333    1.400   .     A
C330   C341    1.418   .     A
C331   H364    1.084   .     S
C331   C334    1.401   .     A
C332   C335    1.459   .     S
C332   O377    1.292   .     A
C332   O379    1.293   .     A
C333   H365    1.084   .     S
C333   C335    1.402   .     A
C334   C336    1.397   .     A
C335   C337    1.397   .     A
C336   C338    1.388   .     A
C336   H366    1.083   .     S
C337   C339    1.388   .     A
C337   H367    1.083   .     S
C338   C340    1.403   .     A
C338   H368    1.084   .     S
C339   H369    1.084   .     S
C339   C341    1.403   .     A
C341   C148    1.468   1_565 S
C342   O374    1.399   .     S
C343   C346    1.407   .     A
C343   H370    1.081   .     S
C344   O376    1.399   .     S
C344   O183    1.223   1_565 S
C345   C347    1.407   .     A
C345   H354    1.081   .     S
C346   N371    1.364   .     A
C346   H355    1.081   .     S
C347   H356    1.081   .     S
C347   N372    1.364   .     A
C348   C350    1.407   .     A
C348   H357    1.081   .     S
C348   N371    1.364   .     A
C349   H358    1.081   .     S
C349   N372    1.364   .     A
C350   H359    1.081   .     S
Cu351  O383    1.960   .     S
Cu351  Cu352   2.675   .     S
Cu351  N372    2.009   .     S
Cu351  O373    1.951   .     S
Cu351  O380    1.958   .     S
Cu351  O379    1.949   .     S
Cu352  N371    2.009   .     S
Cu352  O378    1.949   .     S
Cu352  O382    1.960   .     S
Cu352  O377    1.951   .     S
Cu352  O381    1.958   .     S
H353   C199    1.087   1_655 S
H361   O374    1.014   .     S
H362   O376    1.014   .     S
O384   C150    1.223   1_565 S
C385   O437    1.292   .     A
C385   C398    1.458   .     S
C385   O442    1.293   .     A
C386   C388    1.411   .     A
C386   C413    1.407   .     A
C386   H424    1.081   .     S
C387   C414    1.411   .     A
C387   C407    1.411   .     A
C388   C409    1.411   .     A
C388   C3      1.517   1_556 S
C389   O446    1.287   .     A
C389   O444    1.285   .     A
C389   C391    1.434   .     S
C390   O447    1.287   .     A
C390   O445    1.285   .     A
C390   C392    1.434   .     S
C391   C520    1.335   1_455 S
C391   H545    1.087   1_455 S
C392   C455    1.335   .     S
C392   H491    1.087   .     S
C393   C404    1.418   .     A
C393   C395    1.400   .     A
C393   C406    1.489   .     S
C394   C408    1.489   .     S
C394   C397    1.400   .     A
C394   C405    1.418   .     A
C395   H428    1.084   .     S
C395   C398    1.401   .     A
C396   C399    1.459   .     S
C396   O441    1.292   .     A
C396   O443    1.293   .     A
C397   H429    1.084   .     S
C397   C399    1.402   .     A
C398   C400    1.397   .     A
C399   C401    1.397   .     A
C400   C402    1.388   .     A
C400   H430    1.083   .     S
C401   C403    1.388   .     A
C401   H431    1.083   .     S
C402   C404    1.403   .     A
C402   H432    1.084   .     S
C403   H433    1.084   .     S
C403   C405    1.403   .     A
C404   C597    1.468   1_545 S
C405   C596    1.468   .     S
C406   O438    1.399   .     S
C406   O640    1.223   1_545 S
C407   C410    1.407   .     A
C407   H434    1.081   .     S
C408   O440    1.399   .     S
C408   O631    1.223   .     S
C409   C411    1.407   .     A
C409   H418    1.081   .     S
C410   N435    1.364   .     A
C410   H419    1.081   .     S
C411   H420    1.081   .     S
C411   N436    1.364   .     A
C412   C414    1.407   .     A
C412   H421    1.081   .     S
C412   N435    1.364   .     A
C413   H422    1.081   .     S
C413   N436    1.364   .     A
C414   H423    1.081   .     S
Cu415  O447    1.960   .     S
Cu415  Cu416   2.675   .     S
Cu415  N436    2.009   .     S
Cu415  O437    1.951   .     S
Cu415  O444    1.958   .     S
Cu415  O443    1.949   .     S
Cu416  N435    2.009   .     S
Cu416  O442    1.949   .     S
Cu416  O446    1.960   .     S
Cu416  O441    1.951   .     S
Cu416  O445    1.958   .     S
H417   C455    1.087   .     S
H425   O438    1.014   .     S
H426   O440    1.014   .     S
H427   C520    1.087   1_455 S
O439   C600    1.223   1_545 S
O448   C598    1.223   .     S
C449   O501    1.292   .     A
C449   C462    1.458   .     S
C449   O506    1.293   .     A
C450   C452    1.411   .     A
C450   C477    1.407   .     A
C450   H488    1.081   .     S
C451   C478    1.411   .     A
C451   C471    1.411   .     A
C452   C473    1.411   .     A
C452   C67     1.517   1_556 S
C453   O510    1.287   .     A
C453   O508    1.285   .     A
C453   C455    1.434   .     S
C454   O511    1.287   .     A
C454   O509    1.285   .     A
C454   C456    1.434   .     S
C456   C519    1.335   .     S
C456   H555    1.087   .     S
C457   C468    1.418   .     A
C457   C459    1.400   .     A
C457   C470    1.489   .     S
C458   C472    1.489   .     S
C458   C461    1.400   .     A
C458   C469    1.418   .     A
C459   H492    1.084   .     S
C459   C462    1.401   .     A
C460   C463    1.459   .     S
C460   O505    1.292   .     A
C460   O507    1.293   .     A
C461   H493    1.084   .     S
C461   C463    1.402   .     A
C462   C464    1.397   .     A
C463   C465    1.397   .     A
C464   C466    1.388   .     A
C464   H494    1.083   .     S
C465   C467    1.388   .     A
C465   H495    1.083   .     S
C466   C468    1.403   .     A
C466   H496    1.084   .     S
C467   H497    1.084   .     S
C467   C469    1.403   .     A
C468   C661    1.468   1_545 S
C469   C660    1.468   .     S
C470   O502    1.399   .     S
C470   O704    1.223   1_545 S
C471   C474    1.407   .     A
C471   H498    1.081   .     S
C472   O504    1.399   .     S
C472   O695    1.223   .     S
C473   C475    1.407   .     A
C473   H482    1.081   .     S
C474   N499    1.364   .     A
C474   H483    1.081   .     S
C475   H484    1.081   .     S
C475   N500    1.364   .     A
C476   C478    1.407   .     A
C476   H485    1.081   .     S
C476   N499    1.364   .     A
C477   H486    1.081   .     S
C477   N500    1.364   .     A
C478   H487    1.081   .     S
Cu479  O511    1.960   .     S
Cu479  Cu480   2.675   .     S
Cu479  N500    2.009   .     S
Cu479  O501    1.951   .     S
Cu479  O508    1.958   .     S
Cu479  O507    1.949   .     S
Cu480  N499    2.009   .     S
Cu480  O506    1.949   .     S
Cu480  O510    1.960   .     S
Cu480  O505    1.951   .     S
Cu480  O509    1.958   .     S
H481   C519    1.087   .     S
H489   O502    1.014   .     S
H490   O504    1.014   .     S
O503   C664    1.223   1_545 S
O512   C662    1.223   .     S
C513   O565    1.292   .     A
C513   C526    1.458   .     S
C513   O570    1.293   .     A
C514   C516    1.411   .     A
C514   C541    1.407   .     A
C514   H552    1.081   .     S
C515   C542    1.411   .     A
C515   C535    1.411   .     A
C516   C537    1.411   .     A
C516   C131    1.517   1_556 S
C517   O574    1.287   .     A
C517   O572    1.285   .     A
C517   C519    1.434   .     S
C518   O575    1.287   .     A
C518   O573    1.285   .     A
C518   C520    1.434   .     S
C520   C391    1.335   1_655 S
C520   H427    1.087   1_655 S
C521   C532    1.418   .     A
C521   C523    1.400   .     A
C521   C534    1.489   .     S
C522   C536    1.489   .     S
C522   C525    1.400   .     A
C522   C533    1.418   .     A
C523   H556    1.084   .     S
C523   C526    1.401   .     A
C524   C527    1.459   .     S
C524   O569    1.292   .     A
C524   O571    1.293   .     A
C525   H557    1.084   .     S
C525   C527    1.402   .     A
C526   C528    1.397   .     A
C527   C529    1.397   .     A
C528   C530    1.388   .     A
C528   H558    1.083   .     S
C529   C531    1.388   .     A
C529   H559    1.083   .     S
C530   C532    1.403   .     A
C530   H560    1.084   .     S
C531   H561    1.084   .     S
C531   C533    1.403   .     A
C532   C725    1.468   1_545 S
C533   C724    1.468   .     S
C534   O566    1.399   .     S
C534   O768    1.223   1_545 S
C535   C538    1.407   .     A
C535   H562    1.081   .     S
C536   O568    1.399   .     S
C536   O759    1.223   .     S
C537   C539    1.407   .     A
C537   H546    1.081   .     S
C538   N563    1.364   .     A
C538   H547    1.081   .     S
C539   H548    1.081   .     S
C539   N564    1.364   .     A
C540   C542    1.407   .     A
C540   H549    1.081   .     S
C540   N563    1.364   .     A
C541   H550    1.081   .     S
C541   N564    1.364   .     A
C542   H551    1.081   .     S
Cu543  O575    1.960   .     S
Cu543  Cu544   2.675   .     S
Cu543  N564    2.009   .     S
Cu543  O565    1.951   .     S
Cu543  O572    1.958   .     S
Cu543  O571    1.949   .     S
Cu544  N563    2.009   .     S
Cu544  O570    1.949   .     S
Cu544  O574    1.960   .     S
Cu544  O569    1.951   .     S
Cu544  O573    1.958   .     S
H545   C391    1.087   1_655 S
H553   O566    1.014   .     S
H554   O568    1.014   .     S
O567   C728    1.223   1_545 S
O576   C726    1.223   .     S
C577   O629    1.292   .     A
C577   C590    1.458   .     S
C577   O634    1.293   .     A
C578   C580    1.411   .     A
C578   C605    1.407   .     A
C578   H616    1.081   .     S
C579   C606    1.411   .     A
C579   C599    1.411   .     A
C580   C601    1.411   .     A
C580   C195    1.517   1_556 S
C581   O638    1.287   .     A
C581   O636    1.285   .     A
C581   C583    1.434   .     S
C582   O639    1.287   .     A
C582   O637    1.285   .     A
C582   C584    1.434   .     S
C583   C712    1.335   1_455 S
C583   H737    1.087   1_455 S
C584   C647    1.335   .     S
C584   H683    1.087   .     S
C585   C596    1.418   .     A
C585   C587    1.400   .     A
C585   C598    1.489   .     S
C586   C600    1.489   .     S
C586   C589    1.400   .     A
C586   C597    1.418   .     A
C587   H620    1.084   .     S
C587   C590    1.401   .     A
C588   C591    1.459   .     S
C588   O633    1.292   .     A
C588   O635    1.293   .     A
C589   H621    1.084   .     S
C589   C591    1.402   .     A
C590   C592    1.397   .     A
C591   C593    1.397   .     A
C592   C594    1.388   .     A
C592   H622    1.083   .     S
C593   C595    1.388   .     A
C593   H623    1.083   .     S
C594   C596    1.403   .     A
C594   H624    1.084   .     S
C595   H625    1.084   .     S
C595   C597    1.403   .     A
C597   C404    1.468   1_565 S
C598   O630    1.399   .     S
C599   C602    1.407   .     A
C599   H626    1.081   .     S
C600   O632    1.399   .     S
C600   O439    1.223   1_565 S
C601   C603    1.407   .     A
C601   H610    1.081   .     S
C602   N627    1.364   .     A
C602   H611    1.081   .     S
C603   H612    1.081   .     S
C603   N628    1.364   .     A
C604   C606    1.407   .     A
C604   H613    1.081   .     S
C604   N627    1.364   .     A
C605   H614    1.081   .     S
C605   N628    1.364   .     A
C606   H615    1.081   .     S
Cu607  O639    1.960   .     S
Cu607  Cu608   2.675   .     S
Cu607  N628    2.009   .     S
Cu607  O629    1.951   .     S
Cu607  O636    1.958   .     S
Cu607  O635    1.949   .     S
Cu608  N627    2.009   .     S
Cu608  O634    1.949   .     S
Cu608  O638    1.960   .     S
Cu608  O633    1.951   .     S
Cu608  O637    1.958   .     S
H609   C647    1.087   .     S
H617   O630    1.014   .     S
H618   O632    1.014   .     S
H619   C712    1.087   1_455 S
O640   C406    1.223   1_565 S
C641   O693    1.292   .     A
C641   C654    1.458   .     S
C641   O698    1.293   .     A
C642   C644    1.411   .     A
C642   C669    1.407   .     A
C642   H680    1.081   .     S
C643   C670    1.411   .     A
C643   C663    1.411   .     A
C644   C665    1.411   .     A
C644   C259    1.517   1_556 S
C645   O702    1.287   .     A
C645   O700    1.285   .     A
C645   C647    1.434   .     S
C646   O703    1.287   .     A
C646   O701    1.285   .     A
C646   C648    1.434   .     S
C648   C711    1.335   .     S
C648   H747    1.087   .     S
C649   C660    1.418   .     A
C649   C651    1.400   .     A
C649   C662    1.489   .     S
C650   C664    1.489   .     S
C650   C653    1.400   .     A
C650   C661    1.418   .     A
C651   H684    1.084   .     S
C651   C654    1.401   .     A
C652   C655    1.459   .     S
C652   O697    1.292   .     A
C652   O699    1.293   .     A
C653   H685    1.084   .     S
C653   C655    1.402   .     A
C654   C656    1.397   .     A
C655   C657    1.397   .     A
C656   C658    1.388   .     A
C656   H686    1.083   .     S
C657   C659    1.388   .     A
C657   H687    1.083   .     S
C658   C660    1.403   .     A
C658   H688    1.084   .     S
C659   H689    1.084   .     S
C659   C661    1.403   .     A
C661   C468    1.468   1_565 S
C662   O694    1.399   .     S
C663   C666    1.407   .     A
C663   H690    1.081   .     S
C664   O696    1.399   .     S
C664   O503    1.223   1_565 S
C665   C667    1.407   .     A
C665   H674    1.081   .     S
C666   N691    1.364   .     A
C666   H675    1.081   .     S
C667   H676    1.081   .     S
C667   N692    1.364   .     A
C668   C670    1.407   .     A
C668   H677    1.081   .     S
C668   N691    1.364   .     A
C669   H678    1.081   .     S
C669   N692    1.364   .     A
C670   H679    1.081   .     S
Cu671  O703    1.960   .     S
Cu671  Cu672   2.675   .     S
Cu671  N692    2.009   .     S
Cu671  O693    1.951   .     S
Cu671  O700    1.958   .     S
Cu671  O699    1.949   .     S
Cu672  N691    2.009   .     S
Cu672  O698    1.949   .     S
Cu672  O702    1.960   .     S
Cu672  O697    1.951   .     S
Cu672  O701    1.958   .     S
H673   C711    1.087   .     S
H681   O694    1.014   .     S
H682   O696    1.014   .     S
O704   C470    1.223   1_565 S
C705   O757    1.292   .     A
C705   C718    1.458   .     S
C705   O762    1.293   .     A
C706   C708    1.411   .     A
C706   C733    1.407   .     A
C706   H744    1.081   .     S
C707   C734    1.411   .     A
C707   C727    1.411   .     A
C708   C729    1.411   .     A
C708   C323    1.517   1_556 S
C709   O766    1.287   .     A
C709   O764    1.285   .     A
C709   C711    1.434   .     S
C710   O767    1.287   .     A
C710   O765    1.285   .     A
C710   C712    1.434   .     S
C712   C583    1.335   1_655 S
C712   H619    1.087   1_655 S
C713   C724    1.418   .     A
C713   C715    1.400   .     A
C713   C726    1.489   .     S
C714   C728    1.489   .     S
C714   C717    1.400   .     A
C714   C725    1.418   .     A
C715   H748    1.084   .     S
C715   C718    1.401   .     A
C716   C719    1.459   .     S
C716   O761    1.292   .     A
C716   O763    1.293   .     A
C717   H749    1.084   .     S
C717   C719    1.402   .     A
C718   C720    1.397   .     A
C719   C721    1.397   .     A
C720   C722    1.388   .     A
C720   H750    1.083   .     S
C721   C723    1.388   .     A
C721   H751    1.083   .     S
C722   C724    1.403   .     A
C722   H752    1.084   .     S
C723   H753    1.084   .     S
C723   C725    1.403   .     A
C725   C532    1.468   1_565 S
C726   O758    1.399   .     S
C727   C730    1.407   .     A
C727   H754    1.081   .     S
C728   O760    1.399   .     S
C728   O567    1.223   1_565 S
C729   C731    1.407   .     A
C729   H738    1.081   .     S
C730   N755    1.364   .     A
C730   H739    1.081   .     S
C731   H740    1.081   .     S
C731   N756    1.364   .     A
C732   C734    1.407   .     A
C732   H741    1.081   .     S
C732   N755    1.364   .     A
C733   H742    1.081   .     S
C733   N756    1.364   .     A
C734   H743    1.081   .     S
Cu735  O767    1.960   .     S
Cu735  Cu736   2.675   .     S
Cu735  N756    2.009   .     S
Cu735  O757    1.951   .     S
Cu735  O764    1.958   .     S
Cu735  O763    1.949   .     S
Cu736  N755    2.009   .     S
Cu736  O762    1.949   .     S
Cu736  O766    1.960   .     S
Cu736  O761    1.951   .     S
Cu736  O765    1.958   .     S
H737   C583    1.087   1_655 S
H745   O758    1.014   .     S
H746   O760    1.014   .     S
O768   C534    1.223   1_565 S
