data_str_m2_o2_o10_pcu_sym.137
_audit_creation_date              2020-01-03
_audit_creation_method            'Materials Studio'
_symmetry_space_group_name_H-M    'P1'
_symmetry_Int_Tables_number       1
_symmetry_cell_setting            triclinic
loop_
_symmetry_equiv_pos_as_xyz
  x,y,z
_cell_length_a                    26.1540
_cell_length_b                    30.1857
_cell_length_c                    27.9808
_cell_angle_alpha                 89.6520
_cell_angle_beta                  97.8191
_cell_angle_gamma                 92.2268
loop_
_atom_site_label
_atom_site_type_symbol
_atom_site_fract_x
_atom_site_fract_y
_atom_site_fract_z
_atom_site_U_iso_or_equiv
_atom_site_adp_type
_atom_site_occupancy
C1     C     0.16667   0.16504   0.25014   0.00000  Uiso   1.00
C2     C     0.16672   0.33497   0.24990   0.00000  Uiso   1.00
C3     C     0.21159   0.26601   0.05986   0.00000  Uiso   1.00
C4     C     0.14660   0.21181   0.44336   0.00000  Uiso   1.00
C5     C     0.20636   0.27133   0.10932   0.00000  Uiso   1.00
C6     C     0.14094   0.21630   0.39239   0.00000  Uiso   1.00
C7     C     0.12834   0.22824   0.09866   0.00000  Uiso   1.00
C8     C     0.19301   0.28231   0.39972   0.00000  Uiso   1.00
C9     C     0.12722   0.23074   0.04836   0.00000  Uiso   1.00
C10    C     0.19027   0.28323   0.44951   0.00000  Uiso   1.00
C11    C     0.16993   0.24758   0.02763   0.00000  Uiso   1.00
C12    C     0.16929   0.24706   0.47309   0.00000  Uiso   1.00
C13    C     0.06801   0.24964   0.23765   0.00000  Uiso   1.00
C14    C     0.26533   0.24998   0.26238   0.00000  Uiso   1.00
C15    C     0.01269   0.24876   0.23094   0.00000  Uiso   1.00
C16    C     0.32067   0.25018   0.26916   0.00000  Uiso   1.00
C17    C     0.19306   0.04875   0.29209   0.00000  Uiso   1.00
C18    C     0.19455   0.45335   0.21680   0.00000  Uiso   1.00
C19    C     0.19104   0.09479   0.29165   0.00000  Uiso   1.00
C20    C     0.19232   0.40720   0.21610   0.00000  Uiso   1.00
C21    C     0.16738   0.11677   0.25072   0.00000  Uiso   1.00
C22    C     0.16736   0.38330   0.24985   0.00000  Uiso   1.00
C23    C     0.14489   0.09243   0.21033   0.00000  Uiso   1.00
C24    C     0.14380   0.40582   0.28408   0.00000  Uiso   1.00
C25    C     0.14560   0.04645   0.21100   0.00000  Uiso   1.00
C26    C     0.14463   0.45188   0.28414   0.00000  Uiso   1.00
C27    C     0.17007   0.02437   0.25150   0.00000  Uiso   1.00
C28    C     0.17030   0.47590   0.25090   0.00000  Uiso   1.00
Cu29   Cu    0.16667   0.25000   0.29822   0.00000  Uiso   1.00
Cu30   Cu    0.16667   0.25001   0.20179   0.00000  Uiso   1.00
H31    H     0.32611   0.24681   0.19427   0.00000  Uiso   1.00
H32    H     0.00730   0.25178   0.30586   0.00000  Uiso   1.00
H33    H     0.20905   0.11345   0.32283   0.00000  Uiso   1.00
H34    H     0.21122   0.39010   0.18996   0.00000  Uiso   1.00
H35    H     0.12616   0.10891   0.17856   0.00000  Uiso   1.00
H36    H     0.12412   0.38779   0.31027   0.00000  Uiso   1.00
H37    H     0.12723   0.02796   0.17982   0.00000  Uiso   1.00
H38    H     0.12531   0.46891   0.31015   0.00000  Uiso   1.00
H39    H     0.09325   0.21777   0.02568   0.00000  Uiso   1.00
H40    H     0.20650   0.31196   0.46987   0.00000  Uiso   1.00
N41    N     0.16667   0.25001   0.12935   0.00000  Uiso   1.00
N42    N     0.16667   0.24999   0.37066   0.00000  Uiso   1.00
O43    O     0.16667   0.18573   0.29072   0.00000  Uiso   1.00
O44    O     0.16666   0.31428   0.20929   0.00000  Uiso   1.00
O45    O     0.16667   0.18573   0.20928   0.00000  Uiso   1.00
O46    O     0.16666   0.31427   0.29072   0.00000  Uiso   1.00
O47    O     0.09161   0.25000   0.28132   0.00000  Uiso   1.00
O48    O     0.24172   0.25001   0.21868   0.00000  Uiso   1.00
O49    O     0.09161   0.25000   0.19989   0.00000  Uiso   1.00
O50    O     0.24172   0.25000   0.30012   0.00000  Uiso   1.00
Br51   Br    0.22970   0.02106   0.34780   0.00000  Uiso   1.00
Br52   Br    0.23319   0.48383   0.17212   0.00000  Uiso   1.00
Br53   Br    0.27837   0.27891   0.03952   0.00000  Uiso   1.00
Br54   Br    0.12910   0.15502   0.47043   0.00000  Uiso   1.00
Br55   Br    0.25328   0.31345   0.14537   0.00000  Uiso   1.00
Br56   Br    0.09227   0.17602   0.35535   0.00000  Uiso   1.00
Br57   Br    0.07560   0.19060   0.12055   0.00000  Uiso   1.00
Br58   Br    0.23806   0.32658   0.37654   0.00000  Uiso   1.00
C59    C     0.50000   0.16504   0.25014   0.00000  Uiso   1.00
C60    C     0.50006   0.33497   0.24990   0.00000  Uiso   1.00
C61    C     0.54492   0.26601   0.05986   0.00000  Uiso   1.00
C62    C     0.47993   0.21181   0.44336   0.00000  Uiso   1.00
C63    C     0.53970   0.27133   0.10932   0.00000  Uiso   1.00
C64    C     0.47427   0.21630   0.39239   0.00000  Uiso   1.00
C65    C     0.46167   0.22824   0.09866   0.00000  Uiso   1.00
C66    C     0.52634   0.28231   0.39972   0.00000  Uiso   1.00
C67    C     0.46056   0.23074   0.04836   0.00000  Uiso   1.00
C68    C     0.52360   0.28323   0.44951   0.00000  Uiso   1.00
C69    C     0.50326   0.24758   0.02763   0.00000  Uiso   1.00
C70    C     0.50262   0.24706   0.47309   0.00000  Uiso   1.00
C71    C     0.40134   0.24964   0.23765   0.00000  Uiso   1.00
C72    C     0.59866   0.24998   0.26238   0.00000  Uiso   1.00
C73    C     0.34602   0.24876   0.23094   0.00000  Uiso   1.00
C74    C     0.65400   0.25018   0.26916   0.00000  Uiso   1.00
C75    C     0.52639   0.04875   0.29209   0.00000  Uiso   1.00
C76    C     0.52789   0.45335   0.21680   0.00000  Uiso   1.00
C77    C     0.52437   0.09479   0.29165   0.00000  Uiso   1.00
C78    C     0.52565   0.40720   0.21610   0.00000  Uiso   1.00
C79    C     0.50072   0.11677   0.25072   0.00000  Uiso   1.00
C80    C     0.50069   0.38330   0.24985   0.00000  Uiso   1.00
C81    C     0.47822   0.09243   0.21033   0.00000  Uiso   1.00
C82    C     0.47713   0.40582   0.28408   0.00000  Uiso   1.00
C83    C     0.47893   0.04645   0.21100   0.00000  Uiso   1.00
C84    C     0.47797   0.45188   0.28414   0.00000  Uiso   1.00
C85    C     0.50340   0.02437   0.25150   0.00000  Uiso   1.00
C86    C     0.50363   0.47590   0.25090   0.00000  Uiso   1.00
Cu87   Cu    0.50000   0.25000   0.29822   0.00000  Uiso   1.00
Cu88   Cu    0.50000   0.25001   0.20179   0.00000  Uiso   1.00
H89    H     0.65945   0.24681   0.19427   0.00000  Uiso   1.00
H90    H     0.34063   0.25178   0.30586   0.00000  Uiso   1.00
H91    H     0.54239   0.11345   0.32283   0.00000  Uiso   1.00
H92    H     0.54455   0.39010   0.18996   0.00000  Uiso   1.00
H93    H     0.45949   0.10891   0.17856   0.00000  Uiso   1.00
H94    H     0.45745   0.38779   0.31027   0.00000  Uiso   1.00
H95    H     0.46057   0.02796   0.17982   0.00000  Uiso   1.00
H96    H     0.45865   0.46891   0.31015   0.00000  Uiso   1.00
H97    H     0.42658   0.21777   0.02568   0.00000  Uiso   1.00
H98    H     0.53983   0.31196   0.46987   0.00000  Uiso   1.00
N99    N     0.50000   0.25001   0.12935   0.00000  Uiso   1.00
N100   N     0.50000   0.24999   0.37066   0.00000  Uiso   1.00
O101   O     0.50000   0.18573   0.29072   0.00000  Uiso   1.00
O102   O     0.50000   0.31428   0.20929   0.00000  Uiso   1.00
O103   O     0.50000   0.18573   0.20928   0.00000  Uiso   1.00
O104   O     0.50000   0.31427   0.29072   0.00000  Uiso   1.00
O105   O     0.42495   0.25000   0.28132   0.00000  Uiso   1.00
O106   O     0.57505   0.25001   0.21868   0.00000  Uiso   1.00
O107   O     0.42495   0.25000   0.19989   0.00000  Uiso   1.00
O108   O     0.57505   0.25000   0.30012   0.00000  Uiso   1.00
Br109  Br    0.56303   0.02106   0.34780   0.00000  Uiso   1.00
Br110  Br    0.56652   0.48383   0.17212   0.00000  Uiso   1.00
Br111  Br    0.61170   0.27891   0.03952   0.00000  Uiso   1.00
Br112  Br    0.46244   0.15502   0.47043   0.00000  Uiso   1.00
Br113  Br    0.58662   0.31345   0.14537   0.00000  Uiso   1.00
Br114  Br    0.42561   0.17602   0.35535   0.00000  Uiso   1.00
Br115  Br    0.40893   0.19060   0.12055   0.00000  Uiso   1.00
Br116  Br    0.57139   0.32658   0.37654   0.00000  Uiso   1.00
C117   C     0.83334   0.16504   0.25014   0.00000  Uiso   1.00
C118   C     0.83339   0.33497   0.24990   0.00000  Uiso   1.00
C119   C     0.87826   0.26601   0.05986   0.00000  Uiso   1.00
C120   C     0.81326   0.21181   0.44336   0.00000  Uiso   1.00
C121   C     0.87303   0.27133   0.10932   0.00000  Uiso   1.00
C122   C     0.80760   0.21630   0.39239   0.00000  Uiso   1.00
C123   C     0.79500   0.22824   0.09866   0.00000  Uiso   1.00
C124   C     0.85968   0.28231   0.39972   0.00000  Uiso   1.00
C125   C     0.79389   0.23074   0.04836   0.00000  Uiso   1.00
C126   C     0.85694   0.28323   0.44951   0.00000  Uiso   1.00
C127   C     0.83659   0.24758   0.02763   0.00000  Uiso   1.00
C128   C     0.83595   0.24706   0.47309   0.00000  Uiso   1.00
C129   C     0.73467   0.24964   0.23765   0.00000  Uiso   1.00
C130   C     0.93200   0.24998   0.26238   0.00000  Uiso   1.00
C131   C     0.67935   0.24876   0.23094   0.00000  Uiso   1.00
C132   C     0.98733   0.25018   0.26916   0.00000  Uiso   1.00
C133   C     0.85972   0.04875   0.29209   0.00000  Uiso   1.00
C134   C     0.86122   0.45335   0.21680   0.00000  Uiso   1.00
C135   C     0.85771   0.09479   0.29165   0.00000  Uiso   1.00
C136   C     0.85899   0.40720   0.21610   0.00000  Uiso   1.00
C137   C     0.83405   0.11677   0.25072   0.00000  Uiso   1.00
C138   C     0.83402   0.38330   0.24985   0.00000  Uiso   1.00
C139   C     0.81156   0.09243   0.21033   0.00000  Uiso   1.00
C140   C     0.81047   0.40582   0.28408   0.00000  Uiso   1.00
C141   C     0.81227   0.04645   0.21100   0.00000  Uiso   1.00
C142   C     0.81130   0.45188   0.28414   0.00000  Uiso   1.00
C143   C     0.83673   0.02437   0.25150   0.00000  Uiso   1.00
C144   C     0.83697   0.47590   0.25090   0.00000  Uiso   1.00
Cu145  Cu    0.83333   0.25000   0.29822   0.00000  Uiso   1.00
Cu146  Cu    0.83333   0.25001   0.20179   0.00000  Uiso   1.00
H147   H     0.99278   0.24681   0.19427   0.00000  Uiso   1.00
H148   H     0.67397   0.25178   0.30586   0.00000  Uiso   1.00
H149   H     0.87572   0.11345   0.32283   0.00000  Uiso   1.00
H150   H     0.87788   0.39010   0.18996   0.00000  Uiso   1.00
H151   H     0.79283   0.10891   0.17856   0.00000  Uiso   1.00
H152   H     0.79079   0.38779   0.31027   0.00000  Uiso   1.00
H153   H     0.79390   0.02796   0.17982   0.00000  Uiso   1.00
H154   H     0.79198   0.46891   0.31015   0.00000  Uiso   1.00
H155   H     0.75992   0.21777   0.02568   0.00000  Uiso   1.00
H156   H     0.87317   0.31196   0.46987   0.00000  Uiso   1.00
N157   N     0.83333   0.25001   0.12935   0.00000  Uiso   1.00
N158   N     0.83333   0.24999   0.37066   0.00000  Uiso   1.00
O159   O     0.83334   0.18573   0.29072   0.00000  Uiso   1.00
O160   O     0.83333   0.31428   0.20929   0.00000  Uiso   1.00
O161   O     0.83334   0.18573   0.20928   0.00000  Uiso   1.00
O162   O     0.83333   0.31427   0.29072   0.00000  Uiso   1.00
O163   O     0.75828   0.25000   0.28132   0.00000  Uiso   1.00
O164   O     0.90839   0.25001   0.21868   0.00000  Uiso   1.00
O165   O     0.75828   0.25000   0.19989   0.00000  Uiso   1.00
O166   O     0.90839   0.25000   0.30012   0.00000  Uiso   1.00
Br167  Br    0.89637   0.02106   0.34780   0.00000  Uiso   1.00
Br168  Br    0.89986   0.48383   0.17212   0.00000  Uiso   1.00
Br169  Br    0.94504   0.27891   0.03952   0.00000  Uiso   1.00
Br170  Br    0.79577   0.15502   0.47043   0.00000  Uiso   1.00
Br171  Br    0.91995   0.31345   0.14537   0.00000  Uiso   1.00
Br172  Br    0.75894   0.17602   0.35535   0.00000  Uiso   1.00
Br173  Br    0.74226   0.19060   0.12055   0.00000  Uiso   1.00
Br174  Br    0.90472   0.32658   0.37654   0.00000  Uiso   1.00
C175   C     0.16667   0.66504   0.25014   0.00000  Uiso   1.00
C176   C     0.16672   0.83497   0.24990   0.00000  Uiso   1.00
C177   C     0.21159   0.76601   0.05986   0.00000  Uiso   1.00
C178   C     0.14660   0.71181   0.44336   0.00000  Uiso   1.00
C179   C     0.20636   0.77133   0.10932   0.00000  Uiso   1.00
C180   C     0.14094   0.71630   0.39239   0.00000  Uiso   1.00
C181   C     0.12834   0.72824   0.09866   0.00000  Uiso   1.00
C182   C     0.19301   0.78231   0.39972   0.00000  Uiso   1.00
C183   C     0.12722   0.73074   0.04836   0.00000  Uiso   1.00
C184   C     0.19027   0.78323   0.44951   0.00000  Uiso   1.00
C185   C     0.16993   0.74758   0.02763   0.00000  Uiso   1.00
C186   C     0.16929   0.74706   0.47309   0.00000  Uiso   1.00
C187   C     0.06801   0.74964   0.23765   0.00000  Uiso   1.00
C188   C     0.26533   0.74998   0.26238   0.00000  Uiso   1.00
C189   C     0.01269   0.74876   0.23094   0.00000  Uiso   1.00
C190   C     0.32067   0.75018   0.26916   0.00000  Uiso   1.00
C191   C     0.19306   0.54875   0.29209   0.00000  Uiso   1.00
C192   C     0.19455   0.95335   0.21680   0.00000  Uiso   1.00
C193   C     0.19104   0.59479   0.29165   0.00000  Uiso   1.00
C194   C     0.19232   0.90720   0.21610   0.00000  Uiso   1.00
C195   C     0.16738   0.61677   0.25072   0.00000  Uiso   1.00
C196   C     0.16736   0.88330   0.24985   0.00000  Uiso   1.00
C197   C     0.14489   0.59243   0.21033   0.00000  Uiso   1.00
C198   C     0.14380   0.90582   0.28408   0.00000  Uiso   1.00
C199   C     0.14560   0.54645   0.21100   0.00000  Uiso   1.00
C200   C     0.14463   0.95188   0.28414   0.00000  Uiso   1.00
C201   C     0.17007   0.52437   0.25150   0.00000  Uiso   1.00
C202   C     0.17030   0.97590   0.25090   0.00000  Uiso   1.00
Cu203  Cu    0.16667   0.75000   0.29822   0.00000  Uiso   1.00
Cu204  Cu    0.16667   0.75001   0.20179   0.00000  Uiso   1.00
H205   H     0.32611   0.74681   0.19427   0.00000  Uiso   1.00
H206   H     0.00730   0.75178   0.30586   0.00000  Uiso   1.00
H207   H     0.20905   0.61345   0.32283   0.00000  Uiso   1.00
H208   H     0.21122   0.89010   0.18996   0.00000  Uiso   1.00
H209   H     0.12616   0.60891   0.17856   0.00000  Uiso   1.00
H210   H     0.12412   0.88779   0.31027   0.00000  Uiso   1.00
H211   H     0.12723   0.52796   0.17982   0.00000  Uiso   1.00
H212   H     0.12531   0.96891   0.31015   0.00000  Uiso   1.00
H213   H     0.09325   0.71777   0.02568   0.00000  Uiso   1.00
H214   H     0.20650   0.81196   0.46987   0.00000  Uiso   1.00
N215   N     0.16667   0.75001   0.12935   0.00000  Uiso   1.00
N216   N     0.16667   0.74999   0.37066   0.00000  Uiso   1.00
O217   O     0.16667   0.68573   0.29072   0.00000  Uiso   1.00
O218   O     0.16666   0.81428   0.20929   0.00000  Uiso   1.00
O219   O     0.16667   0.68573   0.20928   0.00000  Uiso   1.00
O220   O     0.16666   0.81427   0.29072   0.00000  Uiso   1.00
O221   O     0.09161   0.75000   0.28132   0.00000  Uiso   1.00
O222   O     0.24172   0.75001   0.21868   0.00000  Uiso   1.00
O223   O     0.09161   0.75000   0.19989   0.00000  Uiso   1.00
O224   O     0.24172   0.75000   0.30012   0.00000  Uiso   1.00
Br225  Br    0.22970   0.52106   0.34780   0.00000  Uiso   1.00
Br226  Br    0.23319   0.98383   0.17212   0.00000  Uiso   1.00
Br227  Br    0.27837   0.77891   0.03952   0.00000  Uiso   1.00
Br228  Br    0.12910   0.65502   0.47043   0.00000  Uiso   1.00
Br229  Br    0.25328   0.81345   0.14537   0.00000  Uiso   1.00
Br230  Br    0.09227   0.67602   0.35535   0.00000  Uiso   1.00
Br231  Br    0.07560   0.69060   0.12055   0.00000  Uiso   1.00
Br232  Br    0.23806   0.82658   0.37654   0.00000  Uiso   1.00
C233   C     0.50000   0.66504   0.25014   0.00000  Uiso   1.00
C234   C     0.50006   0.83497   0.24990   0.00000  Uiso   1.00
C235   C     0.54492   0.76601   0.05986   0.00000  Uiso   1.00
C236   C     0.47993   0.71181   0.44336   0.00000  Uiso   1.00
C237   C     0.53970   0.77133   0.10932   0.00000  Uiso   1.00
C238   C     0.47427   0.71630   0.39239   0.00000  Uiso   1.00
C239   C     0.46167   0.72824   0.09866   0.00000  Uiso   1.00
C240   C     0.52634   0.78231   0.39972   0.00000  Uiso   1.00
C241   C     0.46056   0.73074   0.04836   0.00000  Uiso   1.00
C242   C     0.52360   0.78323   0.44951   0.00000  Uiso   1.00
C243   C     0.50326   0.74758   0.02763   0.00000  Uiso   1.00
C244   C     0.50262   0.74706   0.47309   0.00000  Uiso   1.00
C245   C     0.40134   0.74964   0.23765   0.00000  Uiso   1.00
C246   C     0.59866   0.74998   0.26238   0.00000  Uiso   1.00
C247   C     0.34602   0.74876   0.23094   0.00000  Uiso   1.00
C248   C     0.65400   0.75018   0.26916   0.00000  Uiso   1.00
C249   C     0.52639   0.54875   0.29209   0.00000  Uiso   1.00
C250   C     0.52789   0.95335   0.21680   0.00000  Uiso   1.00
C251   C     0.52437   0.59479   0.29165   0.00000  Uiso   1.00
C252   C     0.52565   0.90720   0.21610   0.00000  Uiso   1.00
C253   C     0.50072   0.61677   0.25072   0.00000  Uiso   1.00
C254   C     0.50069   0.88330   0.24985   0.00000  Uiso   1.00
C255   C     0.47822   0.59243   0.21033   0.00000  Uiso   1.00
C256   C     0.47713   0.90582   0.28408   0.00000  Uiso   1.00
C257   C     0.47893   0.54645   0.21100   0.00000  Uiso   1.00
C258   C     0.47797   0.95188   0.28414   0.00000  Uiso   1.00
C259   C     0.50340   0.52437   0.25150   0.00000  Uiso   1.00
C260   C     0.50363   0.97590   0.25090   0.00000  Uiso   1.00
Cu261  Cu    0.50000   0.75000   0.29822   0.00000  Uiso   1.00
Cu262  Cu    0.50000   0.75001   0.20179   0.00000  Uiso   1.00
H263   H     0.65945   0.74681   0.19427   0.00000  Uiso   1.00
H264   H     0.34063   0.75178   0.30586   0.00000  Uiso   1.00
H265   H     0.54239   0.61345   0.32283   0.00000  Uiso   1.00
H266   H     0.54455   0.89010   0.18996   0.00000  Uiso   1.00
H267   H     0.45949   0.60891   0.17856   0.00000  Uiso   1.00
H268   H     0.45745   0.88779   0.31027   0.00000  Uiso   1.00
H269   H     0.46057   0.52796   0.17982   0.00000  Uiso   1.00
H270   H     0.45865   0.96891   0.31015   0.00000  Uiso   1.00
H271   H     0.42658   0.71777   0.02568   0.00000  Uiso   1.00
H272   H     0.53983   0.81196   0.46987   0.00000  Uiso   1.00
N273   N     0.50000   0.75001   0.12935   0.00000  Uiso   1.00
N274   N     0.50000   0.74999   0.37066   0.00000  Uiso   1.00
O275   O     0.50000   0.68573   0.29072   0.00000  Uiso   1.00
O276   O     0.50000   0.81428   0.20929   0.00000  Uiso   1.00
O277   O     0.50000   0.68573   0.20928   0.00000  Uiso   1.00
O278   O     0.50000   0.81427   0.29072   0.00000  Uiso   1.00
O279   O     0.42495   0.75000   0.28132   0.00000  Uiso   1.00
O280   O     0.57505   0.75001   0.21868   0.00000  Uiso   1.00
O281   O     0.42495   0.75000   0.19989   0.00000  Uiso   1.00
O282   O     0.57505   0.75000   0.30012   0.00000  Uiso   1.00
Br283  Br    0.56303   0.52106   0.34780   0.00000  Uiso   1.00
Br284  Br    0.56652   0.98383   0.17212   0.00000  Uiso   1.00
Br285  Br    0.61170   0.77891   0.03952   0.00000  Uiso   1.00
Br286  Br    0.46244   0.65502   0.47043   0.00000  Uiso   1.00
Br287  Br    0.58662   0.81345   0.14537   0.00000  Uiso   1.00
Br288  Br    0.42561   0.67602   0.35535   0.00000  Uiso   1.00
Br289  Br    0.40893   0.69060   0.12055   0.00000  Uiso   1.00
Br290  Br    0.57139   0.82658   0.37654   0.00000  Uiso   1.00
C291   C     0.83334   0.66504   0.25014   0.00000  Uiso   1.00
C292   C     0.83339   0.83497   0.24990   0.00000  Uiso   1.00
C293   C     0.87826   0.76601   0.05986   0.00000  Uiso   1.00
C294   C     0.81326   0.71181   0.44336   0.00000  Uiso   1.00
C295   C     0.87303   0.77133   0.10932   0.00000  Uiso   1.00
C296   C     0.80760   0.71630   0.39239   0.00000  Uiso   1.00
C297   C     0.79500   0.72824   0.09866   0.00000  Uiso   1.00
C298   C     0.85968   0.78231   0.39972   0.00000  Uiso   1.00
C299   C     0.79389   0.73074   0.04836   0.00000  Uiso   1.00
C300   C     0.85694   0.78323   0.44951   0.00000  Uiso   1.00
C301   C     0.83659   0.74758   0.02763   0.00000  Uiso   1.00
C302   C     0.83595   0.74706   0.47309   0.00000  Uiso   1.00
C303   C     0.73467   0.74964   0.23765   0.00000  Uiso   1.00
C304   C     0.93200   0.74998   0.26238   0.00000  Uiso   1.00
C305   C     0.67935   0.74876   0.23094   0.00000  Uiso   1.00
C306   C     0.98733   0.75018   0.26916   0.00000  Uiso   1.00
C307   C     0.85972   0.54875   0.29209   0.00000  Uiso   1.00
C308   C     0.86122   0.95335   0.21680   0.00000  Uiso   1.00
C309   C     0.85771   0.59479   0.29165   0.00000  Uiso   1.00
C310   C     0.85899   0.90720   0.21610   0.00000  Uiso   1.00
C311   C     0.83405   0.61677   0.25072   0.00000  Uiso   1.00
C312   C     0.83402   0.88330   0.24985   0.00000  Uiso   1.00
C313   C     0.81156   0.59243   0.21033   0.00000  Uiso   1.00
C314   C     0.81047   0.90582   0.28408   0.00000  Uiso   1.00
C315   C     0.81227   0.54645   0.21100   0.00000  Uiso   1.00
C316   C     0.81130   0.95188   0.28414   0.00000  Uiso   1.00
C317   C     0.83673   0.52437   0.25150   0.00000  Uiso   1.00
C318   C     0.83697   0.97590   0.25090   0.00000  Uiso   1.00
Cu319  Cu    0.83333   0.75000   0.29822   0.00000  Uiso   1.00
Cu320  Cu    0.83333   0.75001   0.20179   0.00000  Uiso   1.00
H321   H     0.99278   0.74681   0.19427   0.00000  Uiso   1.00
H322   H     0.67397   0.75178   0.30586   0.00000  Uiso   1.00
H323   H     0.87572   0.61345   0.32283   0.00000  Uiso   1.00
H324   H     0.87788   0.89010   0.18996   0.00000  Uiso   1.00
H325   H     0.79283   0.60891   0.17856   0.00000  Uiso   1.00
H326   H     0.79079   0.88779   0.31027   0.00000  Uiso   1.00
H327   H     0.79390   0.52796   0.17982   0.00000  Uiso   1.00
H328   H     0.79198   0.96891   0.31015   0.00000  Uiso   1.00
H329   H     0.75992   0.71777   0.02568   0.00000  Uiso   1.00
H330   H     0.87317   0.81196   0.46987   0.00000  Uiso   1.00
N331   N     0.83333   0.75001   0.12935   0.00000  Uiso   1.00
N332   N     0.83333   0.74999   0.37066   0.00000  Uiso   1.00
O333   O     0.83334   0.68573   0.29072   0.00000  Uiso   1.00
O334   O     0.83333   0.81428   0.20929   0.00000  Uiso   1.00
O335   O     0.83334   0.68573   0.20928   0.00000  Uiso   1.00
O336   O     0.83333   0.81427   0.29072   0.00000  Uiso   1.00
O337   O     0.75828   0.75000   0.28132   0.00000  Uiso   1.00
O338   O     0.90839   0.75001   0.21868   0.00000  Uiso   1.00
O339   O     0.75828   0.75000   0.19989   0.00000  Uiso   1.00
O340   O     0.90839   0.75000   0.30012   0.00000  Uiso   1.00
Br341  Br    0.89637   0.52106   0.34780   0.00000  Uiso   1.00
Br342  Br    0.89986   0.98383   0.17212   0.00000  Uiso   1.00
Br343  Br    0.94504   0.77891   0.03952   0.00000  Uiso   1.00
Br344  Br    0.79577   0.65502   0.47043   0.00000  Uiso   1.00
Br345  Br    0.91995   0.81345   0.14537   0.00000  Uiso   1.00
Br346  Br    0.75894   0.67602   0.35535   0.00000  Uiso   1.00
Br347  Br    0.74226   0.69060   0.12055   0.00000  Uiso   1.00
Br348  Br    0.90472   0.82658   0.37654   0.00000  Uiso   1.00
C349   C     0.16667   0.16504   0.75014   0.00000  Uiso   1.00
C350   C     0.16672   0.33497   0.74990   0.00000  Uiso   1.00
C351   C     0.21159   0.26601   0.55986   0.00000  Uiso   1.00
C352   C     0.14660   0.21181   0.94336   0.00000  Uiso   1.00
C353   C     0.20636   0.27133   0.60932   0.00000  Uiso   1.00
C354   C     0.14094   0.21630   0.89239   0.00000  Uiso   1.00
C355   C     0.12834   0.22824   0.59866   0.00000  Uiso   1.00
C356   C     0.19301   0.28231   0.89972   0.00000  Uiso   1.00
C357   C     0.12722   0.23074   0.54836   0.00000  Uiso   1.00
C358   C     0.19027   0.28323   0.94951   0.00000  Uiso   1.00
C359   C     0.16993   0.24758   0.52763   0.00000  Uiso   1.00
C360   C     0.16929   0.24706   0.97309   0.00000  Uiso   1.00
C361   C     0.06801   0.24964   0.73765   0.00000  Uiso   1.00
C362   C     0.26533   0.24998   0.76238   0.00000  Uiso   1.00
C363   C     0.01269   0.24876   0.73094   0.00000  Uiso   1.00
C364   C     0.32067   0.25018   0.76916   0.00000  Uiso   1.00
C365   C     0.19306   0.04875   0.79209   0.00000  Uiso   1.00
C366   C     0.19455   0.45335   0.71680   0.00000  Uiso   1.00
C367   C     0.19104   0.09479   0.79165   0.00000  Uiso   1.00
C368   C     0.19232   0.40720   0.71610   0.00000  Uiso   1.00
C369   C     0.16738   0.11677   0.75072   0.00000  Uiso   1.00
C370   C     0.16736   0.38330   0.74985   0.00000  Uiso   1.00
C371   C     0.14489   0.09243   0.71033   0.00000  Uiso   1.00
C372   C     0.14380   0.40582   0.78408   0.00000  Uiso   1.00
C373   C     0.14560   0.04645   0.71100   0.00000  Uiso   1.00
C374   C     0.14463   0.45188   0.78414   0.00000  Uiso   1.00
C375   C     0.17007   0.02437   0.75150   0.00000  Uiso   1.00
C376   C     0.17030   0.47590   0.75090   0.00000  Uiso   1.00
Cu377  Cu    0.16667   0.25000   0.79822   0.00000  Uiso   1.00
Cu378  Cu    0.16667   0.25001   0.70179   0.00000  Uiso   1.00
H379   H     0.32611   0.24681   0.69427   0.00000  Uiso   1.00
H380   H     0.00730   0.25178   0.80586   0.00000  Uiso   1.00
H381   H     0.20905   0.11345   0.82283   0.00000  Uiso   1.00
H382   H     0.21122   0.39010   0.68996   0.00000  Uiso   1.00
H383   H     0.12616   0.10891   0.67856   0.00000  Uiso   1.00
H384   H     0.12412   0.38779   0.81027   0.00000  Uiso   1.00
H385   H     0.12723   0.02796   0.67982   0.00000  Uiso   1.00
H386   H     0.12531   0.46891   0.81015   0.00000  Uiso   1.00
H387   H     0.09325   0.21777   0.52568   0.00000  Uiso   1.00
H388   H     0.20650   0.31196   0.96987   0.00000  Uiso   1.00
N389   N     0.16667   0.25001   0.62935   0.00000  Uiso   1.00
N390   N     0.16667   0.24999   0.87066   0.00000  Uiso   1.00
O391   O     0.16667   0.18573   0.79072   0.00000  Uiso   1.00
O392   O     0.16666   0.31428   0.70929   0.00000  Uiso   1.00
O393   O     0.16667   0.18573   0.70928   0.00000  Uiso   1.00
O394   O     0.16666   0.31427   0.79072   0.00000  Uiso   1.00
O395   O     0.09161   0.25000   0.78132   0.00000  Uiso   1.00
O396   O     0.24172   0.25001   0.71868   0.00000  Uiso   1.00
O397   O     0.09161   0.25000   0.69989   0.00000  Uiso   1.00
O398   O     0.24172   0.25000   0.80012   0.00000  Uiso   1.00
Br399  Br    0.22970   0.02106   0.84780   0.00000  Uiso   1.00
Br400  Br    0.23319   0.48383   0.67212   0.00000  Uiso   1.00
Br401  Br    0.27837   0.27891   0.53952   0.00000  Uiso   1.00
Br402  Br    0.12910   0.15502   0.97043   0.00000  Uiso   1.00
Br403  Br    0.25328   0.31345   0.64537   0.00000  Uiso   1.00
Br404  Br    0.09227   0.17602   0.85535   0.00000  Uiso   1.00
Br405  Br    0.07560   0.19060   0.62055   0.00000  Uiso   1.00
Br406  Br    0.23806   0.32658   0.87654   0.00000  Uiso   1.00
C407   C     0.50000   0.16504   0.75014   0.00000  Uiso   1.00
C408   C     0.50006   0.33497   0.74990   0.00000  Uiso   1.00
C409   C     0.54492   0.26601   0.55986   0.00000  Uiso   1.00
C410   C     0.47993   0.21181   0.94336   0.00000  Uiso   1.00
C411   C     0.53970   0.27133   0.60932   0.00000  Uiso   1.00
C412   C     0.47427   0.21630   0.89239   0.00000  Uiso   1.00
C413   C     0.46167   0.22824   0.59866   0.00000  Uiso   1.00
C414   C     0.52634   0.28231   0.89972   0.00000  Uiso   1.00
C415   C     0.46056   0.23074   0.54836   0.00000  Uiso   1.00
C416   C     0.52360   0.28323   0.94951   0.00000  Uiso   1.00
C417   C     0.50326   0.24758   0.52763   0.00000  Uiso   1.00
C418   C     0.50262   0.24706   0.97309   0.00000  Uiso   1.00
C419   C     0.40134   0.24964   0.73765   0.00000  Uiso   1.00
C420   C     0.59866   0.24998   0.76238   0.00000  Uiso   1.00
C421   C     0.34602   0.24876   0.73094   0.00000  Uiso   1.00
C422   C     0.65400   0.25018   0.76916   0.00000  Uiso   1.00
C423   C     0.52639   0.04875   0.79209   0.00000  Uiso   1.00
C424   C     0.52789   0.45335   0.71680   0.00000  Uiso   1.00
C425   C     0.52437   0.09479   0.79165   0.00000  Uiso   1.00
C426   C     0.52565   0.40720   0.71610   0.00000  Uiso   1.00
C427   C     0.50072   0.11677   0.75072   0.00000  Uiso   1.00
C428   C     0.50069   0.38330   0.74985   0.00000  Uiso   1.00
C429   C     0.47822   0.09243   0.71033   0.00000  Uiso   1.00
C430   C     0.47713   0.40582   0.78408   0.00000  Uiso   1.00
C431   C     0.47893   0.04645   0.71100   0.00000  Uiso   1.00
C432   C     0.47797   0.45188   0.78414   0.00000  Uiso   1.00
C433   C     0.50340   0.02437   0.75150   0.00000  Uiso   1.00
C434   C     0.50363   0.47590   0.75090   0.00000  Uiso   1.00
Cu435  Cu    0.50000   0.25000   0.79822   0.00000  Uiso   1.00
Cu436  Cu    0.50000   0.25001   0.70179   0.00000  Uiso   1.00
H437   H     0.65945   0.24681   0.69427   0.00000  Uiso   1.00
H438   H     0.34063   0.25178   0.80586   0.00000  Uiso   1.00
H439   H     0.54239   0.11345   0.82283   0.00000  Uiso   1.00
H440   H     0.54455   0.39010   0.68996   0.00000  Uiso   1.00
H441   H     0.45949   0.10891   0.67856   0.00000  Uiso   1.00
H442   H     0.45745   0.38779   0.81027   0.00000  Uiso   1.00
H443   H     0.46057   0.02796   0.67982   0.00000  Uiso   1.00
H444   H     0.45865   0.46891   0.81015   0.00000  Uiso   1.00
H445   H     0.42658   0.21777   0.52568   0.00000  Uiso   1.00
H446   H     0.53983   0.31196   0.96987   0.00000  Uiso   1.00
N447   N     0.50000   0.25001   0.62935   0.00000  Uiso   1.00
N448   N     0.50000   0.24999   0.87066   0.00000  Uiso   1.00
O449   O     0.50000   0.18573   0.79072   0.00000  Uiso   1.00
O450   O     0.50000   0.31428   0.70929   0.00000  Uiso   1.00
O451   O     0.50000   0.18573   0.70928   0.00000  Uiso   1.00
O452   O     0.50000   0.31427   0.79072   0.00000  Uiso   1.00
O453   O     0.42495   0.25000   0.78132   0.00000  Uiso   1.00
O454   O     0.57505   0.25001   0.71868   0.00000  Uiso   1.00
O455   O     0.42495   0.25000   0.69989   0.00000  Uiso   1.00
O456   O     0.57505   0.25000   0.80012   0.00000  Uiso   1.00
Br457  Br    0.56303   0.02106   0.84780   0.00000  Uiso   1.00
Br458  Br    0.56652   0.48383   0.67212   0.00000  Uiso   1.00
Br459  Br    0.61170   0.27891   0.53952   0.00000  Uiso   1.00
Br460  Br    0.46244   0.15502   0.97043   0.00000  Uiso   1.00
Br461  Br    0.58662   0.31345   0.64537   0.00000  Uiso   1.00
Br462  Br    0.42561   0.17602   0.85535   0.00000  Uiso   1.00
Br463  Br    0.40893   0.19060   0.62055   0.00000  Uiso   1.00
Br464  Br    0.57139   0.32658   0.87654   0.00000  Uiso   1.00
C465   C     0.83334   0.16504   0.75014   0.00000  Uiso   1.00
C466   C     0.83339   0.33497   0.74990   0.00000  Uiso   1.00
C467   C     0.87826   0.26601   0.55986   0.00000  Uiso   1.00
C468   C     0.81326   0.21181   0.94336   0.00000  Uiso   1.00
C469   C     0.87303   0.27133   0.60932   0.00000  Uiso   1.00
C470   C     0.80760   0.21630   0.89239   0.00000  Uiso   1.00
C471   C     0.79500   0.22824   0.59866   0.00000  Uiso   1.00
C472   C     0.85968   0.28231   0.89972   0.00000  Uiso   1.00
C473   C     0.79389   0.23074   0.54836   0.00000  Uiso   1.00
C474   C     0.85694   0.28323   0.94951   0.00000  Uiso   1.00
C475   C     0.83659   0.24758   0.52763   0.00000  Uiso   1.00
C476   C     0.83595   0.24706   0.97309   0.00000  Uiso   1.00
C477   C     0.73467   0.24964   0.73765   0.00000  Uiso   1.00
C478   C     0.93200   0.24998   0.76238   0.00000  Uiso   1.00
C479   C     0.67935   0.24876   0.73094   0.00000  Uiso   1.00
C480   C     0.98733   0.25018   0.76916   0.00000  Uiso   1.00
C481   C     0.85972   0.04875   0.79209   0.00000  Uiso   1.00
C482   C     0.86122   0.45335   0.71680   0.00000  Uiso   1.00
C483   C     0.85771   0.09479   0.79165   0.00000  Uiso   1.00
C484   C     0.85899   0.40720   0.71610   0.00000  Uiso   1.00
C485   C     0.83405   0.11677   0.75072   0.00000  Uiso   1.00
C486   C     0.83402   0.38330   0.74985   0.00000  Uiso   1.00
C487   C     0.81156   0.09243   0.71033   0.00000  Uiso   1.00
C488   C     0.81047   0.40582   0.78408   0.00000  Uiso   1.00
C489   C     0.81227   0.04645   0.71100   0.00000  Uiso   1.00
C490   C     0.81130   0.45188   0.78414   0.00000  Uiso   1.00
C491   C     0.83673   0.02437   0.75150   0.00000  Uiso   1.00
C492   C     0.83697   0.47590   0.75090   0.00000  Uiso   1.00
Cu493  Cu    0.83333   0.25000   0.79822   0.00000  Uiso   1.00
Cu494  Cu    0.83333   0.25001   0.70179   0.00000  Uiso   1.00
H495   H     0.99278   0.24681   0.69427   0.00000  Uiso   1.00
H496   H     0.67397   0.25178   0.80586   0.00000  Uiso   1.00
H497   H     0.87572   0.11345   0.82283   0.00000  Uiso   1.00
H498   H     0.87788   0.39010   0.68996   0.00000  Uiso   1.00
H499   H     0.79283   0.10891   0.67856   0.00000  Uiso   1.00
H500   H     0.79079   0.38779   0.81027   0.00000  Uiso   1.00
H501   H     0.79390   0.02796   0.67982   0.00000  Uiso   1.00
H502   H     0.79198   0.46891   0.81015   0.00000  Uiso   1.00
H503   H     0.75992   0.21777   0.52568   0.00000  Uiso   1.00
H504   H     0.87317   0.31196   0.96987   0.00000  Uiso   1.00
N505   N     0.83333   0.25001   0.62935   0.00000  Uiso   1.00
N506   N     0.83333   0.24999   0.87066   0.00000  Uiso   1.00
O507   O     0.83334   0.18573   0.79072   0.00000  Uiso   1.00
O508   O     0.83333   0.31428   0.70929   0.00000  Uiso   1.00
O509   O     0.83334   0.18573   0.70928   0.00000  Uiso   1.00
O510   O     0.83333   0.31427   0.79072   0.00000  Uiso   1.00
O511   O     0.75828   0.25000   0.78132   0.00000  Uiso   1.00
O512   O     0.90839   0.25001   0.71868   0.00000  Uiso   1.00
O513   O     0.75828   0.25000   0.69989   0.00000  Uiso   1.00
O514   O     0.90839   0.25000   0.80012   0.00000  Uiso   1.00
Br515  Br    0.89637   0.02106   0.84780   0.00000  Uiso   1.00
Br516  Br    0.89986   0.48383   0.67212   0.00000  Uiso   1.00
Br517  Br    0.94504   0.27891   0.53952   0.00000  Uiso   1.00
Br518  Br    0.79577   0.15502   0.97043   0.00000  Uiso   1.00
Br519  Br    0.91995   0.31345   0.64537   0.00000  Uiso   1.00
Br520  Br    0.75894   0.17602   0.85535   0.00000  Uiso   1.00
Br521  Br    0.74226   0.19060   0.62055   0.00000  Uiso   1.00
Br522  Br    0.90472   0.32658   0.87654   0.00000  Uiso   1.00
C523   C     0.16667   0.66504   0.75014   0.00000  Uiso   1.00
C524   C     0.16672   0.83497   0.74990   0.00000  Uiso   1.00
C525   C     0.21159   0.76601   0.55986   0.00000  Uiso   1.00
C526   C     0.14660   0.71181   0.94336   0.00000  Uiso   1.00
C527   C     0.20636   0.77133   0.60932   0.00000  Uiso   1.00
C528   C     0.14094   0.71630   0.89239   0.00000  Uiso   1.00
C529   C     0.12834   0.72824   0.59866   0.00000  Uiso   1.00
C530   C     0.19301   0.78231   0.89972   0.00000  Uiso   1.00
C531   C     0.12722   0.73074   0.54836   0.00000  Uiso   1.00
C532   C     0.19027   0.78323   0.94951   0.00000  Uiso   1.00
C533   C     0.16993   0.74758   0.52763   0.00000  Uiso   1.00
C534   C     0.16929   0.74706   0.97309   0.00000  Uiso   1.00
C535   C     0.06801   0.74964   0.73765   0.00000  Uiso   1.00
C536   C     0.26533   0.74998   0.76238   0.00000  Uiso   1.00
C537   C     0.01269   0.74876   0.73094   0.00000  Uiso   1.00
C538   C     0.32067   0.75018   0.76916   0.00000  Uiso   1.00
C539   C     0.19306   0.54875   0.79209   0.00000  Uiso   1.00
C540   C     0.19455   0.95335   0.71680   0.00000  Uiso   1.00
C541   C     0.19104   0.59479   0.79165   0.00000  Uiso   1.00
C542   C     0.19232   0.90720   0.71610   0.00000  Uiso   1.00
C543   C     0.16738   0.61677   0.75072   0.00000  Uiso   1.00
C544   C     0.16736   0.88330   0.74985   0.00000  Uiso   1.00
C545   C     0.14489   0.59243   0.71033   0.00000  Uiso   1.00
C546   C     0.14380   0.90582   0.78408   0.00000  Uiso   1.00
C547   C     0.14560   0.54645   0.71100   0.00000  Uiso   1.00
C548   C     0.14463   0.95188   0.78414   0.00000  Uiso   1.00
C549   C     0.17007   0.52437   0.75150   0.00000  Uiso   1.00
C550   C     0.17030   0.97590   0.75090   0.00000  Uiso   1.00
Cu551  Cu    0.16667   0.75000   0.79822   0.00000  Uiso   1.00
Cu552  Cu    0.16667   0.75001   0.70179   0.00000  Uiso   1.00
H553   H     0.32611   0.74681   0.69427   0.00000  Uiso   1.00
H554   H     0.00730   0.75178   0.80586   0.00000  Uiso   1.00
H555   H     0.20905   0.61345   0.82283   0.00000  Uiso   1.00
H556   H     0.21122   0.89010   0.68996   0.00000  Uiso   1.00
H557   H     0.12616   0.60891   0.67856   0.00000  Uiso   1.00
H558   H     0.12412   0.88779   0.81027   0.00000  Uiso   1.00
H559   H     0.12723   0.52796   0.67982   0.00000  Uiso   1.00
H560   H     0.12531   0.96891   0.81015   0.00000  Uiso   1.00
H561   H     0.09325   0.71777   0.52568   0.00000  Uiso   1.00
H562   H     0.20650   0.81196   0.96987   0.00000  Uiso   1.00
N563   N     0.16667   0.75001   0.62935   0.00000  Uiso   1.00
N564   N     0.16667   0.74999   0.87066   0.00000  Uiso   1.00
O565   O     0.16667   0.68573   0.79072   0.00000  Uiso   1.00
O566   O     0.16666   0.81428   0.70929   0.00000  Uiso   1.00
O567   O     0.16667   0.68573   0.70928   0.00000  Uiso   1.00
O568   O     0.16666   0.81427   0.79072   0.00000  Uiso   1.00
O569   O     0.09161   0.75000   0.78132   0.00000  Uiso   1.00
O570   O     0.24172   0.75001   0.71868   0.00000  Uiso   1.00
O571   O     0.09161   0.75000   0.69989   0.00000  Uiso   1.00
O572   O     0.24172   0.75000   0.80012   0.00000  Uiso   1.00
Br573  Br    0.22970   0.52106   0.84780   0.00000  Uiso   1.00
Br574  Br    0.23319   0.98383   0.67212   0.00000  Uiso   1.00
Br575  Br    0.27837   0.77891   0.53952   0.00000  Uiso   1.00
Br576  Br    0.12910   0.65502   0.97043   0.00000  Uiso   1.00
Br577  Br    0.25328   0.81345   0.64537   0.00000  Uiso   1.00
Br578  Br    0.09227   0.67602   0.85535   0.00000  Uiso   1.00
Br579  Br    0.07560   0.69060   0.62055   0.00000  Uiso   1.00
Br580  Br    0.23806   0.82658   0.87654   0.00000  Uiso   1.00
C581   C     0.50000   0.66504   0.75014   0.00000  Uiso   1.00
C582   C     0.50006   0.83497   0.74990   0.00000  Uiso   1.00
C583   C     0.54492   0.76601   0.55986   0.00000  Uiso   1.00
C584   C     0.47993   0.71181   0.94336   0.00000  Uiso   1.00
C585   C     0.53970   0.77133   0.60932   0.00000  Uiso   1.00
C586   C     0.47427   0.71630   0.89239   0.00000  Uiso   1.00
C587   C     0.46167   0.72824   0.59866   0.00000  Uiso   1.00
C588   C     0.52634   0.78231   0.89972   0.00000  Uiso   1.00
C589   C     0.46056   0.73074   0.54836   0.00000  Uiso   1.00
C590   C     0.52360   0.78323   0.94951   0.00000  Uiso   1.00
C591   C     0.50326   0.74758   0.52763   0.00000  Uiso   1.00
C592   C     0.50262   0.74706   0.97309   0.00000  Uiso   1.00
C593   C     0.40134   0.74964   0.73765   0.00000  Uiso   1.00
C594   C     0.59866   0.74998   0.76238   0.00000  Uiso   1.00
C595   C     0.34602   0.74876   0.73094   0.00000  Uiso   1.00
C596   C     0.65400   0.75018   0.76916   0.00000  Uiso   1.00
C597   C     0.52639   0.54875   0.79209   0.00000  Uiso   1.00
C598   C     0.52789   0.95335   0.71680   0.00000  Uiso   1.00
C599   C     0.52437   0.59479   0.79165   0.00000  Uiso   1.00
C600   C     0.52565   0.90720   0.71610   0.00000  Uiso   1.00
C601   C     0.50072   0.61677   0.75072   0.00000  Uiso   1.00
C602   C     0.50069   0.88330   0.74985   0.00000  Uiso   1.00
C603   C     0.47822   0.59243   0.71033   0.00000  Uiso   1.00
C604   C     0.47713   0.90582   0.78408   0.00000  Uiso   1.00
C605   C     0.47893   0.54645   0.71100   0.00000  Uiso   1.00
C606   C     0.47797   0.95188   0.78414   0.00000  Uiso   1.00
C607   C     0.50340   0.52437   0.75150   0.00000  Uiso   1.00
C608   C     0.50363   0.97590   0.75090   0.00000  Uiso   1.00
Cu609  Cu    0.50000   0.75000   0.79822   0.00000  Uiso   1.00
Cu610  Cu    0.50000   0.75001   0.70179   0.00000  Uiso   1.00
H611   H     0.65945   0.74681   0.69427   0.00000  Uiso   1.00
H612   H     0.34063   0.75178   0.80586   0.00000  Uiso   1.00
H613   H     0.54239   0.61345   0.82283   0.00000  Uiso   1.00
H614   H     0.54455   0.89010   0.68996   0.00000  Uiso   1.00
H615   H     0.45949   0.60891   0.67856   0.00000  Uiso   1.00
H616   H     0.45745   0.88779   0.81027   0.00000  Uiso   1.00
H617   H     0.46057   0.52796   0.67982   0.00000  Uiso   1.00
H618   H     0.45865   0.96891   0.81015   0.00000  Uiso   1.00
H619   H     0.42658   0.71777   0.52568   0.00000  Uiso   1.00
H620   H     0.53983   0.81196   0.96987   0.00000  Uiso   1.00
N621   N     0.50000   0.75001   0.62935   0.00000  Uiso   1.00
N622   N     0.50000   0.74999   0.87066   0.00000  Uiso   1.00
O623   O     0.50000   0.68573   0.79072   0.00000  Uiso   1.00
O624   O     0.50000   0.81428   0.70929   0.00000  Uiso   1.00
O625   O     0.50000   0.68573   0.70928   0.00000  Uiso   1.00
O626   O     0.50000   0.81427   0.79072   0.00000  Uiso   1.00
O627   O     0.42495   0.75000   0.78132   0.00000  Uiso   1.00
O628   O     0.57505   0.75001   0.71868   0.00000  Uiso   1.00
O629   O     0.42495   0.75000   0.69989   0.00000  Uiso   1.00
O630   O     0.57505   0.75000   0.80012   0.00000  Uiso   1.00
Br631  Br    0.56303   0.52106   0.84780   0.00000  Uiso   1.00
Br632  Br    0.56652   0.98383   0.67212   0.00000  Uiso   1.00
Br633  Br    0.61170   0.77891   0.53952   0.00000  Uiso   1.00
Br634  Br    0.46244   0.65502   0.97043   0.00000  Uiso   1.00
Br635  Br    0.58662   0.81345   0.64537   0.00000  Uiso   1.00
Br636  Br    0.42561   0.67602   0.85535   0.00000  Uiso   1.00
Br637  Br    0.40893   0.69060   0.62055   0.00000  Uiso   1.00
Br638  Br    0.57139   0.82658   0.87654   0.00000  Uiso   1.00
C639   C     0.83334   0.66504   0.75014   0.00000  Uiso   1.00
C640   C     0.83339   0.83497   0.74990   0.00000  Uiso   1.00
C641   C     0.87826   0.76601   0.55986   0.00000  Uiso   1.00
C642   C     0.81326   0.71181   0.94336   0.00000  Uiso   1.00
C643   C     0.87303   0.77133   0.60932   0.00000  Uiso   1.00
C644   C     0.80760   0.71630   0.89239   0.00000  Uiso   1.00
C645   C     0.79500   0.72824   0.59866   0.00000  Uiso   1.00
C646   C     0.85968   0.78231   0.89972   0.00000  Uiso   1.00
C647   C     0.79389   0.73074   0.54836   0.00000  Uiso   1.00
C648   C     0.85694   0.78323   0.94951   0.00000  Uiso   1.00
C649   C     0.83659   0.74758   0.52763   0.00000  Uiso   1.00
C650   C     0.83595   0.74706   0.97309   0.00000  Uiso   1.00
C651   C     0.73467   0.74964   0.73765   0.00000  Uiso   1.00
C652   C     0.93200   0.74998   0.76238   0.00000  Uiso   1.00
C653   C     0.67935   0.74876   0.73094   0.00000  Uiso   1.00
C654   C     0.98733   0.75018   0.76916   0.00000  Uiso   1.00
C655   C     0.85972   0.54875   0.79209   0.00000  Uiso   1.00
C656   C     0.86122   0.95335   0.71680   0.00000  Uiso   1.00
C657   C     0.85771   0.59479   0.79165   0.00000  Uiso   1.00
C658   C     0.85899   0.90720   0.71610   0.00000  Uiso   1.00
C659   C     0.83405   0.61677   0.75072   0.00000  Uiso   1.00
C660   C     0.83402   0.88330   0.74985   0.00000  Uiso   1.00
C661   C     0.81156   0.59243   0.71033   0.00000  Uiso   1.00
C662   C     0.81047   0.90582   0.78408   0.00000  Uiso   1.00
C663   C     0.81227   0.54645   0.71100   0.00000  Uiso   1.00
C664   C     0.81130   0.95188   0.78414   0.00000  Uiso   1.00
C665   C     0.83673   0.52437   0.75150   0.00000  Uiso   1.00
C666   C     0.83697   0.97590   0.75090   0.00000  Uiso   1.00
Cu667  Cu    0.83333   0.75000   0.79822   0.00000  Uiso   1.00
Cu668  Cu    0.83333   0.75001   0.70179   0.00000  Uiso   1.00
H669   H     0.99278   0.74681   0.69427   0.00000  Uiso   1.00
H670   H     0.67397   0.75178   0.80586   0.00000  Uiso   1.00
H671   H     0.87572   0.61345   0.82283   0.00000  Uiso   1.00
H672   H     0.87788   0.89010   0.68996   0.00000  Uiso   1.00
H673   H     0.79283   0.60891   0.67856   0.00000  Uiso   1.00
H674   H     0.79079   0.88779   0.81027   0.00000  Uiso   1.00
H675   H     0.79390   0.52796   0.67982   0.00000  Uiso   1.00
H676   H     0.79198   0.96891   0.81015   0.00000  Uiso   1.00
H677   H     0.75992   0.71777   0.52568   0.00000  Uiso   1.00
H678   H     0.87317   0.81196   0.96987   0.00000  Uiso   1.00
N679   N     0.83333   0.75001   0.62935   0.00000  Uiso   1.00
N680   N     0.83333   0.74999   0.87066   0.00000  Uiso   1.00
O681   O     0.83334   0.68573   0.79072   0.00000  Uiso   1.00
O682   O     0.83333   0.81428   0.70929   0.00000  Uiso   1.00
O683   O     0.83334   0.68573   0.70928   0.00000  Uiso   1.00
O684   O     0.83333   0.81427   0.79072   0.00000  Uiso   1.00
O685   O     0.75828   0.75000   0.78132   0.00000  Uiso   1.00
O686   O     0.90839   0.75001   0.71868   0.00000  Uiso   1.00
O687   O     0.75828   0.75000   0.69989   0.00000  Uiso   1.00
O688   O     0.90839   0.75000   0.80012   0.00000  Uiso   1.00
Br689  Br    0.89637   0.52106   0.84780   0.00000  Uiso   1.00
Br690  Br    0.89986   0.98383   0.67212   0.00000  Uiso   1.00
Br691  Br    0.94504   0.77891   0.53952   0.00000  Uiso   1.00
Br692  Br    0.79577   0.65502   0.97043   0.00000  Uiso   1.00
Br693  Br    0.91995   0.81345   0.64537   0.00000  Uiso   1.00
Br694  Br    0.75894   0.67602   0.85535   0.00000  Uiso   1.00
Br695  Br    0.74226   0.69060   0.62055   0.00000  Uiso   1.00
Br696  Br    0.90472   0.82658   0.87654   0.00000  Uiso   1.00
loop_
_geom_bond_atom_site_label_1
_geom_bond_atom_site_label_2
_geom_bond_distance
_geom_bond_site_symmetry_2
_ccdc_geom_bond_type
C1     C21     1.458   .     S
C1     O45     1.300   .     A
C1     O43     1.299   .     A
C2     C22     1.458   .     S
C2     O44     1.300   .     A
C2     O46     1.299   .     A
C3     Br53    1.934   .     S
C3     C11     1.415   .     A
C3     C5      1.420   .     A
C4     C12     1.415   .     A
C4     C6      1.420   .     A
C4     Br54    1.934   .     S
C5     Br55    1.923   .     S
C5     N41     1.381   .     A
C6     N42     1.381   .     A
C6     Br56    1.926   .     S
C7     Br57    1.915   .     S
C7     C9      1.405   .     A
C7     N41     1.377   .     A
C8     Br58    1.916   .     S
C8     N42     1.376   .     A
C8     C10     1.405   .     A
C9     C11     1.404   .     A
C9     H39     1.081   .     S
C10    C12     1.404   .     A
C10    H40     1.081   .     S
C11    C360    1.524   1_554 S
C12    C359    1.524   .     S
C13    C15     1.433   .     S
C13    O49     1.294   .     A
C13    O47     1.292   .     A
C14    C16     1.434   .     S
C14    O50     1.294   .     A
C14    O48     1.293   .     A
C15    C132    1.335   1_455 S
C15    H147    1.086   1_455 S
C16    C73     1.335   .     S
C16    H90     1.087   .     S
C17    Br51    1.920   .     S
C17    C19     1.393   .     A
C17    C27     1.408   .     A
C18    Br52    1.920   .     S
C18    C28     1.408   .     A
C18    C20     1.392   .     A
C19    C21     1.402   .     A
C19    H33     1.084   .     S
C20    H34     1.081   .     S
C20    C22     1.400   .     A
C21    C23     1.400   .     A
C22    C24     1.400   .     A
C23    C25     1.389   .     A
C23    H35     1.083   .     S
C24    H36     1.083   .     S
C24    C26     1.390   .     A
C25    C27     1.402   .     A
C25    H37     1.084   .     S
C26    C28     1.402   .     A
C26    H38     1.084   .     S
C27    C202    1.463   1_545 S
C28    C201    1.463   .     S
Cu29   Cu30    2.698   .     S
Cu29   N42     2.027   .     S
Cu29   O46     1.950   .     S
Cu29   O43     1.953   .     S
Cu29   O47     1.956   .     S
Cu29   O50     1.956   .     S
Cu30   N41     2.027   .     S
Cu30   O45     1.950   .     S
Cu30   O44     1.953   .     S
Cu30   O48     1.956   .     S
Cu30   O49     1.956   .     S
H31    C73     1.086   .     S
H32    C132    1.087   1_455 S
C59    C79     1.458   .     S
C59    O103    1.300   .     A
C59    O101    1.299   .     A
C60    C80     1.458   .     S
C60    O102    1.300   .     A
C60    O104    1.299   .     A
C61    Br111   1.934   .     S
C61    C69     1.415   .     A
C61    C63     1.420   .     A
C62    C70     1.415   .     A
C62    C64     1.420   .     A
C62    Br112   1.934   .     S
C63    Br113   1.923   .     S
C63    N99     1.381   .     A
C64    N100    1.381   .     A
C64    Br114   1.926   .     S
C65    Br115   1.915   .     S
C65    C67     1.405   .     A
C65    N99     1.377   .     A
C66    Br116   1.916   .     S
C66    N100    1.376   .     A
C66    C68     1.405   .     A
C67    C69     1.404   .     A
C67    H97     1.081   .     S
C68    C70     1.404   .     A
C68    H98     1.081   .     S
C69    C418    1.524   1_554 S
C70    C417    1.524   .     S
C71    C73     1.433   .     S
C71    O107    1.294   .     A
C71    O105    1.292   .     A
C72    C74     1.434   .     S
C72    O108    1.294   .     A
C72    O106    1.293   .     A
C74    C131    1.335   .     S
C74    H148    1.087   .     S
C75    Br109   1.920   .     S
C75    C77     1.393   .     A
C75    C85     1.408   .     A
C76    Br110   1.920   .     S
C76    C86     1.408   .     A
C76    C78     1.392   .     A
C77    C79     1.402   .     A
C77    H91     1.084   .     S
C78    H92     1.081   .     S
C78    C80     1.400   .     A
C79    C81     1.400   .     A
C80    C82     1.400   .     A
C81    C83     1.389   .     A
C81    H93     1.083   .     S
C82    H94     1.083   .     S
C82    C84     1.390   .     A
C83    C85     1.402   .     A
C83    H95     1.084   .     S
C84    C86     1.402   .     A
C84    H96     1.084   .     S
C85    C260    1.463   1_545 S
C86    C259    1.463   .     S
Cu87   Cu88    2.698   .     S
Cu87   N100    2.027   .     S
Cu87   O104    1.950   .     S
Cu87   O101    1.953   .     S
Cu87   O105    1.956   .     S
Cu87   O108    1.956   .     S
Cu88   N99     2.027   .     S
Cu88   O103    1.950   .     S
Cu88   O102    1.953   .     S
Cu88   O106    1.956   .     S
Cu88   O107    1.956   .     S
H89    C131    1.086   .     S
C117   C137    1.458   .     S
C117   O161    1.300   .     A
C117   O159    1.299   .     A
C118   C138    1.458   .     S
C118   O160    1.300   .     A
C118   O162    1.299   .     A
C119   Br169   1.934   .     S
C119   C127    1.415   .     A
C119   C121    1.420   .     A
C120   C128    1.415   .     A
C120   C122    1.420   .     A
C120   Br170   1.934   .     S
C121   Br171   1.923   .     S
C121   N157    1.381   .     A
C122   N158    1.381   .     A
C122   Br172   1.926   .     S
C123   Br173   1.915   .     S
C123   C125    1.405   .     A
C123   N157    1.377   .     A
C124   Br174   1.916   .     S
C124   N158    1.376   .     A
C124   C126    1.405   .     A
C125   C127    1.404   .     A
C125   H155    1.081   .     S
C126   C128    1.404   .     A
C126   H156    1.081   .     S
C127   C476    1.524   1_554 S
C128   C475    1.524   .     S
C129   C131    1.433   .     S
C129   O165    1.294   .     A
C129   O163    1.292   .     A
C130   C132    1.434   .     S
C130   O166    1.294   .     A
C130   O164    1.293   .     A
C132   C15     1.335   1_655 S
C132   H32     1.087   1_655 S
C133   Br167   1.920   .     S
C133   C135    1.393   .     A
C133   C143    1.408   .     A
C134   Br168   1.920   .     S
C134   C144    1.408   .     A
C134   C136    1.392   .     A
C135   C137    1.402   .     A
C135   H149    1.084   .     S
C136   H150    1.081   .     S
C136   C138    1.400   .     A
C137   C139    1.400   .     A
C138   C140    1.400   .     A
C139   C141    1.389   .     A
C139   H151    1.083   .     S
C140   H152    1.083   .     S
C140   C142    1.390   .     A
C141   C143    1.402   .     A
C141   H153    1.084   .     S
C142   C144    1.402   .     A
C142   H154    1.084   .     S
C143   C318    1.463   1_545 S
C144   C317    1.463   .     S
Cu145  Cu146   2.698   .     S
Cu145  N158    2.027   .     S
Cu145  O162    1.950   .     S
Cu145  O159    1.953   .     S
Cu145  O163    1.956   .     S
Cu145  O166    1.956   .     S
Cu146  N157    2.027   .     S
Cu146  O161    1.950   .     S
Cu146  O160    1.953   .     S
Cu146  O164    1.956   .     S
Cu146  O165    1.956   .     S
H147   C15     1.086   1_655 S
C175   C195    1.458   .     S
C175   O219    1.300   .     A
C175   O217    1.299   .     A
C176   C196    1.458   .     S
C176   O218    1.300   .     A
C176   O220    1.299   .     A
C177   Br227   1.934   .     S
C177   C185    1.415   .     A
C177   C179    1.420   .     A
C178   C186    1.415   .     A
C178   C180    1.420   .     A
C178   Br228   1.934   .     S
C179   Br229   1.923   .     S
C179   N215    1.381   .     A
C180   N216    1.381   .     A
C180   Br230   1.926   .     S
C181   Br231   1.915   .     S
C181   C183    1.405   .     A
C181   N215    1.377   .     A
C182   Br232   1.916   .     S
C182   N216    1.376   .     A
C182   C184    1.405   .     A
C183   C185    1.404   .     A
C183   H213    1.081   .     S
C184   C186    1.404   .     A
C184   H214    1.081   .     S
C185   C534    1.524   1_554 S
C186   C533    1.524   .     S
C187   C189    1.433   .     S
C187   O223    1.294   .     A
C187   O221    1.292   .     A
C188   C190    1.434   .     S
C188   O224    1.294   .     A
C188   O222    1.293   .     A
C189   C306    1.335   1_455 S
C189   H321    1.086   1_455 S
C190   C247    1.335   .     S
C190   H264    1.087   .     S
C191   Br225   1.920   .     S
C191   C193    1.393   .     A
C191   C201    1.408   .     A
C192   Br226   1.920   .     S
C192   C202    1.408   .     A
C192   C194    1.392   .     A
C193   C195    1.402   .     A
C193   H207    1.084   .     S
C194   H208    1.081   .     S
C194   C196    1.400   .     A
C195   C197    1.400   .     A
C196   C198    1.400   .     A
C197   C199    1.389   .     A
C197   H209    1.083   .     S
C198   H210    1.083   .     S
C198   C200    1.390   .     A
C199   C201    1.402   .     A
C199   H211    1.084   .     S
C200   C202    1.402   .     A
C200   H212    1.084   .     S
C202   C27     1.463   1_565 S
Cu203  Cu204   2.698   .     S
Cu203  N216    2.027   .     S
Cu203  O220    1.950   .     S
Cu203  O217    1.953   .     S
Cu203  O221    1.956   .     S
Cu203  O224    1.956   .     S
Cu204  N215    2.027   .     S
Cu204  O219    1.950   .     S
Cu204  O218    1.953   .     S
Cu204  O222    1.956   .     S
Cu204  O223    1.956   .     S
H205   C247    1.086   .     S
H206   C306    1.087   1_455 S
C233   C253    1.458   .     S
C233   O277    1.300   .     A
C233   O275    1.299   .     A
C234   C254    1.458   .     S
C234   O276    1.300   .     A
C234   O278    1.299   .     A
C235   Br285   1.934   .     S
C235   C243    1.415   .     A
C235   C237    1.420   .     A
C236   C244    1.415   .     A
C236   C238    1.420   .     A
C236   Br286   1.934   .     S
C237   Br287   1.923   .     S
C237   N273    1.381   .     A
C238   N274    1.381   .     A
C238   Br288   1.926   .     S
C239   Br289   1.915   .     S
C239   C241    1.405   .     A
C239   N273    1.377   .     A
C240   Br290   1.916   .     S
C240   N274    1.376   .     A
C240   C242    1.405   .     A
C241   C243    1.404   .     A
C241   H271    1.081   .     S
C242   C244    1.404   .     A
C242   H272    1.081   .     S
C243   C592    1.524   1_554 S
C244   C591    1.524   .     S
C245   C247    1.433   .     S
C245   O281    1.294   .     A
C245   O279    1.292   .     A
C246   C248    1.434   .     S
C246   O282    1.294   .     A
C246   O280    1.293   .     A
C248   C305    1.335   .     S
C248   H322    1.087   .     S
C249   Br283   1.920   .     S
C249   C251    1.393   .     A
C249   C259    1.408   .     A
C250   Br284   1.920   .     S
C250   C260    1.408   .     A
C250   C252    1.392   .     A
C251   C253    1.402   .     A
C251   H265    1.084   .     S
C252   H266    1.081   .     S
C252   C254    1.400   .     A
C253   C255    1.400   .     A
C254   C256    1.400   .     A
C255   C257    1.389   .     A
C255   H267    1.083   .     S
C256   H268    1.083   .     S
C256   C258    1.390   .     A
C257   C259    1.402   .     A
C257   H269    1.084   .     S
C258   C260    1.402   .     A
C258   H270    1.084   .     S
C260   C85     1.463   1_565 S
Cu261  Cu262   2.698   .     S
Cu261  N274    2.027   .     S
Cu261  O278    1.950   .     S
Cu261  O275    1.953   .     S
Cu261  O279    1.956   .     S
Cu261  O282    1.956   .     S
Cu262  N273    2.027   .     S
Cu262  O277    1.950   .     S
Cu262  O276    1.953   .     S
Cu262  O280    1.956   .     S
Cu262  O281    1.956   .     S
H263   C305    1.086   .     S
C291   C311    1.458   .     S
C291   O335    1.300   .     A
C291   O333    1.299   .     A
C292   C312    1.458   .     S
C292   O334    1.300   .     A
C292   O336    1.299   .     A
C293   Br343   1.934   .     S
C293   C301    1.415   .     A
C293   C295    1.420   .     A
C294   C302    1.415   .     A
C294   C296    1.420   .     A
C294   Br344   1.934   .     S
C295   Br345   1.923   .     S
C295   N331    1.381   .     A
C296   N332    1.381   .     A
C296   Br346   1.926   .     S
C297   Br347   1.915   .     S
C297   C299    1.405   .     A
C297   N331    1.377   .     A
C298   Br348   1.916   .     S
C298   N332    1.376   .     A
C298   C300    1.405   .     A
C299   C301    1.404   .     A
C299   H329    1.081   .     S
C300   C302    1.404   .     A
C300   H330    1.081   .     S
C301   C650    1.524   1_554 S
C302   C649    1.524   .     S
C303   C305    1.433   .     S
C303   O339    1.294   .     A
C303   O337    1.292   .     A
C304   C306    1.434   .     S
C304   O340    1.294   .     A
C304   O338    1.293   .     A
C306   C189    1.335   1_655 S
C306   H206    1.087   1_655 S
C307   Br341   1.920   .     S
C307   C309    1.393   .     A
C307   C317    1.408   .     A
C308   Br342   1.920   .     S
C308   C318    1.408   .     A
C308   C310    1.392   .     A
C309   C311    1.402   .     A
C309   H323    1.084   .     S
C310   H324    1.081   .     S
C310   C312    1.400   .     A
C311   C313    1.400   .     A
C312   C314    1.400   .     A
C313   C315    1.389   .     A
C313   H325    1.083   .     S
C314   H326    1.083   .     S
C314   C316    1.390   .     A
C315   C317    1.402   .     A
C315   H327    1.084   .     S
C316   C318    1.402   .     A
C316   H328    1.084   .     S
C318   C143    1.463   1_565 S
Cu319  Cu320   2.698   .     S
Cu319  N332    2.027   .     S
Cu319  O336    1.950   .     S
Cu319  O333    1.953   .     S
Cu319  O337    1.956   .     S
Cu319  O340    1.956   .     S
Cu320  N331    2.027   .     S
Cu320  O335    1.950   .     S
Cu320  O334    1.953   .     S
Cu320  O338    1.956   .     S
Cu320  O339    1.956   .     S
H321   C189    1.086   1_655 S
C349   C369    1.458   .     S
C349   O393    1.300   .     A
C349   O391    1.299   .     A
C350   C370    1.458   .     S
C350   O392    1.300   .     A
C350   O394    1.299   .     A
C351   Br401   1.934   .     S
C351   C359    1.415   .     A
C351   C353    1.420   .     A
C352   C360    1.415   .     A
C352   C354    1.420   .     A
C352   Br402   1.934   .     S
C353   Br403   1.923   .     S
C353   N389    1.381   .     A
C354   N390    1.381   .     A
C354   Br404   1.926   .     S
C355   Br405   1.915   .     S
C355   C357    1.405   .     A
C355   N389    1.377   .     A
C356   Br406   1.916   .     S
C356   N390    1.376   .     A
C356   C358    1.405   .     A
C357   C359    1.404   .     A
C357   H387    1.081   .     S
C358   C360    1.404   .     A
C358   H388    1.081   .     S
C360   C11     1.524   1_556 S
C361   C363    1.433   .     S
C361   O397    1.294   .     A
C361   O395    1.292   .     A
C362   C364    1.434   .     S
C362   O398    1.294   .     A
C362   O396    1.293   .     A
C363   C480    1.335   1_455 S
C363   H495    1.086   1_455 S
C364   C421    1.335   .     S
C364   H438    1.087   .     S
C365   Br399   1.920   .     S
C365   C367    1.393   .     A
C365   C375    1.408   .     A
C366   Br400   1.920   .     S
C366   C376    1.408   .     A
C366   C368    1.392   .     A
C367   C369    1.402   .     A
C367   H381    1.084   .     S
C368   H382    1.081   .     S
C368   C370    1.400   .     A
C369   C371    1.400   .     A
C370   C372    1.400   .     A
C371   C373    1.389   .     A
C371   H383    1.083   .     S
C372   H384    1.083   .     S
C372   C374    1.390   .     A
C373   C375    1.402   .     A
C373   H385    1.084   .     S
C374   C376    1.402   .     A
C374   H386    1.084   .     S
C375   C550    1.463   1_545 S
C376   C549    1.463   .     S
Cu377  Cu378   2.698   .     S
Cu377  N390    2.027   .     S
Cu377  O394    1.950   .     S
Cu377  O391    1.953   .     S
Cu377  O395    1.956   .     S
Cu377  O398    1.956   .     S
Cu378  N389    2.027   .     S
Cu378  O393    1.950   .     S
Cu378  O392    1.953   .     S
Cu378  O396    1.956   .     S
Cu378  O397    1.956   .     S
H379   C421    1.086   .     S
H380   C480    1.087   1_455 S
C407   C427    1.458   .     S
C407   O451    1.300   .     A
C407   O449    1.299   .     A
C408   C428    1.458   .     S
C408   O450    1.300   .     A
C408   O452    1.299   .     A
C409   Br459   1.934   .     S
C409   C417    1.415   .     A
C409   C411    1.420   .     A
C410   C418    1.415   .     A
C410   C412    1.420   .     A
C410   Br460   1.934   .     S
C411   Br461   1.923   .     S
C411   N447    1.381   .     A
C412   N448    1.381   .     A
C412   Br462   1.926   .     S
C413   Br463   1.915   .     S
C413   C415    1.405   .     A
C413   N447    1.377   .     A
C414   Br464   1.916   .     S
C414   N448    1.376   .     A
C414   C416    1.405   .     A
C415   C417    1.404   .     A
C415   H445    1.081   .     S
C416   C418    1.404   .     A
C416   H446    1.081   .     S
C418   C69     1.524   1_556 S
C419   C421    1.433   .     S
C419   O455    1.294   .     A
C419   O453    1.292   .     A
C420   C422    1.434   .     S
C420   O456    1.294   .     A
C420   O454    1.293   .     A
C422   C479    1.335   .     S
C422   H496    1.087   .     S
C423   Br457   1.920   .     S
C423   C425    1.393   .     A
C423   C433    1.408   .     A
C424   Br458   1.920   .     S
C424   C434    1.408   .     A
C424   C426    1.392   .     A
C425   C427    1.402   .     A
C425   H439    1.084   .     S
C426   H440    1.081   .     S
C426   C428    1.400   .     A
C427   C429    1.400   .     A
C428   C430    1.400   .     A
C429   C431    1.389   .     A
C429   H441    1.083   .     S
C430   H442    1.083   .     S
C430   C432    1.390   .     A
C431   C433    1.402   .     A
C431   H443    1.084   .     S
C432   C434    1.402   .     A
C432   H444    1.084   .     S
C433   C608    1.463   1_545 S
C434   C607    1.463   .     S
Cu435  Cu436   2.698   .     S
Cu435  N448    2.027   .     S
Cu435  O452    1.950   .     S
Cu435  O449    1.953   .     S
Cu435  O453    1.956   .     S
Cu435  O456    1.956   .     S
Cu436  N447    2.027   .     S
Cu436  O451    1.950   .     S
Cu436  O450    1.953   .     S
Cu436  O454    1.956   .     S
Cu436  O455    1.956   .     S
H437   C479    1.086   .     S
C465   C485    1.458   .     S
C465   O509    1.300   .     A
C465   O507    1.299   .     A
C466   C486    1.458   .     S
C466   O508    1.300   .     A
C466   O510    1.299   .     A
C467   Br517   1.934   .     S
C467   C475    1.415   .     A
C467   C469    1.420   .     A
C468   C476    1.415   .     A
C468   C470    1.420   .     A
C468   Br518   1.934   .     S
C469   Br519   1.923   .     S
C469   N505    1.381   .     A
C470   N506    1.381   .     A
C470   Br520   1.926   .     S
C471   Br521   1.915   .     S
C471   C473    1.405   .     A
C471   N505    1.377   .     A
C472   Br522   1.916   .     S
C472   N506    1.376   .     A
C472   C474    1.405   .     A
C473   C475    1.404   .     A
C473   H503    1.081   .     S
C474   C476    1.404   .     A
C474   H504    1.081   .     S
C476   C127    1.524   1_556 S
C477   C479    1.433   .     S
C477   O513    1.294   .     A
C477   O511    1.292   .     A
C478   C480    1.434   .     S
C478   O514    1.294   .     A
C478   O512    1.293   .     A
C480   C363    1.335   1_655 S
C480   H380    1.087   1_655 S
C481   Br515   1.920   .     S
C481   C483    1.393   .     A
C481   C491    1.408   .     A
C482   Br516   1.920   .     S
C482   C492    1.408   .     A
C482   C484    1.392   .     A
C483   C485    1.402   .     A
C483   H497    1.084   .     S
C484   H498    1.081   .     S
C484   C486    1.400   .     A
C485   C487    1.400   .     A
C486   C488    1.400   .     A
C487   C489    1.389   .     A
C487   H499    1.083   .     S
C488   H500    1.083   .     S
C488   C490    1.390   .     A
C489   C491    1.402   .     A
C489   H501    1.084   .     S
C490   C492    1.402   .     A
C490   H502    1.084   .     S
C491   C666    1.463   1_545 S
C492   C665    1.463   .     S
Cu493  Cu494   2.698   .     S
Cu493  N506    2.027   .     S
Cu493  O510    1.950   .     S
Cu493  O507    1.953   .     S
Cu493  O511    1.956   .     S
Cu493  O514    1.956   .     S
Cu494  N505    2.027   .     S
Cu494  O509    1.950   .     S
Cu494  O508    1.953   .     S
Cu494  O512    1.956   .     S
Cu494  O513    1.956   .     S
H495   C363    1.086   1_655 S
C523   C543    1.458   .     S
C523   O567    1.300   .     A
C523   O565    1.299   .     A
C524   C544    1.458   .     S
C524   O566    1.300   .     A
C524   O568    1.299   .     A
C525   Br575   1.934   .     S
C525   C533    1.415   .     A
C525   C527    1.420   .     A
C526   C534    1.415   .     A
C526   C528    1.420   .     A
C526   Br576   1.934   .     S
C527   Br577   1.923   .     S
C527   N563    1.381   .     A
C528   N564    1.381   .     A
C528   Br578   1.926   .     S
C529   Br579   1.915   .     S
C529   C531    1.405   .     A
C529   N563    1.377   .     A
C530   Br580   1.916   .     S
C530   N564    1.376   .     A
C530   C532    1.405   .     A
C531   C533    1.404   .     A
C531   H561    1.081   .     S
C532   C534    1.404   .     A
C532   H562    1.081   .     S
C534   C185    1.524   1_556 S
C535   C537    1.433   .     S
C535   O571    1.294   .     A
C535   O569    1.292   .     A
C536   C538    1.434   .     S
C536   O572    1.294   .     A
C536   O570    1.293   .     A
C537   C654    1.335   1_455 S
C537   H669    1.086   1_455 S
C538   C595    1.335   .     S
C538   H612    1.087   .     S
C539   Br573   1.920   .     S
C539   C541    1.393   .     A
C539   C549    1.408   .     A
C540   Br574   1.920   .     S
C540   C550    1.408   .     A
C540   C542    1.392   .     A
C541   C543    1.402   .     A
C541   H555    1.084   .     S
C542   H556    1.081   .     S
C542   C544    1.400   .     A
C543   C545    1.400   .     A
C544   C546    1.400   .     A
C545   C547    1.389   .     A
C545   H557    1.083   .     S
C546   H558    1.083   .     S
C546   C548    1.390   .     A
C547   C549    1.402   .     A
C547   H559    1.084   .     S
C548   C550    1.402   .     A
C548   H560    1.084   .     S
C550   C375    1.463   1_565 S
Cu551  Cu552   2.698   .     S
Cu551  N564    2.027   .     S
Cu551  O568    1.950   .     S
Cu551  O565    1.953   .     S
Cu551  O569    1.956   .     S
Cu551  O572    1.956   .     S
Cu552  N563    2.027   .     S
Cu552  O567    1.950   .     S
Cu552  O566    1.953   .     S
Cu552  O570    1.956   .     S
Cu552  O571    1.956   .     S
H553   C595    1.086   .     S
H554   C654    1.087   1_455 S
C581   C601    1.458   .     S
C581   O625    1.300   .     A
C581   O623    1.299   .     A
C582   C602    1.458   .     S
C582   O624    1.300   .     A
C582   O626    1.299   .     A
C583   Br633   1.934   .     S
C583   C591    1.415   .     A
C583   C585    1.420   .     A
C584   C592    1.415   .     A
C584   C586    1.420   .     A
C584   Br634   1.934   .     S
C585   Br635   1.923   .     S
C585   N621    1.381   .     A
C586   N622    1.381   .     A
C586   Br636   1.926   .     S
C587   Br637   1.915   .     S
C587   C589    1.405   .     A
C587   N621    1.377   .     A
C588   Br638   1.916   .     S
C588   N622    1.376   .     A
C588   C590    1.405   .     A
C589   C591    1.404   .     A
C589   H619    1.081   .     S
C590   C592    1.404   .     A
C590   H620    1.081   .     S
C592   C243    1.524   1_556 S
C593   C595    1.433   .     S
C593   O629    1.294   .     A
C593   O627    1.292   .     A
C594   C596    1.434   .     S
C594   O630    1.294   .     A
C594   O628    1.293   .     A
C596   C653    1.335   .     S
C596   H670    1.087   .     S
C597   Br631   1.920   .     S
C597   C599    1.393   .     A
C597   C607    1.408   .     A
C598   Br632   1.920   .     S
C598   C608    1.408   .     A
C598   C600    1.392   .     A
C599   C601    1.402   .     A
C599   H613    1.084   .     S
C600   H614    1.081   .     S
C600   C602    1.400   .     A
C601   C603    1.400   .     A
C602   C604    1.400   .     A
C603   C605    1.389   .     A
C603   H615    1.083   .     S
C604   H616    1.083   .     S
C604   C606    1.390   .     A
C605   C607    1.402   .     A
C605   H617    1.084   .     S
C606   C608    1.402   .     A
C606   H618    1.084   .     S
C608   C433    1.463   1_565 S
Cu609  Cu610   2.698   .     S
Cu609  N622    2.027   .     S
Cu609  O626    1.950   .     S
Cu609  O623    1.953   .     S
Cu609  O627    1.956   .     S
Cu609  O630    1.956   .     S
Cu610  N621    2.027   .     S
Cu610  O625    1.950   .     S
Cu610  O624    1.953   .     S
Cu610  O628    1.956   .     S
Cu610  O629    1.956   .     S
H611   C653    1.086   .     S
C639   C659    1.458   .     S
C639   O683    1.300   .     A
C639   O681    1.299   .     A
C640   C660    1.458   .     S
C640   O682    1.300   .     A
C640   O684    1.299   .     A
C641   Br691   1.934   .     S
C641   C649    1.415   .     A
C641   C643    1.420   .     A
C642   C650    1.415   .     A
C642   C644    1.420   .     A
C642   Br692   1.934   .     S
C643   Br693   1.923   .     S
C643   N679    1.381   .     A
C644   N680    1.381   .     A
C644   Br694   1.926   .     S
C645   Br695   1.915   .     S
C645   C647    1.405   .     A
C645   N679    1.377   .     A
C646   Br696   1.916   .     S
C646   N680    1.376   .     A
C646   C648    1.405   .     A
C647   C649    1.404   .     A
C647   H677    1.081   .     S
C648   C650    1.404   .     A
C648   H678    1.081   .     S
C650   C301    1.524   1_556 S
C651   C653    1.433   .     S
C651   O687    1.294   .     A
C651   O685    1.292   .     A
C652   C654    1.434   .     S
C652   O688    1.294   .     A
C652   O686    1.293   .     A
C654   C537    1.335   1_655 S
C654   H554    1.087   1_655 S
C655   Br689   1.920   .     S
C655   C657    1.393   .     A
C655   C665    1.408   .     A
C656   Br690   1.920   .     S
C656   C666    1.408   .     A
C656   C658    1.392   .     A
C657   C659    1.402   .     A
C657   H671    1.084   .     S
C658   H672    1.081   .     S
C658   C660    1.400   .     A
C659   C661    1.400   .     A
C660   C662    1.400   .     A
C661   C663    1.389   .     A
C661   H673    1.083   .     S
C662   H674    1.083   .     S
C662   C664    1.390   .     A
C663   C665    1.402   .     A
C663   H675    1.084   .     S
C664   C666    1.402   .     A
C664   H676    1.084   .     S
C666   C491    1.463   1_565 S
Cu667  Cu668   2.698   .     S
Cu667  N680    2.027   .     S
Cu667  O684    1.950   .     S
Cu667  O681    1.953   .     S
Cu667  O685    1.956   .     S
Cu667  O688    1.956   .     S
Cu668  N679    2.027   .     S
Cu668  O683    1.950   .     S
Cu668  O682    1.953   .     S
Cu668  O686    1.956   .     S
Cu668  O687    1.956   .     S
H669   C537    1.086   1_655 S
