data_str_m2_o2_o5_pcu_sym.89
_audit_creation_date              2020-01-03
_audit_creation_method            'Materials Studio'
_symmetry_space_group_name_H-M    'P1'
_symmetry_Int_Tables_number       1
_symmetry_cell_setting            triclinic
loop_
_symmetry_equiv_pos_as_xyz
  x,y,z
_cell_length_a                    30.3628
_cell_length_b                    27.6817
_cell_length_c                    27.2121
_cell_angle_alpha                 90.0008
_cell_angle_beta                  89.9980
_cell_angle_gamma                 90.0000
loop_
_atom_site_label
_atom_site_type_symbol
_atom_site_fract_x
_atom_site_fract_y
_atom_site_fract_z
_atom_site_U_iso_or_equiv
_atom_site_adp_type
_atom_site_occupancy
C1     C     0.16489   0.25000   0.16667   0.00000  Uiso   1.00
C2     C     0.26640   0.44643   0.20687   0.00000  Uiso   1.00
C3     C     0.25000   0.25000   0.07350   0.00000  Uiso   1.00
C4     C     0.25000   0.25000   0.25984   0.00000  Uiso   1.00
C5     C     0.25000   0.02721   0.16667   0.00000  Uiso   1.00
C6     C     0.25000   0.47279   0.16667   0.00000  Uiso   1.00
C7     C     0.25000   0.25000   0.02184   0.00000  Uiso   1.00
C8     C     0.25000   0.25000   0.31149   0.00000  Uiso   1.00
C9     C     0.04712   0.28763   0.14305   0.00000  Uiso   1.00
C10    C     0.45288   0.21233   0.14311   0.00000  Uiso   1.00
C11    C     0.45288   0.28767   0.19021   0.00000  Uiso   1.00
C12    C     0.33511   0.25000   0.16666   0.00000  Uiso   1.00
C13    C     0.04712   0.21237   0.19028   0.00000  Uiso   1.00
C14    C     0.09324   0.28819   0.14405   0.00000  Uiso   1.00
C15    C     0.40677   0.21177   0.14411   0.00000  Uiso   1.00
C16    C     0.40677   0.28823   0.18921   0.00000  Uiso   1.00
C17    C     0.09323   0.21181   0.18928   0.00000  Uiso   1.00
C18    C     0.11646   0.25000   0.16667   0.00000  Uiso   1.00
C19    C     0.38354   0.25000   0.16666   0.00000  Uiso   1.00
C20    C     0.02414   0.25000   0.16666   0.00000  Uiso   1.00
C21    C     0.47587   0.25000   0.16666   0.00000  Uiso   1.00
C22    C     0.01215   0.31401   0.07378   0.00000  Uiso   1.00
C23    C     0.23343   0.10447   0.20592   0.00000  Uiso   1.00
C24    C     0.48786   0.18582   0.07390   0.00000  Uiso   1.00
C25    C     0.48786   0.31418   0.25942   0.00000  Uiso   1.00
C26    C     0.01214   0.18599   0.25954   0.00000  Uiso   1.00
C27    C     0.23336   0.39553   0.12745   0.00000  Uiso   1.00
C28    C     0.26657   0.10447   0.12741   0.00000  Uiso   1.00
C29    C     0.26664   0.39553   0.20589   0.00000  Uiso   1.00
C30    C     0.23367   0.05357   0.20691   0.00000  Uiso   1.00
C31    C     0.23360   0.44642   0.12646   0.00000  Uiso   1.00
C32    C     0.26633   0.05357   0.12642   0.00000  Uiso   1.00
Cu33   Cu    0.25000   0.29821   0.16667   0.00000  Uiso   1.00
Cu34   Cu    0.25000   0.20178   0.16667   0.00000  Uiso   1.00
H35    H     0.21983   0.12392   0.23684   0.00000  Uiso   1.00
H36    H     0.03882   0.29570   0.05269   0.00000  Uiso   1.00
H37    H     0.00391   0.34777   0.05385   0.00000  Uiso   1.00
H38    H     0.01800   0.20847   0.07432   0.00000  Uiso   1.00
H39    H     0.46120   0.20410   0.05277   0.00000  Uiso   1.00
H40    H     0.49612   0.15203   0.05403   0.00000  Uiso   1.00
H41    H     0.01800   0.29154   0.25900   0.00000  Uiso   1.00
H42    H     0.46119   0.29590   0.28055   0.00000  Uiso   1.00
H43    H     0.49610   0.34797   0.27930   0.00000  Uiso   1.00
H44    H     0.48200   0.20863   0.25908   0.00000  Uiso   1.00
H45    H     0.03881   0.20430   0.28064   0.00000  Uiso   1.00
H46    H     0.21971   0.37608   0.09656   0.00000  Uiso   1.00
H47    H     0.00389   0.15223   0.27948   0.00000  Uiso   1.00
H48    H     0.10635   0.35963   0.13697   0.00000  Uiso   1.00
H49    H     0.10830   0.32795   0.08369   0.00000  Uiso   1.00
H50    H     0.39172   0.17190   0.08382   0.00000  Uiso   1.00
H51    H     0.39366   0.14031   0.13715   0.00000  Uiso   1.00
H52    H     0.39365   0.35969   0.19616   0.00000  Uiso   1.00
H53    H     0.39172   0.32811   0.24950   0.00000  Uiso   1.00
H54    H     0.10829   0.17204   0.24964   0.00000  Uiso   1.00
H55    H     0.10635   0.14037   0.19636   0.00000  Uiso   1.00
H56    H     0.28017   0.12391   0.09650   0.00000  Uiso   1.00
H57    H     0.28029   0.37608   0.23677   0.00000  Uiso   1.00
H58    H     0.22041   0.03493   0.23862   0.00000  Uiso   1.00
H59    H     0.22028   0.46507   0.09478   0.00000  Uiso   1.00
H60    H     0.27959   0.03493   0.09472   0.00000  Uiso   1.00
H61    H     0.27972   0.46507   0.23855   0.00000  Uiso   1.00
H62    H     0.48202   0.29137   0.07424   0.00000  Uiso   1.00
N63    N     0.25000   0.12934   0.16667   0.00000  Uiso   1.00
N64    N     0.25000   0.37065   0.16667   0.00000  Uiso   1.00
N65    N     0.11656   0.32718   0.12095   0.00000  Uiso   1.00
N66    N     0.38345   0.17274   0.12108   0.00000  Uiso   1.00
N67    N     0.38345   0.32726   0.21224   0.00000  Uiso   1.00
N68    N     0.11656   0.17282   0.21238   0.00000  Uiso   1.00
O69    O     0.18573   0.29071   0.16667   0.00000  Uiso   1.00
O70    O     0.47510   0.17372   0.12222   0.00000  Uiso   1.00
O71    O     0.47510   0.32628   0.21111   0.00000  Uiso   1.00
O72    O     0.02490   0.17380   0.21125   0.00000  Uiso   1.00
O73    O     0.31427   0.20928   0.16666   0.00000  Uiso   1.00
O74    O     0.31427   0.29071   0.16666   0.00000  Uiso   1.00
O75    O     0.18573   0.20928   0.16667   0.00000  Uiso   1.00
O76    O     0.25000   0.29071   0.09613   0.00000  Uiso   1.00
O77    O     0.25000   0.20929   0.23720   0.00000  Uiso   1.00
O78    O     0.25000   0.29071   0.23720   0.00000  Uiso   1.00
O79    O     0.25000   0.20929   0.09613   0.00000  Uiso   1.00
O80    O     0.02491   0.32620   0.12208   0.00000  Uiso   1.00
C81    C     0.66489   0.25000   0.16667   0.00000  Uiso   1.00
C82    C     0.76640   0.44643   0.20687   0.00000  Uiso   1.00
C83    C     0.75000   0.25000   0.07350   0.00000  Uiso   1.00
C84    C     0.75000   0.25000   0.25984   0.00000  Uiso   1.00
C85    C     0.75000   0.02721   0.16667   0.00000  Uiso   1.00
C86    C     0.75000   0.47279   0.16667   0.00000  Uiso   1.00
C87    C     0.75000   0.25000   0.02184   0.00000  Uiso   1.00
C88    C     0.75000   0.25000   0.31149   0.00000  Uiso   1.00
C89    C     0.54712   0.28763   0.14305   0.00000  Uiso   1.00
C90    C     0.95288   0.21233   0.14311   0.00000  Uiso   1.00
C91    C     0.95288   0.28767   0.19021   0.00000  Uiso   1.00
C92    C     0.83511   0.25000   0.16666   0.00000  Uiso   1.00
C93    C     0.54712   0.21237   0.19028   0.00000  Uiso   1.00
C94    C     0.59324   0.28819   0.14405   0.00000  Uiso   1.00
C95    C     0.90677   0.21177   0.14411   0.00000  Uiso   1.00
C96    C     0.90677   0.28823   0.18921   0.00000  Uiso   1.00
C97    C     0.59323   0.21181   0.18928   0.00000  Uiso   1.00
C98    C     0.61646   0.25000   0.16667   0.00000  Uiso   1.00
C99    C     0.88354   0.25000   0.16666   0.00000  Uiso   1.00
C100   C     0.52414   0.25000   0.16666   0.00000  Uiso   1.00
C101   C     0.97587   0.25000   0.16666   0.00000  Uiso   1.00
C102   C     0.51215   0.31401   0.07378   0.00000  Uiso   1.00
C103   C     0.73343   0.10447   0.20592   0.00000  Uiso   1.00
C104   C     0.98786   0.18582   0.07390   0.00000  Uiso   1.00
C105   C     0.98786   0.31418   0.25942   0.00000  Uiso   1.00
C106   C     0.51214   0.18599   0.25954   0.00000  Uiso   1.00
C107   C     0.73336   0.39553   0.12745   0.00000  Uiso   1.00
C108   C     0.76657   0.10447   0.12741   0.00000  Uiso   1.00
C109   C     0.76664   0.39553   0.20589   0.00000  Uiso   1.00
C110   C     0.73367   0.05357   0.20691   0.00000  Uiso   1.00
C111   C     0.73360   0.44642   0.12646   0.00000  Uiso   1.00
C112   C     0.76633   0.05357   0.12642   0.00000  Uiso   1.00
Cu113  Cu    0.75000   0.29821   0.16667   0.00000  Uiso   1.00
Cu114  Cu    0.75000   0.20178   0.16667   0.00000  Uiso   1.00
H115   H     0.71983   0.12392   0.23684   0.00000  Uiso   1.00
H116   H     0.53882   0.29570   0.05269   0.00000  Uiso   1.00
H117   H     0.50391   0.34777   0.05385   0.00000  Uiso   1.00
H118   H     0.51800   0.20847   0.07432   0.00000  Uiso   1.00
H119   H     0.96120   0.20410   0.05277   0.00000  Uiso   1.00
H120   H     0.99612   0.15203   0.05403   0.00000  Uiso   1.00
H121   H     0.51800   0.29154   0.25900   0.00000  Uiso   1.00
H122   H     0.96119   0.29590   0.28055   0.00000  Uiso   1.00
H123   H     0.99610   0.34797   0.27930   0.00000  Uiso   1.00
H124   H     0.98200   0.20863   0.25908   0.00000  Uiso   1.00
H125   H     0.53881   0.20430   0.28064   0.00000  Uiso   1.00
H126   H     0.71971   0.37608   0.09656   0.00000  Uiso   1.00
H127   H     0.50389   0.15223   0.27948   0.00000  Uiso   1.00
H128   H     0.60635   0.35963   0.13697   0.00000  Uiso   1.00
H129   H     0.60830   0.32795   0.08369   0.00000  Uiso   1.00
H130   H     0.89172   0.17190   0.08382   0.00000  Uiso   1.00
H131   H     0.89366   0.14031   0.13715   0.00000  Uiso   1.00
H132   H     0.89365   0.35969   0.19616   0.00000  Uiso   1.00
H133   H     0.89172   0.32811   0.24950   0.00000  Uiso   1.00
H134   H     0.60829   0.17204   0.24964   0.00000  Uiso   1.00
H135   H     0.60635   0.14037   0.19636   0.00000  Uiso   1.00
H136   H     0.78017   0.12391   0.09650   0.00000  Uiso   1.00
H137   H     0.78029   0.37608   0.23677   0.00000  Uiso   1.00
H138   H     0.72041   0.03493   0.23862   0.00000  Uiso   1.00
H139   H     0.72028   0.46507   0.09478   0.00000  Uiso   1.00
H140   H     0.77959   0.03493   0.09472   0.00000  Uiso   1.00
H141   H     0.77972   0.46507   0.23855   0.00000  Uiso   1.00
H142   H     0.98202   0.29137   0.07424   0.00000  Uiso   1.00
N143   N     0.75000   0.12934   0.16667   0.00000  Uiso   1.00
N144   N     0.75000   0.37065   0.16667   0.00000  Uiso   1.00
N145   N     0.61656   0.32718   0.12095   0.00000  Uiso   1.00
N146   N     0.88345   0.17274   0.12108   0.00000  Uiso   1.00
N147   N     0.88345   0.32726   0.21224   0.00000  Uiso   1.00
N148   N     0.61656   0.17282   0.21238   0.00000  Uiso   1.00
O149   O     0.68573   0.29071   0.16667   0.00000  Uiso   1.00
O150   O     0.97510   0.17372   0.12222   0.00000  Uiso   1.00
O151   O     0.97510   0.32628   0.21111   0.00000  Uiso   1.00
O152   O     0.52490   0.17380   0.21125   0.00000  Uiso   1.00
O153   O     0.81427   0.20928   0.16666   0.00000  Uiso   1.00
O154   O     0.81427   0.29071   0.16666   0.00000  Uiso   1.00
O155   O     0.68573   0.20928   0.16667   0.00000  Uiso   1.00
O156   O     0.75000   0.29071   0.09613   0.00000  Uiso   1.00
O157   O     0.75000   0.20929   0.23720   0.00000  Uiso   1.00
O158   O     0.75000   0.29071   0.23720   0.00000  Uiso   1.00
O159   O     0.75000   0.20929   0.09613   0.00000  Uiso   1.00
O160   O     0.52491   0.32620   0.12208   0.00000  Uiso   1.00
C161   C     0.16489   0.75000   0.16667   0.00000  Uiso   1.00
C162   C     0.26640   0.94643   0.20687   0.00000  Uiso   1.00
C163   C     0.25000   0.75000   0.07350   0.00000  Uiso   1.00
C164   C     0.25000   0.75000   0.25984   0.00000  Uiso   1.00
C165   C     0.25000   0.52721   0.16667   0.00000  Uiso   1.00
C166   C     0.25000   0.97279   0.16667   0.00000  Uiso   1.00
C167   C     0.25000   0.75000   0.02184   0.00000  Uiso   1.00
C168   C     0.25000   0.75000   0.31149   0.00000  Uiso   1.00
C169   C     0.04712   0.78763   0.14305   0.00000  Uiso   1.00
C170   C     0.45288   0.71233   0.14311   0.00000  Uiso   1.00
C171   C     0.45288   0.78767   0.19021   0.00000  Uiso   1.00
C172   C     0.33511   0.75000   0.16666   0.00000  Uiso   1.00
C173   C     0.04712   0.71237   0.19028   0.00000  Uiso   1.00
C174   C     0.09324   0.78819   0.14405   0.00000  Uiso   1.00
C175   C     0.40677   0.71177   0.14411   0.00000  Uiso   1.00
C176   C     0.40677   0.78823   0.18921   0.00000  Uiso   1.00
C177   C     0.09323   0.71181   0.18928   0.00000  Uiso   1.00
C178   C     0.11646   0.75000   0.16667   0.00000  Uiso   1.00
C179   C     0.38354   0.75000   0.16666   0.00000  Uiso   1.00
C180   C     0.02414   0.75000   0.16666   0.00000  Uiso   1.00
C181   C     0.47587   0.75000   0.16666   0.00000  Uiso   1.00
C182   C     0.01215   0.81401   0.07378   0.00000  Uiso   1.00
C183   C     0.23343   0.60447   0.20592   0.00000  Uiso   1.00
C184   C     0.48786   0.68582   0.07390   0.00000  Uiso   1.00
C185   C     0.48786   0.81418   0.25942   0.00000  Uiso   1.00
C186   C     0.01214   0.68599   0.25954   0.00000  Uiso   1.00
C187   C     0.23336   0.89553   0.12745   0.00000  Uiso   1.00
C188   C     0.26657   0.60447   0.12741   0.00000  Uiso   1.00
C189   C     0.26664   0.89553   0.20589   0.00000  Uiso   1.00
C190   C     0.23367   0.55357   0.20691   0.00000  Uiso   1.00
C191   C     0.23360   0.94642   0.12646   0.00000  Uiso   1.00
C192   C     0.26633   0.55357   0.12642   0.00000  Uiso   1.00
Cu193  Cu    0.25000   0.79821   0.16667   0.00000  Uiso   1.00
Cu194  Cu    0.25000   0.70178   0.16667   0.00000  Uiso   1.00
H195   H     0.21983   0.62392   0.23684   0.00000  Uiso   1.00
H196   H     0.03882   0.79570   0.05269   0.00000  Uiso   1.00
H197   H     0.00391   0.84777   0.05385   0.00000  Uiso   1.00
H198   H     0.01800   0.70847   0.07432   0.00000  Uiso   1.00
H199   H     0.46120   0.70410   0.05277   0.00000  Uiso   1.00
H200   H     0.49612   0.65203   0.05403   0.00000  Uiso   1.00
H201   H     0.01800   0.79154   0.25900   0.00000  Uiso   1.00
H202   H     0.46119   0.79590   0.28055   0.00000  Uiso   1.00
H203   H     0.49610   0.84797   0.27930   0.00000  Uiso   1.00
H204   H     0.48200   0.70863   0.25908   0.00000  Uiso   1.00
H205   H     0.03881   0.70430   0.28064   0.00000  Uiso   1.00
H206   H     0.21971   0.87608   0.09656   0.00000  Uiso   1.00
H207   H     0.00389   0.65223   0.27948   0.00000  Uiso   1.00
H208   H     0.10635   0.85963   0.13697   0.00000  Uiso   1.00
H209   H     0.10830   0.82795   0.08369   0.00000  Uiso   1.00
H210   H     0.39172   0.67190   0.08382   0.00000  Uiso   1.00
H211   H     0.39366   0.64031   0.13715   0.00000  Uiso   1.00
H212   H     0.39365   0.85969   0.19616   0.00000  Uiso   1.00
H213   H     0.39172   0.82811   0.24950   0.00000  Uiso   1.00
H214   H     0.10829   0.67204   0.24964   0.00000  Uiso   1.00
H215   H     0.10635   0.64037   0.19636   0.00000  Uiso   1.00
H216   H     0.28017   0.62391   0.09650   0.00000  Uiso   1.00
H217   H     0.28029   0.87608   0.23677   0.00000  Uiso   1.00
H218   H     0.22041   0.53493   0.23862   0.00000  Uiso   1.00
H219   H     0.22028   0.96507   0.09478   0.00000  Uiso   1.00
H220   H     0.27959   0.53493   0.09472   0.00000  Uiso   1.00
H221   H     0.27972   0.96507   0.23855   0.00000  Uiso   1.00
H222   H     0.48202   0.79137   0.07424   0.00000  Uiso   1.00
N223   N     0.25000   0.62934   0.16667   0.00000  Uiso   1.00
N224   N     0.25000   0.87065   0.16667   0.00000  Uiso   1.00
N225   N     0.11656   0.82718   0.12095   0.00000  Uiso   1.00
N226   N     0.38345   0.67274   0.12108   0.00000  Uiso   1.00
N227   N     0.38345   0.82726   0.21224   0.00000  Uiso   1.00
N228   N     0.11656   0.67282   0.21238   0.00000  Uiso   1.00
O229   O     0.18573   0.79071   0.16667   0.00000  Uiso   1.00
O230   O     0.47510   0.67372   0.12222   0.00000  Uiso   1.00
O231   O     0.47510   0.82628   0.21111   0.00000  Uiso   1.00
O232   O     0.02490   0.67380   0.21125   0.00000  Uiso   1.00
O233   O     0.31427   0.70928   0.16666   0.00000  Uiso   1.00
O234   O     0.31427   0.79071   0.16666   0.00000  Uiso   1.00
O235   O     0.18573   0.70928   0.16667   0.00000  Uiso   1.00
O236   O     0.25000   0.79071   0.09613   0.00000  Uiso   1.00
O237   O     0.25000   0.70929   0.23720   0.00000  Uiso   1.00
O238   O     0.25000   0.79071   0.23720   0.00000  Uiso   1.00
O239   O     0.25000   0.70929   0.09613   0.00000  Uiso   1.00
O240   O     0.02491   0.82620   0.12208   0.00000  Uiso   1.00
C241   C     0.66489   0.75000   0.16667   0.00000  Uiso   1.00
C242   C     0.76640   0.94643   0.20687   0.00000  Uiso   1.00
C243   C     0.75000   0.75000   0.07350   0.00000  Uiso   1.00
C244   C     0.75000   0.75000   0.25984   0.00000  Uiso   1.00
C245   C     0.75000   0.52721   0.16667   0.00000  Uiso   1.00
C246   C     0.75000   0.97279   0.16667   0.00000  Uiso   1.00
C247   C     0.75000   0.75000   0.02184   0.00000  Uiso   1.00
C248   C     0.75000   0.75000   0.31149   0.00000  Uiso   1.00
C249   C     0.54712   0.78763   0.14305   0.00000  Uiso   1.00
C250   C     0.95288   0.71233   0.14311   0.00000  Uiso   1.00
C251   C     0.95288   0.78767   0.19021   0.00000  Uiso   1.00
C252   C     0.83511   0.75000   0.16666   0.00000  Uiso   1.00
C253   C     0.54712   0.71237   0.19028   0.00000  Uiso   1.00
C254   C     0.59324   0.78819   0.14405   0.00000  Uiso   1.00
C255   C     0.90677   0.71177   0.14411   0.00000  Uiso   1.00
C256   C     0.90677   0.78823   0.18921   0.00000  Uiso   1.00
C257   C     0.59323   0.71181   0.18928   0.00000  Uiso   1.00
C258   C     0.61646   0.75000   0.16667   0.00000  Uiso   1.00
C259   C     0.88354   0.75000   0.16666   0.00000  Uiso   1.00
C260   C     0.52414   0.75000   0.16666   0.00000  Uiso   1.00
C261   C     0.97587   0.75000   0.16666   0.00000  Uiso   1.00
C262   C     0.51215   0.81401   0.07378   0.00000  Uiso   1.00
C263   C     0.73343   0.60447   0.20592   0.00000  Uiso   1.00
C264   C     0.98786   0.68582   0.07390   0.00000  Uiso   1.00
C265   C     0.98786   0.81418   0.25942   0.00000  Uiso   1.00
C266   C     0.51214   0.68599   0.25954   0.00000  Uiso   1.00
C267   C     0.73336   0.89553   0.12745   0.00000  Uiso   1.00
C268   C     0.76657   0.60447   0.12741   0.00000  Uiso   1.00
C269   C     0.76664   0.89553   0.20589   0.00000  Uiso   1.00
C270   C     0.73367   0.55357   0.20691   0.00000  Uiso   1.00
C271   C     0.73360   0.94642   0.12646   0.00000  Uiso   1.00
C272   C     0.76633   0.55357   0.12642   0.00000  Uiso   1.00
Cu273  Cu    0.75000   0.79821   0.16667   0.00000  Uiso   1.00
Cu274  Cu    0.75000   0.70178   0.16667   0.00000  Uiso   1.00
H275   H     0.71983   0.62392   0.23684   0.00000  Uiso   1.00
H276   H     0.53882   0.79570   0.05269   0.00000  Uiso   1.00
H277   H     0.50391   0.84777   0.05385   0.00000  Uiso   1.00
H278   H     0.51800   0.70847   0.07432   0.00000  Uiso   1.00
H279   H     0.96120   0.70410   0.05277   0.00000  Uiso   1.00
H280   H     0.99612   0.65203   0.05403   0.00000  Uiso   1.00
H281   H     0.51800   0.79154   0.25900   0.00000  Uiso   1.00
H282   H     0.96119   0.79590   0.28055   0.00000  Uiso   1.00
H283   H     0.99610   0.84797   0.27930   0.00000  Uiso   1.00
H284   H     0.98200   0.70863   0.25908   0.00000  Uiso   1.00
H285   H     0.53881   0.70430   0.28064   0.00000  Uiso   1.00
H286   H     0.71971   0.87608   0.09656   0.00000  Uiso   1.00
H287   H     0.50389   0.65223   0.27948   0.00000  Uiso   1.00
H288   H     0.60635   0.85963   0.13697   0.00000  Uiso   1.00
H289   H     0.60830   0.82795   0.08369   0.00000  Uiso   1.00
H290   H     0.89172   0.67190   0.08382   0.00000  Uiso   1.00
H291   H     0.89366   0.64031   0.13715   0.00000  Uiso   1.00
H292   H     0.89365   0.85969   0.19616   0.00000  Uiso   1.00
H293   H     0.89172   0.82811   0.24950   0.00000  Uiso   1.00
H294   H     0.60829   0.67204   0.24964   0.00000  Uiso   1.00
H295   H     0.60635   0.64037   0.19636   0.00000  Uiso   1.00
H296   H     0.78017   0.62391   0.09650   0.00000  Uiso   1.00
H297   H     0.78029   0.87608   0.23677   0.00000  Uiso   1.00
H298   H     0.72041   0.53493   0.23862   0.00000  Uiso   1.00
H299   H     0.72028   0.96507   0.09478   0.00000  Uiso   1.00
H300   H     0.77959   0.53493   0.09472   0.00000  Uiso   1.00
H301   H     0.77972   0.96507   0.23855   0.00000  Uiso   1.00
H302   H     0.98202   0.79137   0.07424   0.00000  Uiso   1.00
N303   N     0.75000   0.62934   0.16667   0.00000  Uiso   1.00
N304   N     0.75000   0.87065   0.16667   0.00000  Uiso   1.00
N305   N     0.61656   0.82718   0.12095   0.00000  Uiso   1.00
N306   N     0.88345   0.67274   0.12108   0.00000  Uiso   1.00
N307   N     0.88345   0.82726   0.21224   0.00000  Uiso   1.00
N308   N     0.61656   0.67282   0.21238   0.00000  Uiso   1.00
O309   O     0.68573   0.79071   0.16667   0.00000  Uiso   1.00
O310   O     0.97510   0.67372   0.12222   0.00000  Uiso   1.00
O311   O     0.97510   0.82628   0.21111   0.00000  Uiso   1.00
O312   O     0.52490   0.67380   0.21125   0.00000  Uiso   1.00
O313   O     0.81427   0.70928   0.16666   0.00000  Uiso   1.00
O314   O     0.81427   0.79071   0.16666   0.00000  Uiso   1.00
O315   O     0.68573   0.70928   0.16667   0.00000  Uiso   1.00
O316   O     0.75000   0.79071   0.09613   0.00000  Uiso   1.00
O317   O     0.75000   0.70929   0.23720   0.00000  Uiso   1.00
O318   O     0.75000   0.79071   0.23720   0.00000  Uiso   1.00
O319   O     0.75000   0.70929   0.09613   0.00000  Uiso   1.00
O320   O     0.52491   0.82620   0.12208   0.00000  Uiso   1.00
C321   C     0.16489   0.25000   0.50000   0.00000  Uiso   1.00
C322   C     0.26640   0.44643   0.54021   0.00000  Uiso   1.00
C323   C     0.25000   0.25000   0.40683   0.00000  Uiso   1.00
C324   C     0.25000   0.25000   0.59317   0.00000  Uiso   1.00
C325   C     0.25000   0.02721   0.50000   0.00000  Uiso   1.00
C326   C     0.25000   0.47279   0.50000   0.00000  Uiso   1.00
C327   C     0.25000   0.25000   0.35517   0.00000  Uiso   1.00
C328   C     0.25000   0.25000   0.64483   0.00000  Uiso   1.00
C329   C     0.04712   0.28763   0.47638   0.00000  Uiso   1.00
C330   C     0.45288   0.21233   0.47644   0.00000  Uiso   1.00
C331   C     0.45288   0.28767   0.52355   0.00000  Uiso   1.00
C332   C     0.33511   0.25000   0.50000   0.00000  Uiso   1.00
C333   C     0.04712   0.21237   0.52362   0.00000  Uiso   1.00
C334   C     0.09324   0.28819   0.47738   0.00000  Uiso   1.00
C335   C     0.40677   0.21177   0.47745   0.00000  Uiso   1.00
C336   C     0.40677   0.28823   0.52254   0.00000  Uiso   1.00
C337   C     0.09323   0.21181   0.52262   0.00000  Uiso   1.00
C338   C     0.11646   0.25000   0.50000   0.00000  Uiso   1.00
C339   C     0.38354   0.25000   0.50000   0.00000  Uiso   1.00
C340   C     0.02414   0.25000   0.50000   0.00000  Uiso   1.00
C341   C     0.47587   0.25000   0.50000   0.00000  Uiso   1.00
C342   C     0.01215   0.31401   0.40712   0.00000  Uiso   1.00
C343   C     0.23343   0.10447   0.53926   0.00000  Uiso   1.00
C344   C     0.48786   0.18582   0.40723   0.00000  Uiso   1.00
C345   C     0.48786   0.31418   0.59276   0.00000  Uiso   1.00
C346   C     0.01214   0.18599   0.59288   0.00000  Uiso   1.00
C347   C     0.23336   0.39553   0.46078   0.00000  Uiso   1.00
C348   C     0.26657   0.10447   0.46074   0.00000  Uiso   1.00
C349   C     0.26664   0.39553   0.53922   0.00000  Uiso   1.00
C350   C     0.23367   0.05357   0.54025   0.00000  Uiso   1.00
C351   C     0.23360   0.44642   0.45979   0.00000  Uiso   1.00
C352   C     0.26633   0.05357   0.45975   0.00000  Uiso   1.00
Cu353  Cu    0.25000   0.29821   0.50000   0.00000  Uiso   1.00
Cu354  Cu    0.25000   0.20178   0.50000   0.00000  Uiso   1.00
H355   H     0.21983   0.12392   0.57017   0.00000  Uiso   1.00
H356   H     0.03882   0.29570   0.38603   0.00000  Uiso   1.00
H357   H     0.00391   0.34777   0.38718   0.00000  Uiso   1.00
H358   H     0.01800   0.20847   0.40765   0.00000  Uiso   1.00
H359   H     0.46120   0.20410   0.38611   0.00000  Uiso   1.00
H360   H     0.49612   0.15203   0.38736   0.00000  Uiso   1.00
H361   H     0.01800   0.29154   0.59234   0.00000  Uiso   1.00
H362   H     0.46119   0.29590   0.61388   0.00000  Uiso   1.00
H363   H     0.49610   0.34797   0.61263   0.00000  Uiso   1.00
H364   H     0.48200   0.20863   0.59242   0.00000  Uiso   1.00
H365   H     0.03881   0.20430   0.61397   0.00000  Uiso   1.00
H366   H     0.21971   0.37608   0.42990   0.00000  Uiso   1.00
H367   H     0.00389   0.15223   0.61281   0.00000  Uiso   1.00
H368   H     0.10635   0.35963   0.47030   0.00000  Uiso   1.00
H369   H     0.10830   0.32795   0.41702   0.00000  Uiso   1.00
H370   H     0.39172   0.17190   0.41715   0.00000  Uiso   1.00
H371   H     0.39366   0.14031   0.47049   0.00000  Uiso   1.00
H372   H     0.39365   0.35969   0.52949   0.00000  Uiso   1.00
H373   H     0.39172   0.32811   0.58283   0.00000  Uiso   1.00
H374   H     0.10829   0.17204   0.58298   0.00000  Uiso   1.00
H375   H     0.10635   0.14037   0.52969   0.00000  Uiso   1.00
H376   H     0.28017   0.12391   0.42983   0.00000  Uiso   1.00
H377   H     0.28029   0.37608   0.57010   0.00000  Uiso   1.00
H378   H     0.22041   0.03493   0.57195   0.00000  Uiso   1.00
H379   H     0.22028   0.46507   0.42812   0.00000  Uiso   1.00
H380   H     0.27959   0.03493   0.42805   0.00000  Uiso   1.00
H381   H     0.27972   0.46507   0.57188   0.00000  Uiso   1.00
H382   H     0.48202   0.29137   0.40758   0.00000  Uiso   1.00
N383   N     0.25000   0.12934   0.50000   0.00000  Uiso   1.00
N384   N     0.25000   0.37065   0.50000   0.00000  Uiso   1.00
N385   N     0.11656   0.32718   0.45429   0.00000  Uiso   1.00
N386   N     0.38345   0.17274   0.45442   0.00000  Uiso   1.00
N387   N     0.38345   0.32726   0.54557   0.00000  Uiso   1.00
N388   N     0.11656   0.17282   0.54571   0.00000  Uiso   1.00
O389   O     0.18573   0.29071   0.50000   0.00000  Uiso   1.00
O390   O     0.47510   0.17372   0.45555   0.00000  Uiso   1.00
O391   O     0.47510   0.32628   0.54444   0.00000  Uiso   1.00
O392   O     0.02490   0.17380   0.54458   0.00000  Uiso   1.00
O393   O     0.31427   0.20928   0.50000   0.00000  Uiso   1.00
O394   O     0.31427   0.29071   0.50000   0.00000  Uiso   1.00
O395   O     0.18573   0.20928   0.50000   0.00000  Uiso   1.00
O396   O     0.25000   0.29071   0.42946   0.00000  Uiso   1.00
O397   O     0.25000   0.20929   0.57054   0.00000  Uiso   1.00
O398   O     0.25000   0.29071   0.57054   0.00000  Uiso   1.00
O399   O     0.25000   0.20929   0.42946   0.00000  Uiso   1.00
O400   O     0.02491   0.32620   0.45541   0.00000  Uiso   1.00
C401   C     0.66489   0.25000   0.50000   0.00000  Uiso   1.00
C402   C     0.76640   0.44643   0.54021   0.00000  Uiso   1.00
C403   C     0.75000   0.25000   0.40683   0.00000  Uiso   1.00
C404   C     0.75000   0.25000   0.59317   0.00000  Uiso   1.00
C405   C     0.75000   0.02721   0.50000   0.00000  Uiso   1.00
C406   C     0.75000   0.47279   0.50000   0.00000  Uiso   1.00
C407   C     0.75000   0.25000   0.35517   0.00000  Uiso   1.00
C408   C     0.75000   0.25000   0.64483   0.00000  Uiso   1.00
C409   C     0.54712   0.28763   0.47638   0.00000  Uiso   1.00
C410   C     0.95288   0.21233   0.47644   0.00000  Uiso   1.00
C411   C     0.95288   0.28767   0.52355   0.00000  Uiso   1.00
C412   C     0.83511   0.25000   0.50000   0.00000  Uiso   1.00
C413   C     0.54712   0.21237   0.52362   0.00000  Uiso   1.00
C414   C     0.59324   0.28819   0.47738   0.00000  Uiso   1.00
C415   C     0.90677   0.21177   0.47745   0.00000  Uiso   1.00
C416   C     0.90677   0.28823   0.52254   0.00000  Uiso   1.00
C417   C     0.59323   0.21181   0.52262   0.00000  Uiso   1.00
C418   C     0.61646   0.25000   0.50000   0.00000  Uiso   1.00
C419   C     0.88354   0.25000   0.50000   0.00000  Uiso   1.00
C420   C     0.52414   0.25000   0.50000   0.00000  Uiso   1.00
C421   C     0.97587   0.25000   0.50000   0.00000  Uiso   1.00
C422   C     0.51215   0.31401   0.40712   0.00000  Uiso   1.00
C423   C     0.73343   0.10447   0.53926   0.00000  Uiso   1.00
C424   C     0.98786   0.18582   0.40723   0.00000  Uiso   1.00
C425   C     0.98786   0.31418   0.59276   0.00000  Uiso   1.00
C426   C     0.51214   0.18599   0.59288   0.00000  Uiso   1.00
C427   C     0.73336   0.39553   0.46078   0.00000  Uiso   1.00
C428   C     0.76657   0.10447   0.46074   0.00000  Uiso   1.00
C429   C     0.76664   0.39553   0.53922   0.00000  Uiso   1.00
C430   C     0.73367   0.05357   0.54025   0.00000  Uiso   1.00
C431   C     0.73360   0.44642   0.45979   0.00000  Uiso   1.00
C432   C     0.76633   0.05357   0.45975   0.00000  Uiso   1.00
Cu433  Cu    0.75000   0.29821   0.50000   0.00000  Uiso   1.00
Cu434  Cu    0.75000   0.20178   0.50000   0.00000  Uiso   1.00
H435   H     0.71983   0.12392   0.57017   0.00000  Uiso   1.00
H436   H     0.53882   0.29570   0.38603   0.00000  Uiso   1.00
H437   H     0.50391   0.34777   0.38718   0.00000  Uiso   1.00
H438   H     0.51800   0.20847   0.40765   0.00000  Uiso   1.00
H439   H     0.96120   0.20410   0.38611   0.00000  Uiso   1.00
H440   H     0.99612   0.15203   0.38736   0.00000  Uiso   1.00
H441   H     0.51800   0.29154   0.59234   0.00000  Uiso   1.00
H442   H     0.96119   0.29590   0.61388   0.00000  Uiso   1.00
H443   H     0.99610   0.34797   0.61263   0.00000  Uiso   1.00
H444   H     0.98200   0.20863   0.59242   0.00000  Uiso   1.00
H445   H     0.53881   0.20430   0.61397   0.00000  Uiso   1.00
H446   H     0.71971   0.37608   0.42990   0.00000  Uiso   1.00
H447   H     0.50389   0.15223   0.61281   0.00000  Uiso   1.00
H448   H     0.60635   0.35963   0.47030   0.00000  Uiso   1.00
H449   H     0.60830   0.32795   0.41702   0.00000  Uiso   1.00
H450   H     0.89172   0.17190   0.41715   0.00000  Uiso   1.00
H451   H     0.89366   0.14031   0.47049   0.00000  Uiso   1.00
H452   H     0.89365   0.35969   0.52949   0.00000  Uiso   1.00
H453   H     0.89172   0.32811   0.58283   0.00000  Uiso   1.00
H454   H     0.60829   0.17204   0.58298   0.00000  Uiso   1.00
H455   H     0.60635   0.14037   0.52969   0.00000  Uiso   1.00
H456   H     0.78017   0.12391   0.42983   0.00000  Uiso   1.00
H457   H     0.78029   0.37608   0.57010   0.00000  Uiso   1.00
H458   H     0.72041   0.03493   0.57195   0.00000  Uiso   1.00
H459   H     0.72028   0.46507   0.42812   0.00000  Uiso   1.00
H460   H     0.77959   0.03493   0.42805   0.00000  Uiso   1.00
H461   H     0.77972   0.46507   0.57188   0.00000  Uiso   1.00
H462   H     0.98202   0.29137   0.40758   0.00000  Uiso   1.00
N463   N     0.75000   0.12934   0.50000   0.00000  Uiso   1.00
N464   N     0.75000   0.37065   0.50000   0.00000  Uiso   1.00
N465   N     0.61656   0.32718   0.45429   0.00000  Uiso   1.00
N466   N     0.88345   0.17274   0.45442   0.00000  Uiso   1.00
N467   N     0.88345   0.32726   0.54557   0.00000  Uiso   1.00
N468   N     0.61656   0.17282   0.54571   0.00000  Uiso   1.00
O469   O     0.68573   0.29071   0.50000   0.00000  Uiso   1.00
O470   O     0.97510   0.17372   0.45555   0.00000  Uiso   1.00
O471   O     0.97510   0.32628   0.54444   0.00000  Uiso   1.00
O472   O     0.52490   0.17380   0.54458   0.00000  Uiso   1.00
O473   O     0.81427   0.20928   0.50000   0.00000  Uiso   1.00
O474   O     0.81427   0.29071   0.50000   0.00000  Uiso   1.00
O475   O     0.68573   0.20928   0.50000   0.00000  Uiso   1.00
O476   O     0.75000   0.29071   0.42946   0.00000  Uiso   1.00
O477   O     0.75000   0.20929   0.57054   0.00000  Uiso   1.00
O478   O     0.75000   0.29071   0.57054   0.00000  Uiso   1.00
O479   O     0.75000   0.20929   0.42946   0.00000  Uiso   1.00
O480   O     0.52491   0.32620   0.45541   0.00000  Uiso   1.00
C481   C     0.16489   0.75000   0.50000   0.00000  Uiso   1.00
C482   C     0.26640   0.94643   0.54021   0.00000  Uiso   1.00
C483   C     0.25000   0.75000   0.40683   0.00000  Uiso   1.00
C484   C     0.25000   0.75000   0.59317   0.00000  Uiso   1.00
C485   C     0.25000   0.52721   0.50000   0.00000  Uiso   1.00
C486   C     0.25000   0.97279   0.50000   0.00000  Uiso   1.00
C487   C     0.25000   0.75000   0.35517   0.00000  Uiso   1.00
C488   C     0.25000   0.75000   0.64483   0.00000  Uiso   1.00
C489   C     0.04712   0.78763   0.47638   0.00000  Uiso   1.00
C490   C     0.45288   0.71233   0.47644   0.00000  Uiso   1.00
C491   C     0.45288   0.78767   0.52355   0.00000  Uiso   1.00
C492   C     0.33511   0.75000   0.50000   0.00000  Uiso   1.00
C493   C     0.04712   0.71237   0.52362   0.00000  Uiso   1.00
C494   C     0.09324   0.78819   0.47738   0.00000  Uiso   1.00
C495   C     0.40677   0.71177   0.47745   0.00000  Uiso   1.00
C496   C     0.40677   0.78823   0.52254   0.00000  Uiso   1.00
C497   C     0.09323   0.71181   0.52262   0.00000  Uiso   1.00
C498   C     0.11646   0.75000   0.50000   0.00000  Uiso   1.00
C499   C     0.38354   0.75000   0.50000   0.00000  Uiso   1.00
C500   C     0.02414   0.75000   0.50000   0.00000  Uiso   1.00
C501   C     0.47587   0.75000   0.50000   0.00000  Uiso   1.00
C502   C     0.01215   0.81401   0.40712   0.00000  Uiso   1.00
C503   C     0.23343   0.60447   0.53926   0.00000  Uiso   1.00
C504   C     0.48786   0.68582   0.40723   0.00000  Uiso   1.00
C505   C     0.48786   0.81418   0.59276   0.00000  Uiso   1.00
C506   C     0.01214   0.68599   0.59288   0.00000  Uiso   1.00
C507   C     0.23336   0.89553   0.46078   0.00000  Uiso   1.00
C508   C     0.26657   0.60447   0.46074   0.00000  Uiso   1.00
C509   C     0.26664   0.89553   0.53922   0.00000  Uiso   1.00
C510   C     0.23367   0.55357   0.54025   0.00000  Uiso   1.00
C511   C     0.23360   0.94642   0.45979   0.00000  Uiso   1.00
C512   C     0.26633   0.55357   0.45975   0.00000  Uiso   1.00
Cu513  Cu    0.25000   0.79821   0.50000   0.00000  Uiso   1.00
Cu514  Cu    0.25000   0.70178   0.50000   0.00000  Uiso   1.00
H515   H     0.21983   0.62392   0.57017   0.00000  Uiso   1.00
H516   H     0.03882   0.79570   0.38603   0.00000  Uiso   1.00
H517   H     0.00391   0.84777   0.38718   0.00000  Uiso   1.00
H518   H     0.01800   0.70847   0.40765   0.00000  Uiso   1.00
H519   H     0.46120   0.70410   0.38611   0.00000  Uiso   1.00
H520   H     0.49612   0.65203   0.38736   0.00000  Uiso   1.00
H521   H     0.01800   0.79154   0.59234   0.00000  Uiso   1.00
H522   H     0.46119   0.79590   0.61388   0.00000  Uiso   1.00
H523   H     0.49610   0.84797   0.61263   0.00000  Uiso   1.00
H524   H     0.48200   0.70863   0.59242   0.00000  Uiso   1.00
H525   H     0.03881   0.70430   0.61397   0.00000  Uiso   1.00
H526   H     0.21971   0.87608   0.42990   0.00000  Uiso   1.00
H527   H     0.00389   0.65223   0.61281   0.00000  Uiso   1.00
H528   H     0.10635   0.85963   0.47030   0.00000  Uiso   1.00
H529   H     0.10830   0.82795   0.41702   0.00000  Uiso   1.00
H530   H     0.39172   0.67190   0.41715   0.00000  Uiso   1.00
H531   H     0.39366   0.64031   0.47049   0.00000  Uiso   1.00
H532   H     0.39365   0.85969   0.52949   0.00000  Uiso   1.00
H533   H     0.39172   0.82811   0.58283   0.00000  Uiso   1.00
H534   H     0.10829   0.67204   0.58298   0.00000  Uiso   1.00
H535   H     0.10635   0.64037   0.52969   0.00000  Uiso   1.00
H536   H     0.28017   0.62391   0.42983   0.00000  Uiso   1.00
H537   H     0.28029   0.87608   0.57010   0.00000  Uiso   1.00
H538   H     0.22041   0.53493   0.57195   0.00000  Uiso   1.00
H539   H     0.22028   0.96507   0.42812   0.00000  Uiso   1.00
H540   H     0.27959   0.53493   0.42805   0.00000  Uiso   1.00
H541   H     0.27972   0.96507   0.57188   0.00000  Uiso   1.00
H542   H     0.48202   0.79137   0.40758   0.00000  Uiso   1.00
N543   N     0.25000   0.62934   0.50000   0.00000  Uiso   1.00
N544   N     0.25000   0.87065   0.50000   0.00000  Uiso   1.00
N545   N     0.11656   0.82718   0.45429   0.00000  Uiso   1.00
N546   N     0.38345   0.67274   0.45442   0.00000  Uiso   1.00
N547   N     0.38345   0.82726   0.54557   0.00000  Uiso   1.00
N548   N     0.11656   0.67282   0.54571   0.00000  Uiso   1.00
O549   O     0.18573   0.79071   0.50000   0.00000  Uiso   1.00
O550   O     0.47510   0.67372   0.45555   0.00000  Uiso   1.00
O551   O     0.47510   0.82628   0.54444   0.00000  Uiso   1.00
O552   O     0.02490   0.67380   0.54458   0.00000  Uiso   1.00
O553   O     0.31427   0.70928   0.50000   0.00000  Uiso   1.00
O554   O     0.31427   0.79071   0.50000   0.00000  Uiso   1.00
O555   O     0.18573   0.70928   0.50000   0.00000  Uiso   1.00
O556   O     0.25000   0.79071   0.42946   0.00000  Uiso   1.00
O557   O     0.25000   0.70929   0.57054   0.00000  Uiso   1.00
O558   O     0.25000   0.79071   0.57054   0.00000  Uiso   1.00
O559   O     0.25000   0.70929   0.42946   0.00000  Uiso   1.00
O560   O     0.02491   0.82620   0.45541   0.00000  Uiso   1.00
C561   C     0.66489   0.75000   0.50000   0.00000  Uiso   1.00
C562   C     0.76640   0.94643   0.54021   0.00000  Uiso   1.00
C563   C     0.75000   0.75000   0.40683   0.00000  Uiso   1.00
C564   C     0.75000   0.75000   0.59317   0.00000  Uiso   1.00
C565   C     0.75000   0.52721   0.50000   0.00000  Uiso   1.00
C566   C     0.75000   0.97279   0.50000   0.00000  Uiso   1.00
C567   C     0.75000   0.75000   0.35517   0.00000  Uiso   1.00
C568   C     0.75000   0.75000   0.64483   0.00000  Uiso   1.00
C569   C     0.54712   0.78763   0.47638   0.00000  Uiso   1.00
C570   C     0.95288   0.71233   0.47644   0.00000  Uiso   1.00
C571   C     0.95288   0.78767   0.52355   0.00000  Uiso   1.00
C572   C     0.83511   0.75000   0.50000   0.00000  Uiso   1.00
C573   C     0.54712   0.71237   0.52362   0.00000  Uiso   1.00
C574   C     0.59324   0.78819   0.47738   0.00000  Uiso   1.00
C575   C     0.90677   0.71177   0.47745   0.00000  Uiso   1.00
C576   C     0.90677   0.78823   0.52254   0.00000  Uiso   1.00
C577   C     0.59323   0.71181   0.52262   0.00000  Uiso   1.00
C578   C     0.61646   0.75000   0.50000   0.00000  Uiso   1.00
C579   C     0.88354   0.75000   0.50000   0.00000  Uiso   1.00
C580   C     0.52414   0.75000   0.50000   0.00000  Uiso   1.00
C581   C     0.97587   0.75000   0.50000   0.00000  Uiso   1.00
C582   C     0.51215   0.81401   0.40712   0.00000  Uiso   1.00
C583   C     0.73343   0.60447   0.53926   0.00000  Uiso   1.00
C584   C     0.98786   0.68582   0.40723   0.00000  Uiso   1.00
C585   C     0.98786   0.81418   0.59276   0.00000  Uiso   1.00
C586   C     0.51214   0.68599   0.59288   0.00000  Uiso   1.00
C587   C     0.73336   0.89553   0.46078   0.00000  Uiso   1.00
C588   C     0.76657   0.60447   0.46074   0.00000  Uiso   1.00
C589   C     0.76664   0.89553   0.53922   0.00000  Uiso   1.00
C590   C     0.73367   0.55357   0.54025   0.00000  Uiso   1.00
C591   C     0.73360   0.94642   0.45979   0.00000  Uiso   1.00
C592   C     0.76633   0.55357   0.45975   0.00000  Uiso   1.00
Cu593  Cu    0.75000   0.79821   0.50000   0.00000  Uiso   1.00
Cu594  Cu    0.75000   0.70178   0.50000   0.00000  Uiso   1.00
H595   H     0.71983   0.62392   0.57017   0.00000  Uiso   1.00
H596   H     0.53882   0.79570   0.38603   0.00000  Uiso   1.00
H597   H     0.50391   0.84777   0.38718   0.00000  Uiso   1.00
H598   H     0.51800   0.70847   0.40765   0.00000  Uiso   1.00
H599   H     0.96120   0.70410   0.38611   0.00000  Uiso   1.00
H600   H     0.99612   0.65203   0.38736   0.00000  Uiso   1.00
H601   H     0.51800   0.79154   0.59234   0.00000  Uiso   1.00
H602   H     0.96119   0.79590   0.61388   0.00000  Uiso   1.00
H603   H     0.99610   0.84797   0.61263   0.00000  Uiso   1.00
H604   H     0.98200   0.70863   0.59242   0.00000  Uiso   1.00
H605   H     0.53881   0.70430   0.61397   0.00000  Uiso   1.00
H606   H     0.71971   0.87608   0.42990   0.00000  Uiso   1.00
H607   H     0.50389   0.65223   0.61281   0.00000  Uiso   1.00
H608   H     0.60635   0.85963   0.47030   0.00000  Uiso   1.00
H609   H     0.60830   0.82795   0.41702   0.00000  Uiso   1.00
H610   H     0.89172   0.67190   0.41715   0.00000  Uiso   1.00
H611   H     0.89366   0.64031   0.47049   0.00000  Uiso   1.00
H612   H     0.89365   0.85969   0.52949   0.00000  Uiso   1.00
H613   H     0.89172   0.82811   0.58283   0.00000  Uiso   1.00
H614   H     0.60829   0.67204   0.58298   0.00000  Uiso   1.00
H615   H     0.60635   0.64037   0.52969   0.00000  Uiso   1.00
H616   H     0.78017   0.62391   0.42983   0.00000  Uiso   1.00
H617   H     0.78029   0.87608   0.57010   0.00000  Uiso   1.00
H618   H     0.72041   0.53493   0.57195   0.00000  Uiso   1.00
H619   H     0.72028   0.96507   0.42812   0.00000  Uiso   1.00
H620   H     0.77959   0.53493   0.42805   0.00000  Uiso   1.00
H621   H     0.77972   0.96507   0.57188   0.00000  Uiso   1.00
H622   H     0.98202   0.79137   0.40758   0.00000  Uiso   1.00
N623   N     0.75000   0.62934   0.50000   0.00000  Uiso   1.00
N624   N     0.75000   0.87065   0.50000   0.00000  Uiso   1.00
N625   N     0.61656   0.82718   0.45429   0.00000  Uiso   1.00
N626   N     0.88345   0.67274   0.45442   0.00000  Uiso   1.00
N627   N     0.88345   0.82726   0.54557   0.00000  Uiso   1.00
N628   N     0.61656   0.67282   0.54571   0.00000  Uiso   1.00
O629   O     0.68573   0.79071   0.50000   0.00000  Uiso   1.00
O630   O     0.97510   0.67372   0.45555   0.00000  Uiso   1.00
O631   O     0.97510   0.82628   0.54444   0.00000  Uiso   1.00
O632   O     0.52490   0.67380   0.54458   0.00000  Uiso   1.00
O633   O     0.81427   0.70928   0.50000   0.00000  Uiso   1.00
O634   O     0.81427   0.79071   0.50000   0.00000  Uiso   1.00
O635   O     0.68573   0.70928   0.50000   0.00000  Uiso   1.00
O636   O     0.75000   0.79071   0.42946   0.00000  Uiso   1.00
O637   O     0.75000   0.70929   0.57054   0.00000  Uiso   1.00
O638   O     0.75000   0.79071   0.57054   0.00000  Uiso   1.00
O639   O     0.75000   0.70929   0.42946   0.00000  Uiso   1.00
O640   O     0.52491   0.82620   0.45541   0.00000  Uiso   1.00
C641   C     0.16489   0.25000   0.83334   0.00000  Uiso   1.00
C642   C     0.26640   0.44643   0.87354   0.00000  Uiso   1.00
C643   C     0.25000   0.25000   0.74016   0.00000  Uiso   1.00
C644   C     0.25000   0.25000   0.92650   0.00000  Uiso   1.00
C645   C     0.25000   0.02721   0.83333   0.00000  Uiso   1.00
C646   C     0.25000   0.47279   0.83333   0.00000  Uiso   1.00
C647   C     0.25000   0.25000   0.68851   0.00000  Uiso   1.00
C648   C     0.25000   0.25000   0.97816   0.00000  Uiso   1.00
C649   C     0.04712   0.28763   0.80971   0.00000  Uiso   1.00
C650   C     0.45288   0.21233   0.80978   0.00000  Uiso   1.00
C651   C     0.45288   0.28767   0.85688   0.00000  Uiso   1.00
C652   C     0.33511   0.25000   0.83333   0.00000  Uiso   1.00
C653   C     0.04712   0.21237   0.85695   0.00000  Uiso   1.00
C654   C     0.09324   0.28819   0.81072   0.00000  Uiso   1.00
C655   C     0.40677   0.21177   0.81078   0.00000  Uiso   1.00
C656   C     0.40677   0.28823   0.85588   0.00000  Uiso   1.00
C657   C     0.09323   0.21181   0.85595   0.00000  Uiso   1.00
C658   C     0.11646   0.25000   0.83333   0.00000  Uiso   1.00
C659   C     0.38354   0.25000   0.83333   0.00000  Uiso   1.00
C660   C     0.02414   0.25000   0.83333   0.00000  Uiso   1.00
C661   C     0.47587   0.25000   0.83333   0.00000  Uiso   1.00
C662   C     0.01215   0.31401   0.74045   0.00000  Uiso   1.00
C663   C     0.23343   0.10447   0.87259   0.00000  Uiso   1.00
C664   C     0.48786   0.18582   0.74057   0.00000  Uiso   1.00
C665   C     0.48786   0.31418   0.92609   0.00000  Uiso   1.00
C666   C     0.01214   0.18599   0.92621   0.00000  Uiso   1.00
C667   C     0.23336   0.39553   0.79411   0.00000  Uiso   1.00
C668   C     0.26657   0.10447   0.79408   0.00000  Uiso   1.00
C669   C     0.26664   0.39553   0.87255   0.00000  Uiso   1.00
C670   C     0.23367   0.05357   0.87358   0.00000  Uiso   1.00
C671   C     0.23360   0.44642   0.79313   0.00000  Uiso   1.00
C672   C     0.26633   0.05357   0.79309   0.00000  Uiso   1.00
Cu673  Cu    0.25000   0.29821   0.83333   0.00000  Uiso   1.00
Cu674  Cu    0.25000   0.20178   0.83333   0.00000  Uiso   1.00
H675   H     0.21983   0.12392   0.90351   0.00000  Uiso   1.00
H676   H     0.03882   0.29570   0.71936   0.00000  Uiso   1.00
H677   H     0.00391   0.34777   0.72052   0.00000  Uiso   1.00
H678   H     0.01800   0.20847   0.74099   0.00000  Uiso   1.00
H679   H     0.46120   0.20410   0.71944   0.00000  Uiso   1.00
H680   H     0.49612   0.15203   0.72070   0.00000  Uiso   1.00
H681   H     0.01800   0.29154   0.92567   0.00000  Uiso   1.00
H682   H     0.46119   0.29590   0.94722   0.00000  Uiso   1.00
H683   H     0.49610   0.34797   0.94597   0.00000  Uiso   1.00
H684   H     0.48200   0.20863   0.92575   0.00000  Uiso   1.00
H685   H     0.03881   0.20430   0.94730   0.00000  Uiso   1.00
H686   H     0.21971   0.37608   0.76323   0.00000  Uiso   1.00
H687   H     0.00389   0.15223   0.94614   0.00000  Uiso   1.00
H688   H     0.10635   0.35963   0.80363   0.00000  Uiso   1.00
H689   H     0.10830   0.32795   0.75035   0.00000  Uiso   1.00
H690   H     0.39172   0.17190   0.75049   0.00000  Uiso   1.00
H691   H     0.39366   0.14031   0.80382   0.00000  Uiso   1.00
H692   H     0.39365   0.35969   0.86282   0.00000  Uiso   1.00
H693   H     0.39172   0.32811   0.91617   0.00000  Uiso   1.00
H694   H     0.10829   0.17204   0.91631   0.00000  Uiso   1.00
H695   H     0.10635   0.14037   0.86303   0.00000  Uiso   1.00
H696   H     0.28017   0.12391   0.76316   0.00000  Uiso   1.00
H697   H     0.28029   0.37608   0.90344   0.00000  Uiso   1.00
H698   H     0.22041   0.03493   0.90528   0.00000  Uiso   1.00
H699   H     0.22028   0.46507   0.76145   0.00000  Uiso   1.00
H700   H     0.27959   0.03493   0.76138   0.00000  Uiso   1.00
H701   H     0.27972   0.46507   0.90522   0.00000  Uiso   1.00
H702   H     0.48202   0.29137   0.74091   0.00000  Uiso   1.00
N703   N     0.25000   0.12934   0.83333   0.00000  Uiso   1.00
N704   N     0.25000   0.37065   0.83333   0.00000  Uiso   1.00
N705   N     0.11656   0.32718   0.78762   0.00000  Uiso   1.00
N706   N     0.38345   0.17274   0.78775   0.00000  Uiso   1.00
N707   N     0.38345   0.32726   0.87891   0.00000  Uiso   1.00
N708   N     0.11656   0.17282   0.87905   0.00000  Uiso   1.00
O709   O     0.18573   0.29071   0.83334   0.00000  Uiso   1.00
O710   O     0.47510   0.17372   0.78888   0.00000  Uiso   1.00
O711   O     0.47510   0.32628   0.87777   0.00000  Uiso   1.00
O712   O     0.02490   0.17380   0.87791   0.00000  Uiso   1.00
O713   O     0.31427   0.20928   0.83333   0.00000  Uiso   1.00
O714   O     0.31427   0.29071   0.83333   0.00000  Uiso   1.00
O715   O     0.18573   0.20928   0.83334   0.00000  Uiso   1.00
O716   O     0.25000   0.29071   0.76280   0.00000  Uiso   1.00
O717   O     0.25000   0.20929   0.90387   0.00000  Uiso   1.00
O718   O     0.25000   0.29071   0.90387   0.00000  Uiso   1.00
O719   O     0.25000   0.20929   0.76280   0.00000  Uiso   1.00
O720   O     0.02491   0.32620   0.78875   0.00000  Uiso   1.00
C721   C     0.66489   0.25000   0.83334   0.00000  Uiso   1.00
C722   C     0.76640   0.44643   0.87354   0.00000  Uiso   1.00
C723   C     0.75000   0.25000   0.74016   0.00000  Uiso   1.00
C724   C     0.75000   0.25000   0.92650   0.00000  Uiso   1.00
C725   C     0.75000   0.02721   0.83333   0.00000  Uiso   1.00
C726   C     0.75000   0.47279   0.83333   0.00000  Uiso   1.00
C727   C     0.75000   0.25000   0.68851   0.00000  Uiso   1.00
C728   C     0.75000   0.25000   0.97816   0.00000  Uiso   1.00
C729   C     0.54712   0.28763   0.80971   0.00000  Uiso   1.00
C730   C     0.95288   0.21233   0.80978   0.00000  Uiso   1.00
C731   C     0.95288   0.28767   0.85688   0.00000  Uiso   1.00
C732   C     0.83511   0.25000   0.83333   0.00000  Uiso   1.00
C733   C     0.54712   0.21237   0.85695   0.00000  Uiso   1.00
C734   C     0.59324   0.28819   0.81072   0.00000  Uiso   1.00
C735   C     0.90677   0.21177   0.81078   0.00000  Uiso   1.00
C736   C     0.90677   0.28823   0.85588   0.00000  Uiso   1.00
C737   C     0.59323   0.21181   0.85595   0.00000  Uiso   1.00
C738   C     0.61646   0.25000   0.83333   0.00000  Uiso   1.00
C739   C     0.88354   0.25000   0.83333   0.00000  Uiso   1.00
C740   C     0.52414   0.25000   0.83333   0.00000  Uiso   1.00
C741   C     0.97587   0.25000   0.83333   0.00000  Uiso   1.00
C742   C     0.51215   0.31401   0.74045   0.00000  Uiso   1.00
C743   C     0.73343   0.10447   0.87259   0.00000  Uiso   1.00
C744   C     0.98786   0.18582   0.74057   0.00000  Uiso   1.00
C745   C     0.98786   0.31418   0.92609   0.00000  Uiso   1.00
C746   C     0.51214   0.18599   0.92621   0.00000  Uiso   1.00
C747   C     0.73336   0.39553   0.79411   0.00000  Uiso   1.00
C748   C     0.76657   0.10447   0.79408   0.00000  Uiso   1.00
C749   C     0.76664   0.39553   0.87255   0.00000  Uiso   1.00
C750   C     0.73367   0.05357   0.87358   0.00000  Uiso   1.00
C751   C     0.73360   0.44642   0.79313   0.00000  Uiso   1.00
C752   C     0.76633   0.05357   0.79309   0.00000  Uiso   1.00
Cu753  Cu    0.75000   0.29821   0.83333   0.00000  Uiso   1.00
Cu754  Cu    0.75000   0.20178   0.83333   0.00000  Uiso   1.00
H755   H     0.71983   0.12392   0.90351   0.00000  Uiso   1.00
H756   H     0.53882   0.29570   0.71936   0.00000  Uiso   1.00
H757   H     0.50391   0.34777   0.72052   0.00000  Uiso   1.00
H758   H     0.51800   0.20847   0.74099   0.00000  Uiso   1.00
H759   H     0.96120   0.20410   0.71944   0.00000  Uiso   1.00
H760   H     0.99612   0.15203   0.72070   0.00000  Uiso   1.00
H761   H     0.51800   0.29154   0.92567   0.00000  Uiso   1.00
H762   H     0.96119   0.29590   0.94722   0.00000  Uiso   1.00
H763   H     0.99610   0.34797   0.94597   0.00000  Uiso   1.00
H764   H     0.98200   0.20863   0.92575   0.00000  Uiso   1.00
H765   H     0.53881   0.20430   0.94730   0.00000  Uiso   1.00
H766   H     0.71971   0.37608   0.76323   0.00000  Uiso   1.00
H767   H     0.50389   0.15223   0.94614   0.00000  Uiso   1.00
H768   H     0.60635   0.35963   0.80363   0.00000  Uiso   1.00
H769   H     0.60830   0.32795   0.75035   0.00000  Uiso   1.00
H770   H     0.89172   0.17190   0.75049   0.00000  Uiso   1.00
H771   H     0.89366   0.14031   0.80382   0.00000  Uiso   1.00
H772   H     0.89365   0.35969   0.86282   0.00000  Uiso   1.00
H773   H     0.89172   0.32811   0.91617   0.00000  Uiso   1.00
H774   H     0.60829   0.17204   0.91631   0.00000  Uiso   1.00
H775   H     0.60635   0.14037   0.86303   0.00000  Uiso   1.00
H776   H     0.78017   0.12391   0.76316   0.00000  Uiso   1.00
H777   H     0.78029   0.37608   0.90344   0.00000  Uiso   1.00
H778   H     0.72041   0.03493   0.90528   0.00000  Uiso   1.00
H779   H     0.72028   0.46507   0.76145   0.00000  Uiso   1.00
H780   H     0.77959   0.03493   0.76138   0.00000  Uiso   1.00
H781   H     0.77972   0.46507   0.90522   0.00000  Uiso   1.00
H782   H     0.98202   0.29137   0.74091   0.00000  Uiso   1.00
N783   N     0.75000   0.12934   0.83333   0.00000  Uiso   1.00
N784   N     0.75000   0.37065   0.83333   0.00000  Uiso   1.00
N785   N     0.61656   0.32718   0.78762   0.00000  Uiso   1.00
N786   N     0.88345   0.17274   0.78775   0.00000  Uiso   1.00
N787   N     0.88345   0.32726   0.87891   0.00000  Uiso   1.00
N788   N     0.61656   0.17282   0.87905   0.00000  Uiso   1.00
O789   O     0.68573   0.29071   0.83334   0.00000  Uiso   1.00
O790   O     0.97510   0.17372   0.78888   0.00000  Uiso   1.00
O791   O     0.97510   0.32628   0.87777   0.00000  Uiso   1.00
O792   O     0.52490   0.17380   0.87791   0.00000  Uiso   1.00
O793   O     0.81427   0.20928   0.83333   0.00000  Uiso   1.00
O794   O     0.81427   0.29071   0.83333   0.00000  Uiso   1.00
O795   O     0.68573   0.20928   0.83334   0.00000  Uiso   1.00
O796   O     0.75000   0.29071   0.76280   0.00000  Uiso   1.00
O797   O     0.75000   0.20929   0.90387   0.00000  Uiso   1.00
O798   O     0.75000   0.29071   0.90387   0.00000  Uiso   1.00
O799   O     0.75000   0.20929   0.76280   0.00000  Uiso   1.00
O800   O     0.52491   0.32620   0.78875   0.00000  Uiso   1.00
C801   C     0.16489   0.75000   0.83334   0.00000  Uiso   1.00
C802   C     0.26640   0.94643   0.87354   0.00000  Uiso   1.00
C803   C     0.25000   0.75000   0.74016   0.00000  Uiso   1.00
C804   C     0.25000   0.75000   0.92650   0.00000  Uiso   1.00
C805   C     0.25000   0.52721   0.83333   0.00000  Uiso   1.00
C806   C     0.25000   0.97279   0.83333   0.00000  Uiso   1.00
C807   C     0.25000   0.75000   0.68851   0.00000  Uiso   1.00
C808   C     0.25000   0.75000   0.97816   0.00000  Uiso   1.00
C809   C     0.04712   0.78763   0.80971   0.00000  Uiso   1.00
C810   C     0.45288   0.71233   0.80978   0.00000  Uiso   1.00
C811   C     0.45288   0.78767   0.85688   0.00000  Uiso   1.00
C812   C     0.33511   0.75000   0.83333   0.00000  Uiso   1.00
C813   C     0.04712   0.71237   0.85695   0.00000  Uiso   1.00
C814   C     0.09324   0.78819   0.81072   0.00000  Uiso   1.00
C815   C     0.40677   0.71177   0.81078   0.00000  Uiso   1.00
C816   C     0.40677   0.78823   0.85588   0.00000  Uiso   1.00
C817   C     0.09323   0.71181   0.85595   0.00000  Uiso   1.00
C818   C     0.11646   0.75000   0.83333   0.00000  Uiso   1.00
C819   C     0.38354   0.75000   0.83333   0.00000  Uiso   1.00
C820   C     0.02414   0.75000   0.83333   0.00000  Uiso   1.00
C821   C     0.47587   0.75000   0.83333   0.00000  Uiso   1.00
C822   C     0.01215   0.81401   0.74045   0.00000  Uiso   1.00
C823   C     0.23343   0.60447   0.87259   0.00000  Uiso   1.00
C824   C     0.48786   0.68582   0.74057   0.00000  Uiso   1.00
C825   C     0.48786   0.81418   0.92609   0.00000  Uiso   1.00
C826   C     0.01214   0.68599   0.92621   0.00000  Uiso   1.00
C827   C     0.23336   0.89553   0.79411   0.00000  Uiso   1.00
C828   C     0.26657   0.60447   0.79408   0.00000  Uiso   1.00
C829   C     0.26664   0.89553   0.87255   0.00000  Uiso   1.00
C830   C     0.23367   0.55357   0.87358   0.00000  Uiso   1.00
C831   C     0.23360   0.94642   0.79313   0.00000  Uiso   1.00
C832   C     0.26633   0.55357   0.79309   0.00000  Uiso   1.00
Cu833  Cu    0.25000   0.79821   0.83333   0.00000  Uiso   1.00
Cu834  Cu    0.25000   0.70178   0.83333   0.00000  Uiso   1.00
H835   H     0.21983   0.62392   0.90351   0.00000  Uiso   1.00
H836   H     0.03882   0.79570   0.71936   0.00000  Uiso   1.00
H837   H     0.00391   0.84777   0.72052   0.00000  Uiso   1.00
H838   H     0.01800   0.70847   0.74099   0.00000  Uiso   1.00
H839   H     0.46120   0.70410   0.71944   0.00000  Uiso   1.00
H840   H     0.49612   0.65203   0.72070   0.00000  Uiso   1.00
H841   H     0.01800   0.79154   0.92567   0.00000  Uiso   1.00
H842   H     0.46119   0.79590   0.94722   0.00000  Uiso   1.00
H843   H     0.49610   0.84797   0.94597   0.00000  Uiso   1.00
H844   H     0.48200   0.70863   0.92575   0.00000  Uiso   1.00
H845   H     0.03881   0.70430   0.94730   0.00000  Uiso   1.00
H846   H     0.21971   0.87608   0.76323   0.00000  Uiso   1.00
H847   H     0.00389   0.65223   0.94614   0.00000  Uiso   1.00
H848   H     0.10635   0.85963   0.80363   0.00000  Uiso   1.00
H849   H     0.10830   0.82795   0.75035   0.00000  Uiso   1.00
H850   H     0.39172   0.67190   0.75049   0.00000  Uiso   1.00
H851   H     0.39366   0.64031   0.80382   0.00000  Uiso   1.00
H852   H     0.39365   0.85969   0.86282   0.00000  Uiso   1.00
H853   H     0.39172   0.82811   0.91617   0.00000  Uiso   1.00
H854   H     0.10829   0.67204   0.91631   0.00000  Uiso   1.00
H855   H     0.10635   0.64037   0.86303   0.00000  Uiso   1.00
H856   H     0.28017   0.62391   0.76316   0.00000  Uiso   1.00
H857   H     0.28029   0.87608   0.90344   0.00000  Uiso   1.00
H858   H     0.22041   0.53493   0.90528   0.00000  Uiso   1.00
H859   H     0.22028   0.96507   0.76145   0.00000  Uiso   1.00
H860   H     0.27959   0.53493   0.76138   0.00000  Uiso   1.00
H861   H     0.27972   0.96507   0.90522   0.00000  Uiso   1.00
H862   H     0.48202   0.79137   0.74091   0.00000  Uiso   1.00
N863   N     0.25000   0.62934   0.83333   0.00000  Uiso   1.00
N864   N     0.25000   0.87065   0.83333   0.00000  Uiso   1.00
N865   N     0.11656   0.82718   0.78762   0.00000  Uiso   1.00
N866   N     0.38345   0.67274   0.78775   0.00000  Uiso   1.00
N867   N     0.38345   0.82726   0.87891   0.00000  Uiso   1.00
N868   N     0.11656   0.67282   0.87905   0.00000  Uiso   1.00
O869   O     0.18573   0.79071   0.83334   0.00000  Uiso   1.00
O870   O     0.47510   0.67372   0.78888   0.00000  Uiso   1.00
O871   O     0.47510   0.82628   0.87777   0.00000  Uiso   1.00
O872   O     0.02490   0.67380   0.87791   0.00000  Uiso   1.00
O873   O     0.31427   0.70928   0.83333   0.00000  Uiso   1.00
O874   O     0.31427   0.79071   0.83333   0.00000  Uiso   1.00
O875   O     0.18573   0.70928   0.83334   0.00000  Uiso   1.00
O876   O     0.25000   0.79071   0.76280   0.00000  Uiso   1.00
O877   O     0.25000   0.70929   0.90387   0.00000  Uiso   1.00
O878   O     0.25000   0.79071   0.90387   0.00000  Uiso   1.00
O879   O     0.25000   0.70929   0.76280   0.00000  Uiso   1.00
O880   O     0.02491   0.82620   0.78875   0.00000  Uiso   1.00
C881   C     0.66489   0.75000   0.83334   0.00000  Uiso   1.00
C882   C     0.76640   0.94643   0.87354   0.00000  Uiso   1.00
C883   C     0.75000   0.75000   0.74016   0.00000  Uiso   1.00
C884   C     0.75000   0.75000   0.92650   0.00000  Uiso   1.00
C885   C     0.75000   0.52721   0.83333   0.00000  Uiso   1.00
C886   C     0.75000   0.97279   0.83333   0.00000  Uiso   1.00
C887   C     0.75000   0.75000   0.68851   0.00000  Uiso   1.00
C888   C     0.75000   0.75000   0.97816   0.00000  Uiso   1.00
C889   C     0.54712   0.78763   0.80971   0.00000  Uiso   1.00
C890   C     0.95288   0.71233   0.80978   0.00000  Uiso   1.00
C891   C     0.95288   0.78767   0.85688   0.00000  Uiso   1.00
C892   C     0.83511   0.75000   0.83333   0.00000  Uiso   1.00
C893   C     0.54712   0.71237   0.85695   0.00000  Uiso   1.00
C894   C     0.59324   0.78819   0.81072   0.00000  Uiso   1.00
C895   C     0.90677   0.71177   0.81078   0.00000  Uiso   1.00
C896   C     0.90677   0.78823   0.85588   0.00000  Uiso   1.00
C897   C     0.59323   0.71181   0.85595   0.00000  Uiso   1.00
C898   C     0.61646   0.75000   0.83333   0.00000  Uiso   1.00
C899   C     0.88354   0.75000   0.83333   0.00000  Uiso   1.00
C900   C     0.52414   0.75000   0.83333   0.00000  Uiso   1.00
C901   C     0.97587   0.75000   0.83333   0.00000  Uiso   1.00
C902   C     0.51215   0.81401   0.74045   0.00000  Uiso   1.00
C903   C     0.73343   0.60447   0.87259   0.00000  Uiso   1.00
C904   C     0.98786   0.68582   0.74057   0.00000  Uiso   1.00
C905   C     0.98786   0.81418   0.92609   0.00000  Uiso   1.00
C906   C     0.51214   0.68599   0.92621   0.00000  Uiso   1.00
C907   C     0.73336   0.89553   0.79411   0.00000  Uiso   1.00
C908   C     0.76657   0.60447   0.79408   0.00000  Uiso   1.00
C909   C     0.76664   0.89553   0.87255   0.00000  Uiso   1.00
C910   C     0.73367   0.55357   0.87358   0.00000  Uiso   1.00
C911   C     0.73360   0.94642   0.79313   0.00000  Uiso   1.00
C912   C     0.76633   0.55357   0.79309   0.00000  Uiso   1.00
Cu913  Cu    0.75000   0.79821   0.83333   0.00000  Uiso   1.00
Cu914  Cu    0.75000   0.70178   0.83333   0.00000  Uiso   1.00
H915   H     0.71983   0.62392   0.90351   0.00000  Uiso   1.00
H916   H     0.53882   0.79570   0.71936   0.00000  Uiso   1.00
H917   H     0.50391   0.84777   0.72052   0.00000  Uiso   1.00
H918   H     0.51800   0.70847   0.74099   0.00000  Uiso   1.00
H919   H     0.96120   0.70410   0.71944   0.00000  Uiso   1.00
H920   H     0.99612   0.65203   0.72070   0.00000  Uiso   1.00
H921   H     0.51800   0.79154   0.92567   0.00000  Uiso   1.00
H922   H     0.96119   0.79590   0.94722   0.00000  Uiso   1.00
H923   H     0.99610   0.84797   0.94597   0.00000  Uiso   1.00
H924   H     0.98200   0.70863   0.92575   0.00000  Uiso   1.00
H925   H     0.53881   0.70430   0.94730   0.00000  Uiso   1.00
H926   H     0.71971   0.87608   0.76323   0.00000  Uiso   1.00
H927   H     0.50389   0.65223   0.94614   0.00000  Uiso   1.00
H928   H     0.60635   0.85963   0.80363   0.00000  Uiso   1.00
H929   H     0.60830   0.82795   0.75035   0.00000  Uiso   1.00
H930   H     0.89172   0.67190   0.75049   0.00000  Uiso   1.00
H931   H     0.89366   0.64031   0.80382   0.00000  Uiso   1.00
H932   H     0.89365   0.85969   0.86282   0.00000  Uiso   1.00
H933   H     0.89172   0.82811   0.91617   0.00000  Uiso   1.00
H934   H     0.60829   0.67204   0.91631   0.00000  Uiso   1.00
H935   H     0.60635   0.64037   0.86303   0.00000  Uiso   1.00
H936   H     0.78017   0.62391   0.76316   0.00000  Uiso   1.00
H937   H     0.78029   0.87608   0.90344   0.00000  Uiso   1.00
H938   H     0.72041   0.53493   0.90528   0.00000  Uiso   1.00
H939   H     0.72028   0.96507   0.76145   0.00000  Uiso   1.00
H940   H     0.77959   0.53493   0.76138   0.00000  Uiso   1.00
H941   H     0.77972   0.96507   0.90522   0.00000  Uiso   1.00
H942   H     0.98202   0.79137   0.74091   0.00000  Uiso   1.00
N943   N     0.75000   0.62934   0.83333   0.00000  Uiso   1.00
N944   N     0.75000   0.87065   0.83333   0.00000  Uiso   1.00
N945   N     0.61656   0.82718   0.78762   0.00000  Uiso   1.00
N946   N     0.88345   0.67274   0.78775   0.00000  Uiso   1.00
N947   N     0.88345   0.82726   0.87891   0.00000  Uiso   1.00
N948   N     0.61656   0.67282   0.87905   0.00000  Uiso   1.00
O949   O     0.68573   0.79071   0.83334   0.00000  Uiso   1.00
O950   O     0.97510   0.67372   0.78888   0.00000  Uiso   1.00
O951   O     0.97510   0.82628   0.87777   0.00000  Uiso   1.00
O952   O     0.52490   0.67380   0.87791   0.00000  Uiso   1.00
O953   O     0.81427   0.70928   0.83333   0.00000  Uiso   1.00
O954   O     0.81427   0.79071   0.83333   0.00000  Uiso   1.00
O955   O     0.68573   0.70928   0.83334   0.00000  Uiso   1.00
O956   O     0.75000   0.79071   0.76280   0.00000  Uiso   1.00
O957   O     0.75000   0.70929   0.90387   0.00000  Uiso   1.00
O958   O     0.75000   0.79071   0.90387   0.00000  Uiso   1.00
O959   O     0.75000   0.70929   0.76280   0.00000  Uiso   1.00
O960   O     0.52491   0.82620   0.78875   0.00000  Uiso   1.00
loop_
_geom_bond_atom_site_label_1
_geom_bond_atom_site_label_2
_geom_bond_distance
_geom_bond_site_symmetry_2
_ccdc_geom_bond_type
C1     C18     1.470   .     S
C1     O75     1.293   .     A
C1     O69     1.293   .     A
C2     C29     1.409   .     A
C2     H61     1.083   .     S
C2     C6      1.406   .     A
C3     O79     1.284   .     A
C3     C7      1.406   .     S
C3     O76     1.284   .     A
C4     C8      1.406   .     S
C4     O78     1.284   .     A
C4     O77     1.284   .     A
C5     C32     1.406   .     A
C5     C30     1.406   .     A
C5     C166    1.507   1_545 S
C6     C31     1.406   .     A
C6     C165    1.507   .     S
C7     C648    1.189   1_554 S
C8     C327    1.189   .     S
C9     O80     1.386   .     S
C9     C14     1.400   .     A
C9     C20     1.409   .     A
C10    C15     1.400   .     A
C10    C21     1.409   .     A
C10    O70     1.386   .     S
C11    O71     1.386   .     S
C11    C21     1.409   .     A
C11    C16     1.400   .     A
C12    O74     1.293   .     A
C12    O73     1.293   .     A
C12    C19     1.470   .     S
C13    C20     1.409   .     A
C13    O72     1.386   .     S
C13    C17     1.400   .     A
C14    C18     1.412   .     A
C14    N65     1.436   .     S
C15    C19     1.412   .     A
C15    N66     1.436   .     S
C16    N67     1.436   .     S
C16    C19     1.412   .     A
C17    C18     1.412   .     A
C17    N68     1.436   .     S
C20    C101    1.465   1_455 S
C21    C100    1.465   .     S
C22    H37     1.109   .     S
C22    H36     1.114   .     S
C22    O80     1.411   .     S
C22    H142    1.109   1_455 S
C23    N63     1.367   .     A
C23    C30     1.409   .     A
C23    H35     1.081   .     S
C24    O70     1.411   .     S
C24    H39     1.114   .     S
C24    H40     1.109   .     S
C24    H118    1.109   .     S
C25    H43     1.109   .     S
C25    O71     1.411   .     S
C25    H42     1.114   .     S
C25    H121    1.109   .     S
C26    O72     1.411   .     S
C26    H45     1.114   .     S
C26    H47     1.109   .     S
C26    H124    1.109   1_455 S
C27    C31     1.409   .     A
C27    H46     1.081   .     S
C27    N64     1.367   .     A
C28    H56     1.081   .     S
C28    C32     1.409   .     A
C28    N63     1.367   .     A
C29    N64     1.367   .     A
C29    H57     1.081   .     S
C30    H58     1.083   .     S
C31    H59     1.083   .     S
C32    H60     1.083   .     S
Cu33   N64     2.005   .     S
Cu33   O78     1.931   .     S
Cu33   O76     1.931   .     S
Cu33   O69     1.962   .     S
Cu33   Cu34    2.669   .     S
Cu33   O74     1.962   .     S
Cu34   O77     1.931   .     S
Cu34   O75     1.962   .     S
Cu34   O79     1.931   .     S
Cu34   N63     2.005   .     S
Cu34   O73     1.962   .     S
H38    C104    1.109   1_455 S
H41    C105    1.109   1_455 S
H44    C106    1.109   .     S
H48    N65     1.046   .     S
H49    N65     1.045   .     S
H50    N66     1.045   .     S
H51    N66     1.046   .     S
H52    N67     1.046   .     S
H53    N67     1.045   .     S
H54    N68     1.045   .     S
H55    N68     1.046   .     S
H62    C102    1.109   .     S
C81    C98     1.470   .     S
C81    O155    1.293   .     A
C81    O149    1.293   .     A
C82    C109    1.409   .     A
C82    H141    1.083   .     S
C82    C86     1.406   .     A
C83    O159    1.284   .     A
C83    C87     1.406   .     S
C83    O156    1.284   .     A
C84    C88     1.406   .     S
C84    O158    1.284   .     A
C84    O157    1.284   .     A
C85    C112    1.406   .     A
C85    C110    1.406   .     A
C85    C246    1.507   1_545 S
C86    C111    1.406   .     A
C86    C245    1.507   .     S
C87    C728    1.189   1_554 S
C88    C407    1.189   .     S
C89    O160    1.386   .     S
C89    C94     1.400   .     A
C89    C100    1.409   .     A
C90    C95     1.400   .     A
C90    C101    1.409   .     A
C90    O150    1.386   .     S
C91    O151    1.386   .     S
C91    C101    1.409   .     A
C91    C96     1.400   .     A
C92    O154    1.293   .     A
C92    O153    1.293   .     A
C92    C99     1.470   .     S
C93    C100    1.409   .     A
C93    O152    1.386   .     S
C93    C97     1.400   .     A
C94    C98     1.412   .     A
C94    N145    1.436   .     S
C95    C99     1.412   .     A
C95    N146    1.436   .     S
C96    N147    1.436   .     S
C96    C99     1.412   .     A
C97    C98     1.412   .     A
C97    N148    1.436   .     S
C101   C20     1.465   1_655 S
C102   H117    1.109   .     S
C102   H116    1.114   .     S
C102   O160    1.411   .     S
C103   N143    1.367   .     A
C103   C110    1.409   .     A
C103   H115    1.081   .     S
C104   O150    1.411   .     S
C104   H119    1.114   .     S
C104   H120    1.109   .     S
C104   H38     1.109   1_655 S
C105   H123    1.109   .     S
C105   O151    1.411   .     S
C105   H122    1.114   .     S
C105   H41     1.109   1_655 S
C106   O152    1.411   .     S
C106   H125    1.114   .     S
C106   H127    1.109   .     S
C107   C111    1.409   .     A
C107   H126    1.081   .     S
C107   N144    1.367   .     A
C108   H136    1.081   .     S
C108   C112    1.409   .     A
C108   N143    1.367   .     A
C109   N144    1.367   .     A
C109   H137    1.081   .     S
C110   H138    1.083   .     S
C111   H139    1.083   .     S
C112   H140    1.083   .     S
Cu113  N144    2.005   .     S
Cu113  O158    1.931   .     S
Cu113  O156    1.931   .     S
Cu113  O149    1.962   .     S
Cu113  Cu114   2.669   .     S
Cu113  O154    1.962   .     S
Cu114  O157    1.931   .     S
Cu114  O155    1.962   .     S
Cu114  O159    1.931   .     S
Cu114  N143    2.005   .     S
Cu114  O153    1.962   .     S
H124   C26     1.109   1_655 S
H128   N145    1.046   .     S
H129   N145    1.045   .     S
H130   N146    1.045   .     S
H131   N146    1.046   .     S
H132   N147    1.046   .     S
H133   N147    1.045   .     S
H134   N148    1.045   .     S
H135   N148    1.046   .     S
H142   C22     1.109   1_655 S
C161   C178    1.470   .     S
C161   O235    1.293   .     A
C161   O229    1.293   .     A
C162   C189    1.409   .     A
C162   H221    1.083   .     S
C162   C166    1.406   .     A
C163   O239    1.284   .     A
C163   C167    1.406   .     S
C163   O236    1.284   .     A
C164   C168    1.406   .     S
C164   O238    1.284   .     A
C164   O237    1.284   .     A
C165   C192    1.406   .     A
C165   C190    1.406   .     A
C166   C191    1.406   .     A
C166   C5      1.507   1_565 S
C167   C808    1.189   1_554 S
C168   C487    1.189   .     S
C169   O240    1.386   .     S
C169   C174    1.400   .     A
C169   C180    1.409   .     A
C170   C175    1.400   .     A
C170   C181    1.409   .     A
C170   O230    1.386   .     S
C171   O231    1.386   .     S
C171   C181    1.409   .     A
C171   C176    1.400   .     A
C172   O234    1.293   .     A
C172   O233    1.293   .     A
C172   C179    1.470   .     S
C173   C180    1.409   .     A
C173   O232    1.386   .     S
C173   C177    1.400   .     A
C174   C178    1.412   .     A
C174   N225    1.436   .     S
C175   C179    1.412   .     A
C175   N226    1.436   .     S
C176   N227    1.436   .     S
C176   C179    1.412   .     A
C177   C178    1.412   .     A
C177   N228    1.436   .     S
C180   C261    1.465   1_455 S
C181   C260    1.465   .     S
C182   H197    1.109   .     S
C182   H196    1.114   .     S
C182   O240    1.411   .     S
C182   H302    1.109   1_455 S
C183   N223    1.367   .     A
C183   C190    1.409   .     A
C183   H195    1.081   .     S
C184   O230    1.411   .     S
C184   H199    1.114   .     S
C184   H200    1.109   .     S
C184   H278    1.109   .     S
C185   H203    1.109   .     S
C185   O231    1.411   .     S
C185   H202    1.114   .     S
C185   H281    1.109   .     S
C186   O232    1.411   .     S
C186   H205    1.114   .     S
C186   H207    1.109   .     S
C186   H284    1.109   1_455 S
C187   C191    1.409   .     A
C187   H206    1.081   .     S
C187   N224    1.367   .     A
C188   H216    1.081   .     S
C188   C192    1.409   .     A
C188   N223    1.367   .     A
C189   N224    1.367   .     A
C189   H217    1.081   .     S
C190   H218    1.083   .     S
C191   H219    1.083   .     S
C192   H220    1.083   .     S
Cu193  N224    2.005   .     S
Cu193  O238    1.931   .     S
Cu193  O236    1.931   .     S
Cu193  O229    1.962   .     S
Cu193  Cu194   2.669   .     S
Cu193  O234    1.962   .     S
Cu194  O237    1.931   .     S
Cu194  O235    1.962   .     S
Cu194  O239    1.931   .     S
Cu194  N223    2.005   .     S
Cu194  O233    1.962   .     S
H198   C264    1.109   1_455 S
H201   C265    1.109   1_455 S
H204   C266    1.109   .     S
H208   N225    1.046   .     S
H209   N225    1.045   .     S
H210   N226    1.045   .     S
H211   N226    1.046   .     S
H212   N227    1.046   .     S
H213   N227    1.045   .     S
H214   N228    1.045   .     S
H215   N228    1.046   .     S
H222   C262    1.109   .     S
C241   C258    1.470   .     S
C241   O315    1.293   .     A
C241   O309    1.293   .     A
C242   C269    1.409   .     A
C242   H301    1.083   .     S
C242   C246    1.406   .     A
C243   O319    1.284   .     A
C243   C247    1.406   .     S
C243   O316    1.284   .     A
C244   C248    1.406   .     S
C244   O318    1.284   .     A
C244   O317    1.284   .     A
C245   C272    1.406   .     A
C245   C270    1.406   .     A
C246   C271    1.406   .     A
C246   C85     1.507   1_565 S
C247   C888    1.189   1_554 S
C248   C567    1.189   .     S
C249   O320    1.386   .     S
C249   C254    1.400   .     A
C249   C260    1.409   .     A
C250   C255    1.400   .     A
C250   C261    1.409   .     A
C250   O310    1.386   .     S
C251   O311    1.386   .     S
C251   C261    1.409   .     A
C251   C256    1.400   .     A
C252   O314    1.293   .     A
C252   O313    1.293   .     A
C252   C259    1.470   .     S
C253   C260    1.409   .     A
C253   O312    1.386   .     S
C253   C257    1.400   .     A
C254   C258    1.412   .     A
C254   N305    1.436   .     S
C255   C259    1.412   .     A
C255   N306    1.436   .     S
C256   N307    1.436   .     S
C256   C259    1.412   .     A
C257   C258    1.412   .     A
C257   N308    1.436   .     S
C261   C180    1.465   1_655 S
C262   H277    1.109   .     S
C262   H276    1.114   .     S
C262   O320    1.411   .     S
C263   N303    1.367   .     A
C263   C270    1.409   .     A
C263   H275    1.081   .     S
C264   O310    1.411   .     S
C264   H279    1.114   .     S
C264   H280    1.109   .     S
C264   H198    1.109   1_655 S
C265   H283    1.109   .     S
C265   O311    1.411   .     S
C265   H282    1.114   .     S
C265   H201    1.109   1_655 S
C266   O312    1.411   .     S
C266   H285    1.114   .     S
C266   H287    1.109   .     S
C267   C271    1.409   .     A
C267   H286    1.081   .     S
C267   N304    1.367   .     A
C268   H296    1.081   .     S
C268   C272    1.409   .     A
C268   N303    1.367   .     A
C269   N304    1.367   .     A
C269   H297    1.081   .     S
C270   H298    1.083   .     S
C271   H299    1.083   .     S
C272   H300    1.083   .     S
Cu273  N304    2.005   .     S
Cu273  O318    1.931   .     S
Cu273  O316    1.931   .     S
Cu273  O309    1.962   .     S
Cu273  Cu274   2.669   .     S
Cu273  O314    1.962   .     S
Cu274  O317    1.931   .     S
Cu274  O315    1.962   .     S
Cu274  O319    1.931   .     S
Cu274  N303    2.005   .     S
Cu274  O313    1.962   .     S
H284   C186    1.109   1_655 S
H288   N305    1.046   .     S
H289   N305    1.045   .     S
H290   N306    1.045   .     S
H291   N306    1.046   .     S
H292   N307    1.046   .     S
H293   N307    1.045   .     S
H294   N308    1.045   .     S
H295   N308    1.046   .     S
H302   C182    1.109   1_655 S
C321   C338    1.470   .     S
C321   O395    1.293   .     A
C321   O389    1.293   .     A
C322   C349    1.409   .     A
C322   H381    1.083   .     S
C322   C326    1.406   .     A
C323   O399    1.284   .     A
C323   C327    1.406   .     S
C323   O396    1.284   .     A
C324   C328    1.406   .     S
C324   O398    1.284   .     A
C324   O397    1.284   .     A
C325   C352    1.406   .     A
C325   C350    1.406   .     A
C325   C486    1.507   1_545 S
C326   C351    1.406   .     A
C326   C485    1.507   .     S
C328   C647    1.189   .     S
C329   O400    1.386   .     S
C329   C334    1.400   .     A
C329   C340    1.409   .     A
C330   C335    1.400   .     A
C330   C341    1.409   .     A
C330   O390    1.386   .     S
C331   O391    1.386   .     S
C331   C341    1.409   .     A
C331   C336    1.400   .     A
C332   O394    1.293   .     A
C332   O393    1.293   .     A
C332   C339    1.470   .     S
C333   C340    1.409   .     A
C333   O392    1.386   .     S
C333   C337    1.400   .     A
C334   C338    1.412   .     A
C334   N385    1.436   .     S
C335   C339    1.412   .     A
C335   N386    1.436   .     S
C336   N387    1.436   .     S
C336   C339    1.412   .     A
C337   C338    1.412   .     A
C337   N388    1.436   .     S
C340   C421    1.465   1_455 S
C341   C420    1.465   .     S
C342   H357    1.109   .     S
C342   H356    1.114   .     S
C342   O400    1.411   .     S
C342   H462    1.109   1_455 S
C343   N383    1.367   .     A
C343   C350    1.409   .     A
C343   H355    1.081   .     S
C344   O390    1.411   .     S
C344   H359    1.114   .     S
C344   H360    1.109   .     S
C344   H438    1.109   .     S
C345   H363    1.109   .     S
C345   O391    1.411   .     S
C345   H362    1.114   .     S
C345   H441    1.109   .     S
C346   O392    1.411   .     S
C346   H365    1.114   .     S
C346   H367    1.109   .     S
C346   H444    1.109   1_455 S
C347   C351    1.409   .     A
C347   H366    1.081   .     S
C347   N384    1.367   .     A
C348   H376    1.081   .     S
C348   C352    1.409   .     A
C348   N383    1.367   .     A
C349   N384    1.367   .     A
C349   H377    1.081   .     S
C350   H378    1.083   .     S
C351   H379    1.083   .     S
C352   H380    1.083   .     S
Cu353  N384    2.005   .     S
Cu353  O398    1.931   .     S
Cu353  O396    1.931   .     S
Cu353  O389    1.962   .     S
Cu353  Cu354   2.669   .     S
Cu353  O394    1.962   .     S
Cu354  O397    1.931   .     S
Cu354  O395    1.962   .     S
Cu354  O399    1.931   .     S
Cu354  N383    2.005   .     S
Cu354  O393    1.962   .     S
H358   C424    1.109   1_455 S
H361   C425    1.109   1_455 S
H364   C426    1.109   .     S
H368   N385    1.046   .     S
H369   N385    1.045   .     S
H370   N386    1.045   .     S
H371   N386    1.046   .     S
H372   N387    1.046   .     S
H373   N387    1.045   .     S
H374   N388    1.045   .     S
H375   N388    1.046   .     S
H382   C422    1.109   .     S
C401   C418    1.470   .     S
C401   O475    1.293   .     A
C401   O469    1.293   .     A
C402   C429    1.409   .     A
C402   H461    1.083   .     S
C402   C406    1.406   .     A
C403   O479    1.284   .     A
C403   C407    1.406   .     S
C403   O476    1.284   .     A
C404   C408    1.406   .     S
C404   O478    1.284   .     A
C404   O477    1.284   .     A
C405   C432    1.406   .     A
C405   C430    1.406   .     A
C405   C566    1.507   1_545 S
C406   C431    1.406   .     A
C406   C565    1.507   .     S
C408   C727    1.189   .     S
C409   O480    1.386   .     S
C409   C414    1.400   .     A
C409   C420    1.409   .     A
C410   C415    1.400   .     A
C410   C421    1.409   .     A
C410   O470    1.386   .     S
C411   O471    1.386   .     S
C411   C421    1.409   .     A
C411   C416    1.400   .     A
C412   O474    1.293   .     A
C412   O473    1.293   .     A
C412   C419    1.470   .     S
C413   C420    1.409   .     A
C413   O472    1.386   .     S
C413   C417    1.400   .     A
C414   C418    1.412   .     A
C414   N465    1.436   .     S
C415   C419    1.412   .     A
C415   N466    1.436   .     S
C416   N467    1.436   .     S
C416   C419    1.412   .     A
C417   C418    1.412   .     A
C417   N468    1.436   .     S
C421   C340    1.465   1_655 S
C422   H437    1.109   .     S
C422   H436    1.114   .     S
C422   O480    1.411   .     S
C423   N463    1.367   .     A
C423   C430    1.409   .     A
C423   H435    1.081   .     S
C424   O470    1.411   .     S
C424   H439    1.114   .     S
C424   H440    1.109   .     S
C424   H358    1.109   1_655 S
C425   H443    1.109   .     S
C425   O471    1.411   .     S
C425   H442    1.114   .     S
C425   H361    1.109   1_655 S
C426   O472    1.411   .     S
C426   H445    1.114   .     S
C426   H447    1.109   .     S
C427   C431    1.409   .     A
C427   H446    1.081   .     S
C427   N464    1.367   .     A
C428   H456    1.081   .     S
C428   C432    1.409   .     A
C428   N463    1.367   .     A
C429   N464    1.367   .     A
C429   H457    1.081   .     S
C430   H458    1.083   .     S
C431   H459    1.083   .     S
C432   H460    1.083   .     S
Cu433  N464    2.005   .     S
Cu433  O478    1.931   .     S
Cu433  O476    1.931   .     S
Cu433  O469    1.962   .     S
Cu433  Cu434   2.669   .     S
Cu433  O474    1.962   .     S
Cu434  O477    1.931   .     S
Cu434  O475    1.962   .     S
Cu434  O479    1.931   .     S
Cu434  N463    2.005   .     S
Cu434  O473    1.962   .     S
H444   C346    1.109   1_655 S
H448   N465    1.046   .     S
H449   N465    1.045   .     S
H450   N466    1.045   .     S
H451   N466    1.046   .     S
H452   N467    1.046   .     S
H453   N467    1.045   .     S
H454   N468    1.045   .     S
H455   N468    1.046   .     S
H462   C342    1.109   1_655 S
C481   C498    1.470   .     S
C481   O555    1.293   .     A
C481   O549    1.293   .     A
C482   C509    1.409   .     A
C482   H541    1.083   .     S
C482   C486    1.406   .     A
C483   O559    1.284   .     A
C483   C487    1.406   .     S
C483   O556    1.284   .     A
C484   C488    1.406   .     S
C484   O558    1.284   .     A
C484   O557    1.284   .     A
C485   C512    1.406   .     A
C485   C510    1.406   .     A
C486   C511    1.406   .     A
C486   C325    1.507   1_565 S
C488   C807    1.189   .     S
C489   O560    1.386   .     S
C489   C494    1.400   .     A
C489   C500    1.409   .     A
C490   C495    1.400   .     A
C490   C501    1.409   .     A
C490   O550    1.386   .     S
C491   O551    1.386   .     S
C491   C501    1.409   .     A
C491   C496    1.400   .     A
C492   O554    1.293   .     A
C492   O553    1.293   .     A
C492   C499    1.470   .     S
C493   C500    1.409   .     A
C493   O552    1.386   .     S
C493   C497    1.400   .     A
C494   C498    1.412   .     A
C494   N545    1.436   .     S
C495   C499    1.412   .     A
C495   N546    1.436   .     S
C496   N547    1.436   .     S
C496   C499    1.412   .     A
C497   C498    1.412   .     A
C497   N548    1.436   .     S
C500   C581    1.465   1_455 S
C501   C580    1.465   .     S
C502   H517    1.109   .     S
C502   H516    1.114   .     S
C502   O560    1.411   .     S
C502   H622    1.109   1_455 S
C503   N543    1.367   .     A
C503   C510    1.409   .     A
C503   H515    1.081   .     S
C504   O550    1.411   .     S
C504   H519    1.114   .     S
C504   H520    1.109   .     S
C504   H598    1.109   .     S
C505   H523    1.109   .     S
C505   O551    1.411   .     S
C505   H522    1.114   .     S
C505   H601    1.109   .     S
C506   O552    1.411   .     S
C506   H525    1.114   .     S
C506   H527    1.109   .     S
C506   H604    1.109   1_455 S
C507   C511    1.409   .     A
C507   H526    1.081   .     S
C507   N544    1.367   .     A
C508   H536    1.081   .     S
C508   C512    1.409   .     A
C508   N543    1.367   .     A
C509   N544    1.367   .     A
C509   H537    1.081   .     S
C510   H538    1.083   .     S
C511   H539    1.083   .     S
C512   H540    1.083   .     S
Cu513  N544    2.005   .     S
Cu513  O558    1.931   .     S
Cu513  O556    1.931   .     S
Cu513  O549    1.962   .     S
Cu513  Cu514   2.669   .     S
Cu513  O554    1.962   .     S
Cu514  O557    1.931   .     S
Cu514  O555    1.962   .     S
Cu514  O559    1.931   .     S
Cu514  N543    2.005   .     S
Cu514  O553    1.962   .     S
H518   C584    1.109   1_455 S
H521   C585    1.109   1_455 S
H524   C586    1.109   .     S
H528   N545    1.046   .     S
H529   N545    1.045   .     S
H530   N546    1.045   .     S
H531   N546    1.046   .     S
H532   N547    1.046   .     S
H533   N547    1.045   .     S
H534   N548    1.045   .     S
H535   N548    1.046   .     S
H542   C582    1.109   .     S
C561   C578    1.470   .     S
C561   O635    1.293   .     A
C561   O629    1.293   .     A
C562   C589    1.409   .     A
C562   H621    1.083   .     S
C562   C566    1.406   .     A
C563   O639    1.284   .     A
C563   C567    1.406   .     S
C563   O636    1.284   .     A
C564   C568    1.406   .     S
C564   O638    1.284   .     A
C564   O637    1.284   .     A
C565   C592    1.406   .     A
C565   C590    1.406   .     A
C566   C591    1.406   .     A
C566   C405    1.507   1_565 S
C568   C887    1.189   .     S
C569   O640    1.386   .     S
C569   C574    1.400   .     A
C569   C580    1.409   .     A
C570   C575    1.400   .     A
C570   C581    1.409   .     A
C570   O630    1.386   .     S
C571   O631    1.386   .     S
C571   C581    1.409   .     A
C571   C576    1.400   .     A
C572   O634    1.293   .     A
C572   O633    1.293   .     A
C572   C579    1.470   .     S
C573   C580    1.409   .     A
C573   O632    1.386   .     S
C573   C577    1.400   .     A
C574   C578    1.412   .     A
C574   N625    1.436   .     S
C575   C579    1.412   .     A
C575   N626    1.436   .     S
C576   N627    1.436   .     S
C576   C579    1.412   .     A
C577   C578    1.412   .     A
C577   N628    1.436   .     S
C581   C500    1.465   1_655 S
C582   H597    1.109   .     S
C582   H596    1.114   .     S
C582   O640    1.411   .     S
C583   N623    1.367   .     A
C583   C590    1.409   .     A
C583   H595    1.081   .     S
C584   O630    1.411   .     S
C584   H599    1.114   .     S
C584   H600    1.109   .     S
C584   H518    1.109   1_655 S
C585   H603    1.109   .     S
C585   O631    1.411   .     S
C585   H602    1.114   .     S
C585   H521    1.109   1_655 S
C586   O632    1.411   .     S
C586   H605    1.114   .     S
C586   H607    1.109   .     S
C587   C591    1.409   .     A
C587   H606    1.081   .     S
C587   N624    1.367   .     A
C588   H616    1.081   .     S
C588   C592    1.409   .     A
C588   N623    1.367   .     A
C589   N624    1.367   .     A
C589   H617    1.081   .     S
C590   H618    1.083   .     S
C591   H619    1.083   .     S
C592   H620    1.083   .     S
Cu593  N624    2.005   .     S
Cu593  O638    1.931   .     S
Cu593  O636    1.931   .     S
Cu593  O629    1.962   .     S
Cu593  Cu594   2.669   .     S
Cu593  O634    1.962   .     S
Cu594  O637    1.931   .     S
Cu594  O635    1.962   .     S
Cu594  O639    1.931   .     S
Cu594  N623    2.005   .     S
Cu594  O633    1.962   .     S
H604   C506    1.109   1_655 S
H608   N625    1.046   .     S
H609   N625    1.045   .     S
H610   N626    1.045   .     S
H611   N626    1.046   .     S
H612   N627    1.046   .     S
H613   N627    1.045   .     S
H614   N628    1.045   .     S
H615   N628    1.046   .     S
H622   C502    1.109   1_655 S
C641   C658    1.470   .     S
C641   O715    1.293   .     A
C641   O709    1.293   .     A
C642   C669    1.409   .     A
C642   H701    1.083   .     S
C642   C646    1.406   .     A
C643   O719    1.284   .     A
C643   C647    1.406   .     S
C643   O716    1.284   .     A
C644   C648    1.406   .     S
C644   O718    1.284   .     A
C644   O717    1.284   .     A
C645   C672    1.406   .     A
C645   C670    1.406   .     A
C645   C806    1.507   1_545 S
C646   C671    1.406   .     A
C646   C805    1.507   .     S
C648   C7      1.189   1_556 S
C649   O720    1.386   .     S
C649   C654    1.400   .     A
C649   C660    1.409   .     A
C650   C655    1.400   .     A
C650   C661    1.409   .     A
C650   O710    1.386   .     S
C651   O711    1.386   .     S
C651   C661    1.409   .     A
C651   C656    1.400   .     A
C652   O714    1.293   .     A
C652   O713    1.293   .     A
C652   C659    1.470   .     S
C653   C660    1.409   .     A
C653   O712    1.386   .     S
C653   C657    1.400   .     A
C654   C658    1.412   .     A
C654   N705    1.436   .     S
C655   C659    1.412   .     A
C655   N706    1.436   .     S
C656   N707    1.436   .     S
C656   C659    1.412   .     A
C657   C658    1.412   .     A
C657   N708    1.436   .     S
C660   C741    1.465   1_455 S
C661   C740    1.465   .     S
C662   H677    1.109   .     S
C662   H676    1.114   .     S
C662   O720    1.411   .     S
C662   H782    1.109   1_455 S
C663   N703    1.367   .     A
C663   C670    1.409   .     A
C663   H675    1.081   .     S
C664   O710    1.411   .     S
C664   H679    1.114   .     S
C664   H680    1.109   .     S
C664   H758    1.109   .     S
C665   H683    1.109   .     S
C665   O711    1.411   .     S
C665   H682    1.114   .     S
C665   H761    1.109   .     S
C666   O712    1.411   .     S
C666   H685    1.114   .     S
C666   H687    1.109   .     S
C666   H764    1.109   1_455 S
C667   C671    1.409   .     A
C667   H686    1.081   .     S
C667   N704    1.367   .     A
C668   H696    1.081   .     S
C668   C672    1.409   .     A
C668   N703    1.367   .     A
C669   N704    1.367   .     A
C669   H697    1.081   .     S
C670   H698    1.083   .     S
C671   H699    1.083   .     S
C672   H700    1.083   .     S
Cu673  N704    2.005   .     S
Cu673  O718    1.931   .     S
Cu673  O716    1.931   .     S
Cu673  O709    1.962   .     S
Cu673  Cu674   2.669   .     S
Cu673  O714    1.962   .     S
Cu674  O717    1.931   .     S
Cu674  O715    1.962   .     S
Cu674  O719    1.931   .     S
Cu674  N703    2.005   .     S
Cu674  O713    1.962   .     S
H678   C744    1.109   1_455 S
H681   C745    1.109   1_455 S
H684   C746    1.109   .     S
H688   N705    1.046   .     S
H689   N705    1.045   .     S
H690   N706    1.045   .     S
H691   N706    1.046   .     S
H692   N707    1.046   .     S
H693   N707    1.045   .     S
H694   N708    1.045   .     S
H695   N708    1.046   .     S
H702   C742    1.109   .     S
C721   C738    1.470   .     S
C721   O795    1.293   .     A
C721   O789    1.293   .     A
C722   C749    1.409   .     A
C722   H781    1.083   .     S
C722   C726    1.406   .     A
C723   O799    1.284   .     A
C723   C727    1.406   .     S
C723   O796    1.284   .     A
C724   C728    1.406   .     S
C724   O798    1.284   .     A
C724   O797    1.284   .     A
C725   C752    1.406   .     A
C725   C750    1.406   .     A
C725   C886    1.507   1_545 S
C726   C751    1.406   .     A
C726   C885    1.507   .     S
C728   C87     1.189   1_556 S
C729   O800    1.386   .     S
C729   C734    1.400   .     A
C729   C740    1.409   .     A
C730   C735    1.400   .     A
C730   C741    1.409   .     A
C730   O790    1.386   .     S
C731   O791    1.386   .     S
C731   C741    1.409   .     A
C731   C736    1.400   .     A
C732   O794    1.293   .     A
C732   O793    1.293   .     A
C732   C739    1.470   .     S
C733   C740    1.409   .     A
C733   O792    1.386   .     S
C733   C737    1.400   .     A
C734   C738    1.412   .     A
C734   N785    1.436   .     S
C735   C739    1.412   .     A
C735   N786    1.436   .     S
C736   N787    1.436   .     S
C736   C739    1.412   .     A
C737   C738    1.412   .     A
C737   N788    1.436   .     S
C741   C660    1.465   1_655 S
C742   H757    1.109   .     S
C742   H756    1.114   .     S
C742   O800    1.411   .     S
C743   N783    1.367   .     A
C743   C750    1.409   .     A
C743   H755    1.081   .     S
C744   O790    1.411   .     S
C744   H759    1.114   .     S
C744   H760    1.109   .     S
C744   H678    1.109   1_655 S
C745   H763    1.109   .     S
C745   O791    1.411   .     S
C745   H762    1.114   .     S
C745   H681    1.109   1_655 S
C746   O792    1.411   .     S
C746   H765    1.114   .     S
C746   H767    1.109   .     S
C747   C751    1.409   .     A
C747   H766    1.081   .     S
C747   N784    1.367   .     A
C748   H776    1.081   .     S
C748   C752    1.409   .     A
C748   N783    1.367   .     A
C749   N784    1.367   .     A
C749   H777    1.081   .     S
C750   H778    1.083   .     S
C751   H779    1.083   .     S
C752   H780    1.083   .     S
Cu753  N784    2.005   .     S
Cu753  O798    1.931   .     S
Cu753  O796    1.931   .     S
Cu753  O789    1.962   .     S
Cu753  Cu754   2.669   .     S
Cu753  O794    1.962   .     S
Cu754  O797    1.931   .     S
Cu754  O795    1.962   .     S
Cu754  O799    1.931   .     S
Cu754  N783    2.005   .     S
Cu754  O793    1.962   .     S
H764   C666    1.109   1_655 S
H768   N785    1.046   .     S
H769   N785    1.045   .     S
H770   N786    1.045   .     S
H771   N786    1.046   .     S
H772   N787    1.046   .     S
H773   N787    1.045   .     S
H774   N788    1.045   .     S
H775   N788    1.046   .     S
H782   C662    1.109   1_655 S
C801   C818    1.470   .     S
C801   O875    1.293   .     A
C801   O869    1.293   .     A
C802   C829    1.409   .     A
C802   H861    1.083   .     S
C802   C806    1.406   .     A
C803   O879    1.284   .     A
C803   C807    1.406   .     S
C803   O876    1.284   .     A
C804   C808    1.406   .     S
C804   O878    1.284   .     A
C804   O877    1.284   .     A
C805   C832    1.406   .     A
C805   C830    1.406   .     A
C806   C831    1.406   .     A
C806   C645    1.507   1_565 S
C808   C167    1.189   1_556 S
C809   O880    1.386   .     S
C809   C814    1.400   .     A
C809   C820    1.409   .     A
C810   C815    1.400   .     A
C810   C821    1.409   .     A
C810   O870    1.386   .     S
C811   O871    1.386   .     S
C811   C821    1.409   .     A
C811   C816    1.400   .     A
C812   O874    1.293   .     A
C812   O873    1.293   .     A
C812   C819    1.470   .     S
C813   C820    1.409   .     A
C813   O872    1.386   .     S
C813   C817    1.400   .     A
C814   C818    1.412   .     A
C814   N865    1.436   .     S
C815   C819    1.412   .     A
C815   N866    1.436   .     S
C816   N867    1.436   .     S
C816   C819    1.412   .     A
C817   C818    1.412   .     A
C817   N868    1.436   .     S
C820   C901    1.465   1_455 S
C821   C900    1.465   .     S
C822   H837    1.109   .     S
C822   H836    1.114   .     S
C822   O880    1.411   .     S
C822   H942    1.109   1_455 S
C823   N863    1.367   .     A
C823   C830    1.409   .     A
C823   H835    1.081   .     S
C824   O870    1.411   .     S
C824   H839    1.114   .     S
C824   H840    1.109   .     S
C824   H918    1.109   .     S
C825   H843    1.109   .     S
C825   O871    1.411   .     S
C825   H842    1.114   .     S
C825   H921    1.109   .     S
C826   O872    1.411   .     S
C826   H845    1.114   .     S
C826   H847    1.109   .     S
C826   H924    1.109   1_455 S
C827   C831    1.409   .     A
C827   H846    1.081   .     S
C827   N864    1.367   .     A
C828   H856    1.081   .     S
C828   C832    1.409   .     A
C828   N863    1.367   .     A
C829   N864    1.367   .     A
C829   H857    1.081   .     S
C830   H858    1.083   .     S
C831   H859    1.083   .     S
C832   H860    1.083   .     S
Cu833  N864    2.005   .     S
Cu833  O878    1.931   .     S
Cu833  O876    1.931   .     S
Cu833  O869    1.962   .     S
Cu833  Cu834   2.669   .     S
Cu833  O874    1.962   .     S
Cu834  O877    1.931   .     S
Cu834  O875    1.962   .     S
Cu834  O879    1.931   .     S
Cu834  N863    2.005   .     S
Cu834  O873    1.962   .     S
H838   C904    1.109   1_455 S
H841   C905    1.109   1_455 S
H844   C906    1.109   .     S
H848   N865    1.046   .     S
H849   N865    1.045   .     S
H850   N866    1.045   .     S
H851   N866    1.046   .     S
H852   N867    1.046   .     S
H853   N867    1.045   .     S
H854   N868    1.045   .     S
H855   N868    1.046   .     S
H862   C902    1.109   .     S
C881   C898    1.470   .     S
C881   O955    1.293   .     A
C881   O949    1.293   .     A
C882   C909    1.409   .     A
C882   H941    1.083   .     S
C882   C886    1.406   .     A
C883   O959    1.284   .     A
C883   C887    1.406   .     S
C883   O956    1.284   .     A
C884   C888    1.406   .     S
C884   O958    1.284   .     A
C884   O957    1.284   .     A
C885   C912    1.406   .     A
C885   C910    1.406   .     A
C886   C911    1.406   .     A
C886   C725    1.507   1_565 S
C888   C247    1.189   1_556 S
C889   O960    1.386   .     S
C889   C894    1.400   .     A
C889   C900    1.409   .     A
C890   C895    1.400   .     A
C890   C901    1.409   .     A
C890   O950    1.386   .     S
C891   O951    1.386   .     S
C891   C901    1.409   .     A
C891   C896    1.400   .     A
C892   O954    1.293   .     A
C892   O953    1.293   .     A
C892   C899    1.470   .     S
C893   C900    1.409   .     A
C893   O952    1.386   .     S
C893   C897    1.400   .     A
C894   C898    1.412   .     A
C894   N945    1.436   .     S
C895   C899    1.412   .     A
C895   N946    1.436   .     S
C896   N947    1.436   .     S
C896   C899    1.412   .     A
C897   C898    1.412   .     A
C897   N948    1.436   .     S
C901   C820    1.465   1_655 S
C902   H917    1.109   .     S
C902   H916    1.114   .     S
C902   O960    1.411   .     S
C903   N943    1.367   .     A
C903   C910    1.409   .     A
C903   H915    1.081   .     S
C904   O950    1.411   .     S
C904   H919    1.114   .     S
C904   H920    1.109   .     S
C904   H838    1.109   1_655 S
C905   H923    1.109   .     S
C905   O951    1.411   .     S
C905   H922    1.114   .     S
C905   H841    1.109   1_655 S
C906   O952    1.411   .     S
C906   H925    1.114   .     S
C906   H927    1.109   .     S
C907   C911    1.409   .     A
C907   H926    1.081   .     S
C907   N944    1.367   .     A
C908   H936    1.081   .     S
C908   C912    1.409   .     A
C908   N943    1.367   .     A
C909   N944    1.367   .     A
C909   H937    1.081   .     S
C910   H938    1.083   .     S
C911   H939    1.083   .     S
C912   H940    1.083   .     S
Cu913  N944    2.005   .     S
Cu913  O958    1.931   .     S
Cu913  O956    1.931   .     S
Cu913  O949    1.962   .     S
Cu913  Cu914   2.669   .     S
Cu913  O954    1.962   .     S
Cu914  O957    1.931   .     S
Cu914  O955    1.962   .     S
Cu914  O959    1.931   .     S
Cu914  N943    2.005   .     S
Cu914  O953    1.962   .     S
H924   C826    1.109   1_655 S
H928   N945    1.046   .     S
H929   N945    1.045   .     S
H930   N946    1.045   .     S
H931   N946    1.046   .     S
H932   N947    1.046   .     S
H933   N947    1.045   .     S
H934   N948    1.045   .     S
H935   N948    1.046   .     S
H942   C822    1.109   1_655 S
