data_str_m2_o5_o17_pcu_sym.8
_audit_creation_date              2020-01-03
_audit_creation_method            'Materials Studio'
_symmetry_space_group_name_H-M    'P1'
_symmetry_Int_Tables_number       1
_symmetry_cell_setting            triclinic
loop_
_symmetry_equiv_pos_as_xyz
  x,y,z
_cell_length_a                    30.2296
_cell_length_b                    27.3642
_cell_length_c                    23.3260
_cell_angle_alpha                 90.3252
_cell_angle_beta                  90.0104
_cell_angle_gamma                 89.4428
loop_
_atom_site_label
_atom_site_type_symbol
_atom_site_fract_x
_atom_site_fract_y
_atom_site_fract_z
_atom_site_U_iso_or_equiv
_atom_site_adp_type
_atom_site_occupancy
O1     O     0.25000   0.09613   0.21425   0.00000  Uiso   1.00
O2     O     0.25000   0.23720   0.11908   0.00000  Uiso   1.00
O3     O     0.25000   0.23720   0.21425   0.00000  Uiso   1.00
O4     O     0.25000   0.09613   0.11908   0.00000  Uiso   1.00
C5     C     0.25056   0.07331   0.16654   0.00000  Uiso   1.00
C6     C     0.25013   0.26001   0.16675   0.00000  Uiso   1.00
O7     O     0.18513   0.16667   0.21427   0.00000  Uiso   1.00
O8     O     0.31487   0.16667   0.11907   0.00000  Uiso   1.00
O9     O     0.31487   0.16667   0.21427   0.00000  Uiso   1.00
O10    O     0.18513   0.16667   0.11907   0.00000  Uiso   1.00
C11    C     0.16416   0.16922   0.16685   0.00000  Uiso   1.00
C12    C     0.33577   0.16902   0.16684   0.00000  Uiso   1.00
Cu13   Cu    0.25000   0.16667   0.22303   0.00000  Uiso   1.00
Cu14   Cu    0.25000   0.16667   0.11031   0.00000  Uiso   1.00
N15    N     0.25000   0.16667   0.02561   0.00000  Uiso   1.00
N16    N     0.25000   0.16667   0.30773   0.00000  Uiso   1.00
C17    C     0.40654   0.21269   0.18680   0.00000  Uiso   1.00
C18    C     0.09282   0.13055   0.14185   0.00000  Uiso   1.00
C19    C     0.40776   0.13006   0.14332   0.00000  Uiso   1.00
C20    C     0.09233   0.21188   0.18851   0.00000  Uiso   1.00
C21    C     0.38420   0.17033   0.16698   0.00000  Uiso   1.00
C22    C     0.11561   0.17025   0.16697   0.00000  Uiso   1.00
C23    C     0.45360   0.13400   0.13412   0.00000  Uiso   1.00
C24    C     0.04618   0.21523   0.17873   0.00000  Uiso   1.00
C25    C     0.45268   0.21561   0.17766   0.00000  Uiso   1.00
C26    C     0.04680   0.13434   0.13340   0.00000  Uiso   1.00
C27    C     0.47635   0.17486   0.15575   0.00000  Uiso   1.00
C28    C     0.02329   0.17487   0.15579   0.00000  Uiso   1.00
C29    C     0.47751   0.09926   0.10189   0.00000  Uiso   1.00
C30    C     0.02197   0.25859   0.18759   0.00000  Uiso   1.00
C31    C     0.47613   0.25892   0.18641   0.00000  Uiso   1.00
C32    C     0.02340   0.09956   0.10132   0.00000  Uiso   1.00
C33    C     0.25051   0.02175   0.16646   0.00000  Uiso   1.00
C34    C     0.25034   0.31156   0.16674   0.00000  Uiso   1.00
H35    H     0.46119   0.07235   0.07551   0.00000  Uiso   1.00
H36    H     0.03765   0.29326   0.19266   0.00000  Uiso   1.00
H37    H     0.45980   0.29389   0.19003   0.00000  Uiso   1.00
H38    H     0.04013   0.07278   0.07471   0.00000  Uiso   1.00
S39    S     0.37708   0.26020   0.22522   0.00000  Uiso   1.00
O40    O     0.35202   0.29029   0.18229   0.00000  Uiso   1.00
O41    O     0.34470   0.23935   0.26703   0.00000  Uiso   1.00
O42    O     0.40990   0.29725   0.26380   0.00000  Uiso   1.00
H43    H     0.42282   0.27612   0.29395   0.00000  Uiso   1.00
S44    S     0.12091   0.07338   0.13097   0.00000  Uiso   1.00
O45    O     0.14195   0.07274   0.07262   0.00000  Uiso   1.00
O46    O     0.15602   0.06663   0.17576   0.00000  Uiso   1.00
O47    O     0.08649   0.02588   0.13643   0.00000  Uiso   1.00
H48    H     0.07213   0.03080   0.17418   0.00000  Uiso   1.00
S49    S     0.38061   0.07254   0.13580   0.00000  Uiso   1.00
O50    O     0.35455   0.07208   0.08095   0.00000  Uiso   1.00
O51    O     0.41244   0.03003   0.13560   0.00000  Uiso   1.00
O52    O     0.34597   0.06506   0.19129   0.00000  Uiso   1.00
H53    H     0.36520   0.06487   0.22568   0.00000  Uiso   1.00
S54    S     0.12079   0.25671   0.23131   0.00000  Uiso   1.00
O55    O     0.15070   0.28513   0.19272   0.00000  Uiso   1.00
O56    O     0.09030   0.29161   0.26221   0.00000  Uiso   1.00
O57    O     0.15123   0.22922   0.28235   0.00000  Uiso   1.00
H58    H     0.17151   0.25475   0.29668   0.00000  Uiso   1.00
O59    O     0.75000   0.09613   0.21425   0.00000  Uiso   1.00
O60    O     0.75000   0.23720   0.11908   0.00000  Uiso   1.00
O61    O     0.75000   0.23720   0.21425   0.00000  Uiso   1.00
O62    O     0.75000   0.09613   0.11908   0.00000  Uiso   1.00
C63    C     0.75056   0.07331   0.16654   0.00000  Uiso   1.00
C64    C     0.75013   0.26001   0.16675   0.00000  Uiso   1.00
O65    O     0.68513   0.16667   0.21427   0.00000  Uiso   1.00
O66    O     0.81487   0.16667   0.11907   0.00000  Uiso   1.00
O67    O     0.81487   0.16667   0.21427   0.00000  Uiso   1.00
O68    O     0.68513   0.16667   0.11907   0.00000  Uiso   1.00
C69    C     0.66416   0.16922   0.16685   0.00000  Uiso   1.00
C70    C     0.83577   0.16902   0.16684   0.00000  Uiso   1.00
Cu71   Cu    0.75000   0.16667   0.22303   0.00000  Uiso   1.00
Cu72   Cu    0.75000   0.16667   0.11031   0.00000  Uiso   1.00
N73    N     0.75000   0.16667   0.02561   0.00000  Uiso   1.00
N74    N     0.75000   0.16667   0.30773   0.00000  Uiso   1.00
C75    C     0.90654   0.21269   0.18680   0.00000  Uiso   1.00
C76    C     0.59282   0.13055   0.14185   0.00000  Uiso   1.00
C77    C     0.90776   0.13006   0.14332   0.00000  Uiso   1.00
C78    C     0.59233   0.21188   0.18851   0.00000  Uiso   1.00
C79    C     0.88420   0.17033   0.16698   0.00000  Uiso   1.00
C80    C     0.61561   0.17025   0.16697   0.00000  Uiso   1.00
C81    C     0.95360   0.13400   0.13412   0.00000  Uiso   1.00
C82    C     0.54618   0.21523   0.17873   0.00000  Uiso   1.00
C83    C     0.95268   0.21561   0.17766   0.00000  Uiso   1.00
C84    C     0.54680   0.13434   0.13340   0.00000  Uiso   1.00
C85    C     0.97635   0.17486   0.15575   0.00000  Uiso   1.00
C86    C     0.52329   0.17487   0.15579   0.00000  Uiso   1.00
C87    C     0.97751   0.09926   0.10189   0.00000  Uiso   1.00
C88    C     0.52197   0.25859   0.18759   0.00000  Uiso   1.00
C89    C     0.97613   0.25892   0.18641   0.00000  Uiso   1.00
C90    C     0.52340   0.09956   0.10132   0.00000  Uiso   1.00
C91    C     0.75051   0.02175   0.16646   0.00000  Uiso   1.00
C92    C     0.75034   0.31156   0.16674   0.00000  Uiso   1.00
H93    H     0.96119   0.07235   0.07551   0.00000  Uiso   1.00
H94    H     0.53765   0.29326   0.19266   0.00000  Uiso   1.00
H95    H     0.95980   0.29389   0.19003   0.00000  Uiso   1.00
H96    H     0.54013   0.07278   0.07471   0.00000  Uiso   1.00
S97    S     0.87708   0.26020   0.22522   0.00000  Uiso   1.00
O98    O     0.85202   0.29029   0.18229   0.00000  Uiso   1.00
O99    O     0.84470   0.23935   0.26703   0.00000  Uiso   1.00
O100   O     0.90990   0.29725   0.26380   0.00000  Uiso   1.00
H101   H     0.92282   0.27612   0.29395   0.00000  Uiso   1.00
S102   S     0.62091   0.07338   0.13097   0.00000  Uiso   1.00
O103   O     0.64195   0.07274   0.07262   0.00000  Uiso   1.00
O104   O     0.65602   0.06663   0.17576   0.00000  Uiso   1.00
O105   O     0.58649   0.02588   0.13643   0.00000  Uiso   1.00
H106   H     0.57213   0.03080   0.17418   0.00000  Uiso   1.00
S107   S     0.88061   0.07254   0.13580   0.00000  Uiso   1.00
O108   O     0.85455   0.07208   0.08095   0.00000  Uiso   1.00
O109   O     0.91244   0.03003   0.13560   0.00000  Uiso   1.00
O110   O     0.84597   0.06506   0.19129   0.00000  Uiso   1.00
H111   H     0.86520   0.06487   0.22568   0.00000  Uiso   1.00
S112   S     0.62079   0.25671   0.23131   0.00000  Uiso   1.00
O113   O     0.65070   0.28513   0.19272   0.00000  Uiso   1.00
O114   O     0.59030   0.29161   0.26221   0.00000  Uiso   1.00
O115   O     0.65123   0.22922   0.28235   0.00000  Uiso   1.00
H116   H     0.67151   0.25475   0.29668   0.00000  Uiso   1.00
O117   O     0.25000   0.42946   0.21425   0.00000  Uiso   1.00
O118   O     0.25000   0.57054   0.11908   0.00000  Uiso   1.00
O119   O     0.25000   0.57054   0.21425   0.00000  Uiso   1.00
O120   O     0.25000   0.42946   0.11908   0.00000  Uiso   1.00
C121   C     0.25056   0.40665   0.16654   0.00000  Uiso   1.00
C122   C     0.25013   0.59335   0.16675   0.00000  Uiso   1.00
O123   O     0.18513   0.50000   0.21427   0.00000  Uiso   1.00
O124   O     0.31487   0.50000   0.11907   0.00000  Uiso   1.00
O125   O     0.31487   0.50000   0.21427   0.00000  Uiso   1.00
O126   O     0.18513   0.50000   0.11907   0.00000  Uiso   1.00
C127   C     0.16416   0.50255   0.16685   0.00000  Uiso   1.00
C128   C     0.33577   0.50235   0.16684   0.00000  Uiso   1.00
Cu129  Cu    0.25000   0.50000   0.22303   0.00000  Uiso   1.00
Cu130  Cu    0.25000   0.50000   0.11031   0.00000  Uiso   1.00
N131   N     0.25000   0.50000   0.02561   0.00000  Uiso   1.00
N132   N     0.25000   0.50000   0.30773   0.00000  Uiso   1.00
C133   C     0.40654   0.54603   0.18680   0.00000  Uiso   1.00
C134   C     0.09282   0.46389   0.14185   0.00000  Uiso   1.00
C135   C     0.40776   0.46339   0.14332   0.00000  Uiso   1.00
C136   C     0.09233   0.54521   0.18851   0.00000  Uiso   1.00
C137   C     0.38420   0.50366   0.16698   0.00000  Uiso   1.00
C138   C     0.11561   0.50358   0.16697   0.00000  Uiso   1.00
C139   C     0.45360   0.46733   0.13412   0.00000  Uiso   1.00
C140   C     0.04618   0.54857   0.17873   0.00000  Uiso   1.00
C141   C     0.45268   0.54894   0.17766   0.00000  Uiso   1.00
C142   C     0.04680   0.46767   0.13340   0.00000  Uiso   1.00
C143   C     0.47635   0.50819   0.15575   0.00000  Uiso   1.00
C144   C     0.02329   0.50820   0.15579   0.00000  Uiso   1.00
C145   C     0.47751   0.43259   0.10189   0.00000  Uiso   1.00
C146   C     0.02197   0.59193   0.18759   0.00000  Uiso   1.00
C147   C     0.47613   0.59225   0.18641   0.00000  Uiso   1.00
C148   C     0.02340   0.43290   0.10132   0.00000  Uiso   1.00
C149   C     0.25051   0.35508   0.16646   0.00000  Uiso   1.00
C150   C     0.25034   0.64489   0.16674   0.00000  Uiso   1.00
H151   H     0.46119   0.40568   0.07551   0.00000  Uiso   1.00
H152   H     0.03765   0.62659   0.19266   0.00000  Uiso   1.00
H153   H     0.45980   0.62722   0.19003   0.00000  Uiso   1.00
H154   H     0.04013   0.40611   0.07471   0.00000  Uiso   1.00
S155   S     0.37708   0.59353   0.22522   0.00000  Uiso   1.00
O156   O     0.35202   0.62362   0.18229   0.00000  Uiso   1.00
O157   O     0.34470   0.57268   0.26703   0.00000  Uiso   1.00
O158   O     0.40990   0.63058   0.26380   0.00000  Uiso   1.00
H159   H     0.42282   0.60945   0.29395   0.00000  Uiso   1.00
S160   S     0.12091   0.40671   0.13097   0.00000  Uiso   1.00
O161   O     0.14195   0.40607   0.07262   0.00000  Uiso   1.00
O162   O     0.15602   0.39996   0.17576   0.00000  Uiso   1.00
O163   O     0.08649   0.35921   0.13643   0.00000  Uiso   1.00
H164   H     0.07213   0.36414   0.17418   0.00000  Uiso   1.00
S165   S     0.38061   0.40587   0.13580   0.00000  Uiso   1.00
O166   O     0.35455   0.40542   0.08095   0.00000  Uiso   1.00
O167   O     0.41244   0.36336   0.13560   0.00000  Uiso   1.00
O168   O     0.34597   0.39840   0.19129   0.00000  Uiso   1.00
H169   H     0.36520   0.39820   0.22568   0.00000  Uiso   1.00
S170   S     0.12079   0.59004   0.23131   0.00000  Uiso   1.00
O171   O     0.15070   0.61847   0.19272   0.00000  Uiso   1.00
O172   O     0.09030   0.62494   0.26221   0.00000  Uiso   1.00
O173   O     0.15123   0.56256   0.28235   0.00000  Uiso   1.00
H174   H     0.17151   0.58809   0.29668   0.00000  Uiso   1.00
O175   O     0.75000   0.42946   0.21425   0.00000  Uiso   1.00
O176   O     0.75000   0.57054   0.11908   0.00000  Uiso   1.00
O177   O     0.75000   0.57054   0.21425   0.00000  Uiso   1.00
O178   O     0.75000   0.42946   0.11908   0.00000  Uiso   1.00
C179   C     0.75056   0.40665   0.16654   0.00000  Uiso   1.00
C180   C     0.75013   0.59335   0.16675   0.00000  Uiso   1.00
O181   O     0.68513   0.50000   0.21427   0.00000  Uiso   1.00
O182   O     0.81487   0.50000   0.11907   0.00000  Uiso   1.00
O183   O     0.81487   0.50000   0.21427   0.00000  Uiso   1.00
O184   O     0.68513   0.50000   0.11907   0.00000  Uiso   1.00
C185   C     0.66416   0.50255   0.16685   0.00000  Uiso   1.00
C186   C     0.83577   0.50235   0.16684   0.00000  Uiso   1.00
Cu187  Cu    0.75000   0.50000   0.22303   0.00000  Uiso   1.00
Cu188  Cu    0.75000   0.50000   0.11031   0.00000  Uiso   1.00
N189   N     0.75000   0.50000   0.02561   0.00000  Uiso   1.00
N190   N     0.75000   0.50000   0.30773   0.00000  Uiso   1.00
C191   C     0.90654   0.54603   0.18680   0.00000  Uiso   1.00
C192   C     0.59282   0.46389   0.14185   0.00000  Uiso   1.00
C193   C     0.90776   0.46339   0.14332   0.00000  Uiso   1.00
C194   C     0.59233   0.54521   0.18851   0.00000  Uiso   1.00
C195   C     0.88420   0.50366   0.16698   0.00000  Uiso   1.00
C196   C     0.61561   0.50358   0.16697   0.00000  Uiso   1.00
C197   C     0.95360   0.46733   0.13412   0.00000  Uiso   1.00
C198   C     0.54618   0.54857   0.17873   0.00000  Uiso   1.00
C199   C     0.95268   0.54894   0.17766   0.00000  Uiso   1.00
C200   C     0.54680   0.46767   0.13340   0.00000  Uiso   1.00
C201   C     0.97635   0.50819   0.15575   0.00000  Uiso   1.00
C202   C     0.52329   0.50820   0.15579   0.00000  Uiso   1.00
C203   C     0.97751   0.43259   0.10189   0.00000  Uiso   1.00
C204   C     0.52197   0.59193   0.18759   0.00000  Uiso   1.00
C205   C     0.97613   0.59225   0.18641   0.00000  Uiso   1.00
C206   C     0.52340   0.43290   0.10132   0.00000  Uiso   1.00
C207   C     0.75051   0.35508   0.16646   0.00000  Uiso   1.00
C208   C     0.75034   0.64489   0.16674   0.00000  Uiso   1.00
H209   H     0.96119   0.40568   0.07551   0.00000  Uiso   1.00
H210   H     0.53765   0.62659   0.19266   0.00000  Uiso   1.00
H211   H     0.95980   0.62722   0.19003   0.00000  Uiso   1.00
H212   H     0.54013   0.40611   0.07471   0.00000  Uiso   1.00
S213   S     0.87708   0.59353   0.22522   0.00000  Uiso   1.00
O214   O     0.85202   0.62362   0.18229   0.00000  Uiso   1.00
O215   O     0.84470   0.57268   0.26703   0.00000  Uiso   1.00
O216   O     0.90990   0.63058   0.26380   0.00000  Uiso   1.00
H217   H     0.92282   0.60945   0.29395   0.00000  Uiso   1.00
S218   S     0.62091   0.40671   0.13097   0.00000  Uiso   1.00
O219   O     0.64195   0.40607   0.07262   0.00000  Uiso   1.00
O220   O     0.65602   0.39996   0.17576   0.00000  Uiso   1.00
O221   O     0.58649   0.35921   0.13643   0.00000  Uiso   1.00
H222   H     0.57213   0.36414   0.17418   0.00000  Uiso   1.00
S223   S     0.88061   0.40587   0.13580   0.00000  Uiso   1.00
O224   O     0.85455   0.40542   0.08095   0.00000  Uiso   1.00
O225   O     0.91244   0.36336   0.13560   0.00000  Uiso   1.00
O226   O     0.84597   0.39840   0.19129   0.00000  Uiso   1.00
H227   H     0.86520   0.39820   0.22568   0.00000  Uiso   1.00
S228   S     0.62079   0.59004   0.23131   0.00000  Uiso   1.00
O229   O     0.65070   0.61847   0.19272   0.00000  Uiso   1.00
O230   O     0.59030   0.62494   0.26221   0.00000  Uiso   1.00
O231   O     0.65123   0.56256   0.28235   0.00000  Uiso   1.00
H232   H     0.67151   0.58809   0.29668   0.00000  Uiso   1.00
O233   O     0.25000   0.76280   0.21425   0.00000  Uiso   1.00
O234   O     0.25000   0.90387   0.11908   0.00000  Uiso   1.00
O235   O     0.25000   0.90387   0.21425   0.00000  Uiso   1.00
O236   O     0.25000   0.76280   0.11908   0.00000  Uiso   1.00
C237   C     0.25056   0.73998   0.16654   0.00000  Uiso   1.00
C238   C     0.25013   0.92668   0.16675   0.00000  Uiso   1.00
O239   O     0.18513   0.83333   0.21427   0.00000  Uiso   1.00
O240   O     0.31487   0.83333   0.11907   0.00000  Uiso   1.00
O241   O     0.31487   0.83333   0.21427   0.00000  Uiso   1.00
O242   O     0.18513   0.83333   0.11907   0.00000  Uiso   1.00
C243   C     0.16416   0.83588   0.16685   0.00000  Uiso   1.00
C244   C     0.33577   0.83568   0.16684   0.00000  Uiso   1.00
Cu245  Cu    0.25000   0.83333   0.22303   0.00000  Uiso   1.00
Cu246  Cu    0.25000   0.83333   0.11031   0.00000  Uiso   1.00
N247   N     0.25000   0.83333   0.02561   0.00000  Uiso   1.00
N248   N     0.25000   0.83333   0.30773   0.00000  Uiso   1.00
C249   C     0.40654   0.87936   0.18680   0.00000  Uiso   1.00
C250   C     0.09282   0.79722   0.14185   0.00000  Uiso   1.00
C251   C     0.40776   0.79673   0.14332   0.00000  Uiso   1.00
C252   C     0.09233   0.87855   0.18851   0.00000  Uiso   1.00
C253   C     0.38420   0.83699   0.16698   0.00000  Uiso   1.00
C254   C     0.11561   0.83691   0.16697   0.00000  Uiso   1.00
C255   C     0.45360   0.80066   0.13412   0.00000  Uiso   1.00
C256   C     0.04618   0.88190   0.17873   0.00000  Uiso   1.00
C257   C     0.45268   0.88227   0.17766   0.00000  Uiso   1.00
C258   C     0.04680   0.80100   0.13340   0.00000  Uiso   1.00
C259   C     0.47635   0.84153   0.15575   0.00000  Uiso   1.00
C260   C     0.02329   0.84154   0.15579   0.00000  Uiso   1.00
C261   C     0.47751   0.76592   0.10189   0.00000  Uiso   1.00
C262   C     0.02197   0.92526   0.18759   0.00000  Uiso   1.00
C263   C     0.47613   0.92558   0.18641   0.00000  Uiso   1.00
C264   C     0.02340   0.76623   0.10132   0.00000  Uiso   1.00
C265   C     0.25051   0.68841   0.16646   0.00000  Uiso   1.00
C266   C     0.25034   0.97823   0.16674   0.00000  Uiso   1.00
H267   H     0.46119   0.73902   0.07551   0.00000  Uiso   1.00
H268   H     0.03765   0.95993   0.19266   0.00000  Uiso   1.00
H269   H     0.45980   0.96055   0.19003   0.00000  Uiso   1.00
H270   H     0.04013   0.73944   0.07471   0.00000  Uiso   1.00
S271   S     0.37708   0.92687   0.22522   0.00000  Uiso   1.00
O272   O     0.35202   0.95696   0.18229   0.00000  Uiso   1.00
O273   O     0.34470   0.90601   0.26703   0.00000  Uiso   1.00
O274   O     0.40990   0.96391   0.26380   0.00000  Uiso   1.00
H275   H     0.42282   0.94278   0.29395   0.00000  Uiso   1.00
S276   S     0.12091   0.74005   0.13097   0.00000  Uiso   1.00
O277   O     0.14195   0.73940   0.07262   0.00000  Uiso   1.00
O278   O     0.15602   0.73330   0.17576   0.00000  Uiso   1.00
O279   O     0.08649   0.69255   0.13643   0.00000  Uiso   1.00
H280   H     0.07213   0.69747   0.17418   0.00000  Uiso   1.00
S281   S     0.38061   0.73921   0.13580   0.00000  Uiso   1.00
O282   O     0.35455   0.73875   0.08095   0.00000  Uiso   1.00
O283   O     0.41244   0.69670   0.13560   0.00000  Uiso   1.00
O284   O     0.34597   0.73173   0.19129   0.00000  Uiso   1.00
H285   H     0.36520   0.73153   0.22568   0.00000  Uiso   1.00
S286   S     0.12079   0.92337   0.23131   0.00000  Uiso   1.00
O287   O     0.15070   0.95180   0.19272   0.00000  Uiso   1.00
O288   O     0.09030   0.95827   0.26221   0.00000  Uiso   1.00
O289   O     0.15123   0.89589   0.28235   0.00000  Uiso   1.00
H290   H     0.17151   0.92142   0.29668   0.00000  Uiso   1.00
O291   O     0.75000   0.76280   0.21425   0.00000  Uiso   1.00
O292   O     0.75000   0.90387   0.11908   0.00000  Uiso   1.00
O293   O     0.75000   0.90387   0.21425   0.00000  Uiso   1.00
O294   O     0.75000   0.76280   0.11908   0.00000  Uiso   1.00
C295   C     0.75056   0.73998   0.16654   0.00000  Uiso   1.00
C296   C     0.75013   0.92668   0.16675   0.00000  Uiso   1.00
O297   O     0.68513   0.83333   0.21427   0.00000  Uiso   1.00
O298   O     0.81487   0.83333   0.11907   0.00000  Uiso   1.00
O299   O     0.81487   0.83333   0.21427   0.00000  Uiso   1.00
O300   O     0.68513   0.83333   0.11907   0.00000  Uiso   1.00
C301   C     0.66416   0.83588   0.16685   0.00000  Uiso   1.00
C302   C     0.83577   0.83568   0.16684   0.00000  Uiso   1.00
Cu303  Cu    0.75000   0.83333   0.22303   0.00000  Uiso   1.00
Cu304  Cu    0.75000   0.83333   0.11031   0.00000  Uiso   1.00
N305   N     0.75000   0.83333   0.02561   0.00000  Uiso   1.00
N306   N     0.75000   0.83333   0.30773   0.00000  Uiso   1.00
C307   C     0.90654   0.87936   0.18680   0.00000  Uiso   1.00
C308   C     0.59282   0.79722   0.14185   0.00000  Uiso   1.00
C309   C     0.90776   0.79673   0.14332   0.00000  Uiso   1.00
C310   C     0.59233   0.87855   0.18851   0.00000  Uiso   1.00
C311   C     0.88420   0.83699   0.16698   0.00000  Uiso   1.00
C312   C     0.61561   0.83691   0.16697   0.00000  Uiso   1.00
C313   C     0.95360   0.80066   0.13412   0.00000  Uiso   1.00
C314   C     0.54618   0.88190   0.17873   0.00000  Uiso   1.00
C315   C     0.95268   0.88227   0.17766   0.00000  Uiso   1.00
C316   C     0.54680   0.80100   0.13340   0.00000  Uiso   1.00
C317   C     0.97635   0.84153   0.15575   0.00000  Uiso   1.00
C318   C     0.52329   0.84154   0.15579   0.00000  Uiso   1.00
C319   C     0.97751   0.76592   0.10189   0.00000  Uiso   1.00
C320   C     0.52197   0.92526   0.18759   0.00000  Uiso   1.00
C321   C     0.97613   0.92558   0.18641   0.00000  Uiso   1.00
C322   C     0.52340   0.76623   0.10132   0.00000  Uiso   1.00
C323   C     0.75051   0.68841   0.16646   0.00000  Uiso   1.00
C324   C     0.75034   0.97823   0.16674   0.00000  Uiso   1.00
H325   H     0.96119   0.73902   0.07551   0.00000  Uiso   1.00
H326   H     0.53765   0.95993   0.19266   0.00000  Uiso   1.00
H327   H     0.95980   0.96055   0.19003   0.00000  Uiso   1.00
H328   H     0.54013   0.73944   0.07471   0.00000  Uiso   1.00
S329   S     0.87708   0.92687   0.22522   0.00000  Uiso   1.00
O330   O     0.85202   0.95696   0.18229   0.00000  Uiso   1.00
O331   O     0.84470   0.90601   0.26703   0.00000  Uiso   1.00
O332   O     0.90990   0.96391   0.26380   0.00000  Uiso   1.00
H333   H     0.92282   0.94278   0.29395   0.00000  Uiso   1.00
S334   S     0.62091   0.74005   0.13097   0.00000  Uiso   1.00
O335   O     0.64195   0.73940   0.07262   0.00000  Uiso   1.00
O336   O     0.65602   0.73330   0.17576   0.00000  Uiso   1.00
O337   O     0.58649   0.69255   0.13643   0.00000  Uiso   1.00
H338   H     0.57213   0.69747   0.17418   0.00000  Uiso   1.00
S339   S     0.88061   0.73921   0.13580   0.00000  Uiso   1.00
O340   O     0.85455   0.73875   0.08095   0.00000  Uiso   1.00
O341   O     0.91244   0.69670   0.13560   0.00000  Uiso   1.00
O342   O     0.84597   0.73173   0.19129   0.00000  Uiso   1.00
H343   H     0.86520   0.73153   0.22568   0.00000  Uiso   1.00
S344   S     0.62079   0.92337   0.23131   0.00000  Uiso   1.00
O345   O     0.65070   0.95180   0.19272   0.00000  Uiso   1.00
O346   O     0.59030   0.95827   0.26221   0.00000  Uiso   1.00
O347   O     0.65123   0.89589   0.28235   0.00000  Uiso   1.00
H348   H     0.67151   0.92142   0.29668   0.00000  Uiso   1.00
O349   O     0.25000   0.09613   0.54759   0.00000  Uiso   1.00
O350   O     0.25000   0.23720   0.45241   0.00000  Uiso   1.00
O351   O     0.25000   0.23720   0.54759   0.00000  Uiso   1.00
O352   O     0.25000   0.09613   0.45241   0.00000  Uiso   1.00
C353   C     0.25056   0.07331   0.49987   0.00000  Uiso   1.00
C354   C     0.25013   0.26001   0.50009   0.00000  Uiso   1.00
O355   O     0.18513   0.16667   0.54760   0.00000  Uiso   1.00
O356   O     0.31487   0.16667   0.45240   0.00000  Uiso   1.00
O357   O     0.31487   0.16667   0.54760   0.00000  Uiso   1.00
O358   O     0.18513   0.16667   0.45240   0.00000  Uiso   1.00
C359   C     0.16416   0.16922   0.50018   0.00000  Uiso   1.00
C360   C     0.33577   0.16902   0.50018   0.00000  Uiso   1.00
Cu361  Cu    0.25000   0.16667   0.55636   0.00000  Uiso   1.00
Cu362  Cu    0.25000   0.16667   0.44364   0.00000  Uiso   1.00
N363   N     0.25000   0.16667   0.35894   0.00000  Uiso   1.00
N364   N     0.25000   0.16667   0.64106   0.00000  Uiso   1.00
C365   C     0.40654   0.21269   0.52013   0.00000  Uiso   1.00
C366   C     0.09282   0.13055   0.47518   0.00000  Uiso   1.00
C367   C     0.40776   0.13006   0.47666   0.00000  Uiso   1.00
C368   C     0.09233   0.21188   0.52184   0.00000  Uiso   1.00
C369   C     0.38420   0.17033   0.50032   0.00000  Uiso   1.00
C370   C     0.11561   0.17025   0.50031   0.00000  Uiso   1.00
C371   C     0.45360   0.13400   0.46746   0.00000  Uiso   1.00
C372   C     0.04618   0.21523   0.51206   0.00000  Uiso   1.00
C373   C     0.45268   0.21561   0.51099   0.00000  Uiso   1.00
C374   C     0.04680   0.13434   0.46673   0.00000  Uiso   1.00
C375   C     0.47635   0.17486   0.48909   0.00000  Uiso   1.00
C376   C     0.02329   0.17487   0.48912   0.00000  Uiso   1.00
C377   C     0.47751   0.09926   0.43522   0.00000  Uiso   1.00
C378   C     0.02197   0.25859   0.52093   0.00000  Uiso   1.00
C379   C     0.47613   0.25892   0.51975   0.00000  Uiso   1.00
C380   C     0.02340   0.09956   0.43466   0.00000  Uiso   1.00
C381   C     0.25051   0.02175   0.49979   0.00000  Uiso   1.00
C382   C     0.25034   0.31156   0.50008   0.00000  Uiso   1.00
H383   H     0.46119   0.07235   0.40885   0.00000  Uiso   1.00
H384   H     0.03765   0.29326   0.52599   0.00000  Uiso   1.00
H385   H     0.45980   0.29389   0.52337   0.00000  Uiso   1.00
H386   H     0.04013   0.07278   0.40805   0.00000  Uiso   1.00
S387   S     0.37708   0.26020   0.55855   0.00000  Uiso   1.00
O388   O     0.35202   0.29029   0.51562   0.00000  Uiso   1.00
O389   O     0.34470   0.23935   0.60036   0.00000  Uiso   1.00
O390   O     0.40990   0.29725   0.59713   0.00000  Uiso   1.00
H391   H     0.42282   0.27612   0.62729   0.00000  Uiso   1.00
S392   S     0.12091   0.07338   0.46431   0.00000  Uiso   1.00
O393   O     0.14195   0.07274   0.40596   0.00000  Uiso   1.00
O394   O     0.15602   0.06663   0.50909   0.00000  Uiso   1.00
O395   O     0.08649   0.02588   0.46976   0.00000  Uiso   1.00
H396   H     0.07213   0.03080   0.50752   0.00000  Uiso   1.00
S397   S     0.38061   0.07254   0.46913   0.00000  Uiso   1.00
O398   O     0.35455   0.07208   0.41429   0.00000  Uiso   1.00
O399   O     0.41244   0.03003   0.46894   0.00000  Uiso   1.00
O400   O     0.34597   0.06506   0.52462   0.00000  Uiso   1.00
H401   H     0.36520   0.06487   0.55901   0.00000  Uiso   1.00
S402   S     0.12079   0.25671   0.56464   0.00000  Uiso   1.00
O403   O     0.15070   0.28513   0.52605   0.00000  Uiso   1.00
O404   O     0.09030   0.29161   0.59555   0.00000  Uiso   1.00
O405   O     0.15123   0.22922   0.61568   0.00000  Uiso   1.00
H406   H     0.17151   0.25475   0.63002   0.00000  Uiso   1.00
O407   O     0.75000   0.09613   0.54759   0.00000  Uiso   1.00
O408   O     0.75000   0.23720   0.45241   0.00000  Uiso   1.00
O409   O     0.75000   0.23720   0.54759   0.00000  Uiso   1.00
O410   O     0.75000   0.09613   0.45241   0.00000  Uiso   1.00
C411   C     0.75056   0.07331   0.49987   0.00000  Uiso   1.00
C412   C     0.75013   0.26001   0.50009   0.00000  Uiso   1.00
O413   O     0.68513   0.16667   0.54760   0.00000  Uiso   1.00
O414   O     0.81487   0.16667   0.45240   0.00000  Uiso   1.00
O415   O     0.81487   0.16667   0.54760   0.00000  Uiso   1.00
O416   O     0.68513   0.16667   0.45240   0.00000  Uiso   1.00
C417   C     0.66416   0.16922   0.50018   0.00000  Uiso   1.00
C418   C     0.83577   0.16902   0.50018   0.00000  Uiso   1.00
Cu419  Cu    0.75000   0.16667   0.55636   0.00000  Uiso   1.00
Cu420  Cu    0.75000   0.16667   0.44364   0.00000  Uiso   1.00
N421   N     0.75000   0.16667   0.35894   0.00000  Uiso   1.00
N422   N     0.75000   0.16667   0.64106   0.00000  Uiso   1.00
C423   C     0.90654   0.21269   0.52013   0.00000  Uiso   1.00
C424   C     0.59282   0.13055   0.47518   0.00000  Uiso   1.00
C425   C     0.90776   0.13006   0.47666   0.00000  Uiso   1.00
C426   C     0.59233   0.21188   0.52184   0.00000  Uiso   1.00
C427   C     0.88420   0.17033   0.50032   0.00000  Uiso   1.00
C428   C     0.61561   0.17025   0.50031   0.00000  Uiso   1.00
C429   C     0.95360   0.13400   0.46746   0.00000  Uiso   1.00
C430   C     0.54618   0.21523   0.51206   0.00000  Uiso   1.00
C431   C     0.95268   0.21561   0.51099   0.00000  Uiso   1.00
C432   C     0.54680   0.13434   0.46673   0.00000  Uiso   1.00
C433   C     0.97635   0.17486   0.48909   0.00000  Uiso   1.00
C434   C     0.52329   0.17487   0.48912   0.00000  Uiso   1.00
C435   C     0.97751   0.09926   0.43522   0.00000  Uiso   1.00
C436   C     0.52197   0.25859   0.52093   0.00000  Uiso   1.00
C437   C     0.97613   0.25892   0.51975   0.00000  Uiso   1.00
C438   C     0.52340   0.09956   0.43466   0.00000  Uiso   1.00
C439   C     0.75051   0.02175   0.49979   0.00000  Uiso   1.00
C440   C     0.75034   0.31156   0.50008   0.00000  Uiso   1.00
H441   H     0.96119   0.07235   0.40885   0.00000  Uiso   1.00
H442   H     0.53765   0.29326   0.52599   0.00000  Uiso   1.00
H443   H     0.95980   0.29389   0.52337   0.00000  Uiso   1.00
H444   H     0.54013   0.07278   0.40805   0.00000  Uiso   1.00
S445   S     0.87708   0.26020   0.55855   0.00000  Uiso   1.00
O446   O     0.85202   0.29029   0.51562   0.00000  Uiso   1.00
O447   O     0.84470   0.23935   0.60036   0.00000  Uiso   1.00
O448   O     0.90990   0.29725   0.59713   0.00000  Uiso   1.00
H449   H     0.92282   0.27612   0.62729   0.00000  Uiso   1.00
S450   S     0.62091   0.07338   0.46431   0.00000  Uiso   1.00
O451   O     0.64195   0.07274   0.40596   0.00000  Uiso   1.00
O452   O     0.65602   0.06663   0.50909   0.00000  Uiso   1.00
O453   O     0.58649   0.02588   0.46976   0.00000  Uiso   1.00
H454   H     0.57213   0.03080   0.50752   0.00000  Uiso   1.00
S455   S     0.88061   0.07254   0.46913   0.00000  Uiso   1.00
O456   O     0.85455   0.07208   0.41429   0.00000  Uiso   1.00
O457   O     0.91244   0.03003   0.46894   0.00000  Uiso   1.00
O458   O     0.84597   0.06506   0.52462   0.00000  Uiso   1.00
H459   H     0.86520   0.06487   0.55901   0.00000  Uiso   1.00
S460   S     0.62079   0.25671   0.56464   0.00000  Uiso   1.00
O461   O     0.65070   0.28513   0.52605   0.00000  Uiso   1.00
O462   O     0.59030   0.29161   0.59555   0.00000  Uiso   1.00
O463   O     0.65123   0.22922   0.61568   0.00000  Uiso   1.00
H464   H     0.67151   0.25475   0.63002   0.00000  Uiso   1.00
O465   O     0.25000   0.42946   0.54759   0.00000  Uiso   1.00
O466   O     0.25000   0.57054   0.45241   0.00000  Uiso   1.00
O467   O     0.25000   0.57054   0.54759   0.00000  Uiso   1.00
O468   O     0.25000   0.42946   0.45241   0.00000  Uiso   1.00
C469   C     0.25056   0.40665   0.49987   0.00000  Uiso   1.00
C470   C     0.25013   0.59335   0.50009   0.00000  Uiso   1.00
O471   O     0.18513   0.50000   0.54760   0.00000  Uiso   1.00
O472   O     0.31487   0.50000   0.45240   0.00000  Uiso   1.00
O473   O     0.31487   0.50000   0.54760   0.00000  Uiso   1.00
O474   O     0.18513   0.50000   0.45240   0.00000  Uiso   1.00
C475   C     0.16416   0.50255   0.50018   0.00000  Uiso   1.00
C476   C     0.33577   0.50235   0.50018   0.00000  Uiso   1.00
Cu477  Cu    0.25000   0.50000   0.55636   0.00000  Uiso   1.00
Cu478  Cu    0.25000   0.50000   0.44364   0.00000  Uiso   1.00
N479   N     0.25000   0.50000   0.35894   0.00000  Uiso   1.00
N480   N     0.25000   0.50000   0.64106   0.00000  Uiso   1.00
C481   C     0.40654   0.54603   0.52013   0.00000  Uiso   1.00
C482   C     0.09282   0.46389   0.47518   0.00000  Uiso   1.00
C483   C     0.40776   0.46339   0.47666   0.00000  Uiso   1.00
C484   C     0.09233   0.54521   0.52184   0.00000  Uiso   1.00
C485   C     0.38420   0.50366   0.50032   0.00000  Uiso   1.00
C486   C     0.11561   0.50358   0.50031   0.00000  Uiso   1.00
C487   C     0.45360   0.46733   0.46746   0.00000  Uiso   1.00
C488   C     0.04618   0.54857   0.51206   0.00000  Uiso   1.00
C489   C     0.45268   0.54894   0.51099   0.00000  Uiso   1.00
C490   C     0.04680   0.46767   0.46673   0.00000  Uiso   1.00
C491   C     0.47635   0.50819   0.48909   0.00000  Uiso   1.00
C492   C     0.02329   0.50820   0.48912   0.00000  Uiso   1.00
C493   C     0.47751   0.43259   0.43522   0.00000  Uiso   1.00
C494   C     0.02197   0.59193   0.52093   0.00000  Uiso   1.00
C495   C     0.47613   0.59225   0.51975   0.00000  Uiso   1.00
C496   C     0.02340   0.43290   0.43466   0.00000  Uiso   1.00
C497   C     0.25051   0.35508   0.49979   0.00000  Uiso   1.00
C498   C     0.25034   0.64489   0.50008   0.00000  Uiso   1.00
H499   H     0.46119   0.40568   0.40885   0.00000  Uiso   1.00
H500   H     0.03765   0.62659   0.52599   0.00000  Uiso   1.00
H501   H     0.45980   0.62722   0.52337   0.00000  Uiso   1.00
H502   H     0.04013   0.40611   0.40805   0.00000  Uiso   1.00
S503   S     0.37708   0.59353   0.55855   0.00000  Uiso   1.00
O504   O     0.35202   0.62362   0.51562   0.00000  Uiso   1.00
O505   O     0.34470   0.57268   0.60036   0.00000  Uiso   1.00
O506   O     0.40990   0.63058   0.59713   0.00000  Uiso   1.00
H507   H     0.42282   0.60945   0.62729   0.00000  Uiso   1.00
S508   S     0.12091   0.40671   0.46431   0.00000  Uiso   1.00
O509   O     0.14195   0.40607   0.40596   0.00000  Uiso   1.00
O510   O     0.15602   0.39996   0.50909   0.00000  Uiso   1.00
O511   O     0.08649   0.35921   0.46976   0.00000  Uiso   1.00
H512   H     0.07213   0.36414   0.50752   0.00000  Uiso   1.00
S513   S     0.38061   0.40587   0.46913   0.00000  Uiso   1.00
O514   O     0.35455   0.40542   0.41429   0.00000  Uiso   1.00
O515   O     0.41244   0.36336   0.46894   0.00000  Uiso   1.00
O516   O     0.34597   0.39840   0.52462   0.00000  Uiso   1.00
H517   H     0.36520   0.39820   0.55901   0.00000  Uiso   1.00
S518   S     0.12079   0.59004   0.56464   0.00000  Uiso   1.00
O519   O     0.15070   0.61847   0.52605   0.00000  Uiso   1.00
O520   O     0.09030   0.62494   0.59555   0.00000  Uiso   1.00
O521   O     0.15123   0.56256   0.61568   0.00000  Uiso   1.00
H522   H     0.17151   0.58809   0.63002   0.00000  Uiso   1.00
O523   O     0.75000   0.42946   0.54759   0.00000  Uiso   1.00
O524   O     0.75000   0.57054   0.45241   0.00000  Uiso   1.00
O525   O     0.75000   0.57054   0.54759   0.00000  Uiso   1.00
O526   O     0.75000   0.42946   0.45241   0.00000  Uiso   1.00
C527   C     0.75056   0.40665   0.49987   0.00000  Uiso   1.00
C528   C     0.75013   0.59335   0.50009   0.00000  Uiso   1.00
O529   O     0.68513   0.50000   0.54760   0.00000  Uiso   1.00
O530   O     0.81487   0.50000   0.45240   0.00000  Uiso   1.00
O531   O     0.81487   0.50000   0.54760   0.00000  Uiso   1.00
O532   O     0.68513   0.50000   0.45240   0.00000  Uiso   1.00
C533   C     0.66416   0.50255   0.50018   0.00000  Uiso   1.00
C534   C     0.83577   0.50235   0.50018   0.00000  Uiso   1.00
Cu535  Cu    0.75000   0.50000   0.55636   0.00000  Uiso   1.00
Cu536  Cu    0.75000   0.50000   0.44364   0.00000  Uiso   1.00
N537   N     0.75000   0.50000   0.35894   0.00000  Uiso   1.00
N538   N     0.75000   0.50000   0.64106   0.00000  Uiso   1.00
C539   C     0.90654   0.54603   0.52013   0.00000  Uiso   1.00
C540   C     0.59282   0.46389   0.47518   0.00000  Uiso   1.00
C541   C     0.90776   0.46339   0.47666   0.00000  Uiso   1.00
C542   C     0.59233   0.54521   0.52184   0.00000  Uiso   1.00
C543   C     0.88420   0.50366   0.50032   0.00000  Uiso   1.00
C544   C     0.61561   0.50358   0.50031   0.00000  Uiso   1.00
C545   C     0.95360   0.46733   0.46746   0.00000  Uiso   1.00
C546   C     0.54618   0.54857   0.51206   0.00000  Uiso   1.00
C547   C     0.95268   0.54894   0.51099   0.00000  Uiso   1.00
C548   C     0.54680   0.46767   0.46673   0.00000  Uiso   1.00
C549   C     0.97635   0.50819   0.48909   0.00000  Uiso   1.00
C550   C     0.52329   0.50820   0.48912   0.00000  Uiso   1.00
C551   C     0.97751   0.43259   0.43522   0.00000  Uiso   1.00
C552   C     0.52197   0.59193   0.52093   0.00000  Uiso   1.00
C553   C     0.97613   0.59225   0.51975   0.00000  Uiso   1.00
C554   C     0.52340   0.43290   0.43466   0.00000  Uiso   1.00
C555   C     0.75051   0.35508   0.49979   0.00000  Uiso   1.00
C556   C     0.75034   0.64489   0.50008   0.00000  Uiso   1.00
H557   H     0.96119   0.40568   0.40885   0.00000  Uiso   1.00
H558   H     0.53765   0.62659   0.52599   0.00000  Uiso   1.00
H559   H     0.95980   0.62722   0.52337   0.00000  Uiso   1.00
H560   H     0.54013   0.40611   0.40805   0.00000  Uiso   1.00
S561   S     0.87708   0.59353   0.55855   0.00000  Uiso   1.00
O562   O     0.85202   0.62362   0.51562   0.00000  Uiso   1.00
O563   O     0.84470   0.57268   0.60036   0.00000  Uiso   1.00
O564   O     0.90990   0.63058   0.59713   0.00000  Uiso   1.00
H565   H     0.92282   0.60945   0.62729   0.00000  Uiso   1.00
S566   S     0.62091   0.40671   0.46431   0.00000  Uiso   1.00
O567   O     0.64195   0.40607   0.40596   0.00000  Uiso   1.00
O568   O     0.65602   0.39996   0.50909   0.00000  Uiso   1.00
O569   O     0.58649   0.35921   0.46976   0.00000  Uiso   1.00
H570   H     0.57213   0.36414   0.50752   0.00000  Uiso   1.00
S571   S     0.88061   0.40587   0.46913   0.00000  Uiso   1.00
O572   O     0.85455   0.40542   0.41429   0.00000  Uiso   1.00
O573   O     0.91244   0.36336   0.46894   0.00000  Uiso   1.00
O574   O     0.84597   0.39840   0.52462   0.00000  Uiso   1.00
H575   H     0.86520   0.39820   0.55901   0.00000  Uiso   1.00
S576   S     0.62079   0.59004   0.56464   0.00000  Uiso   1.00
O577   O     0.65070   0.61847   0.52605   0.00000  Uiso   1.00
O578   O     0.59030   0.62494   0.59555   0.00000  Uiso   1.00
O579   O     0.65123   0.56256   0.61568   0.00000  Uiso   1.00
H580   H     0.67151   0.58809   0.63002   0.00000  Uiso   1.00
O581   O     0.25000   0.76280   0.54759   0.00000  Uiso   1.00
O582   O     0.25000   0.90387   0.45241   0.00000  Uiso   1.00
O583   O     0.25000   0.90387   0.54759   0.00000  Uiso   1.00
O584   O     0.25000   0.76280   0.45241   0.00000  Uiso   1.00
C585   C     0.25056   0.73998   0.49987   0.00000  Uiso   1.00
C586   C     0.25013   0.92668   0.50009   0.00000  Uiso   1.00
O587   O     0.18513   0.83333   0.54760   0.00000  Uiso   1.00
O588   O     0.31487   0.83333   0.45240   0.00000  Uiso   1.00
O589   O     0.31487   0.83333   0.54760   0.00000  Uiso   1.00
O590   O     0.18513   0.83333   0.45240   0.00000  Uiso   1.00
C591   C     0.16416   0.83588   0.50018   0.00000  Uiso   1.00
C592   C     0.33577   0.83568   0.50018   0.00000  Uiso   1.00
Cu593  Cu    0.25000   0.83333   0.55636   0.00000  Uiso   1.00
Cu594  Cu    0.25000   0.83333   0.44364   0.00000  Uiso   1.00
N595   N     0.25000   0.83333   0.35894   0.00000  Uiso   1.00
N596   N     0.25000   0.83333   0.64106   0.00000  Uiso   1.00
C597   C     0.40654   0.87936   0.52013   0.00000  Uiso   1.00
C598   C     0.09282   0.79722   0.47518   0.00000  Uiso   1.00
C599   C     0.40776   0.79673   0.47666   0.00000  Uiso   1.00
C600   C     0.09233   0.87855   0.52184   0.00000  Uiso   1.00
C601   C     0.38420   0.83699   0.50032   0.00000  Uiso   1.00
C602   C     0.11561   0.83691   0.50031   0.00000  Uiso   1.00
C603   C     0.45360   0.80066   0.46746   0.00000  Uiso   1.00
C604   C     0.04618   0.88190   0.51206   0.00000  Uiso   1.00
C605   C     0.45268   0.88227   0.51099   0.00000  Uiso   1.00
C606   C     0.04680   0.80100   0.46673   0.00000  Uiso   1.00
C607   C     0.47635   0.84153   0.48909   0.00000  Uiso   1.00
C608   C     0.02329   0.84154   0.48912   0.00000  Uiso   1.00
C609   C     0.47751   0.76592   0.43522   0.00000  Uiso   1.00
C610   C     0.02197   0.92526   0.52093   0.00000  Uiso   1.00
C611   C     0.47613   0.92558   0.51975   0.00000  Uiso   1.00
C612   C     0.02340   0.76623   0.43466   0.00000  Uiso   1.00
C613   C     0.25051   0.68841   0.49979   0.00000  Uiso   1.00
C614   C     0.25034   0.97823   0.50008   0.00000  Uiso   1.00
H615   H     0.46119   0.73902   0.40885   0.00000  Uiso   1.00
H616   H     0.03765   0.95993   0.52599   0.00000  Uiso   1.00
H617   H     0.45980   0.96055   0.52337   0.00000  Uiso   1.00
H618   H     0.04013   0.73944   0.40805   0.00000  Uiso   1.00
S619   S     0.37708   0.92687   0.55855   0.00000  Uiso   1.00
O620   O     0.35202   0.95696   0.51562   0.00000  Uiso   1.00
O621   O     0.34470   0.90601   0.60036   0.00000  Uiso   1.00
O622   O     0.40990   0.96391   0.59713   0.00000  Uiso   1.00
H623   H     0.42282   0.94278   0.62729   0.00000  Uiso   1.00
S624   S     0.12091   0.74005   0.46431   0.00000  Uiso   1.00
O625   O     0.14195   0.73940   0.40596   0.00000  Uiso   1.00
O626   O     0.15602   0.73330   0.50909   0.00000  Uiso   1.00
O627   O     0.08649   0.69255   0.46976   0.00000  Uiso   1.00
H628   H     0.07213   0.69747   0.50752   0.00000  Uiso   1.00
S629   S     0.38061   0.73921   0.46913   0.00000  Uiso   1.00
O630   O     0.35455   0.73875   0.41429   0.00000  Uiso   1.00
O631   O     0.41244   0.69670   0.46894   0.00000  Uiso   1.00
O632   O     0.34597   0.73173   0.52462   0.00000  Uiso   1.00
H633   H     0.36520   0.73153   0.55901   0.00000  Uiso   1.00
S634   S     0.12079   0.92337   0.56464   0.00000  Uiso   1.00
O635   O     0.15070   0.95180   0.52605   0.00000  Uiso   1.00
O636   O     0.09030   0.95827   0.59555   0.00000  Uiso   1.00
O637   O     0.15123   0.89589   0.61568   0.00000  Uiso   1.00
H638   H     0.17151   0.92142   0.63002   0.00000  Uiso   1.00
O639   O     0.75000   0.76280   0.54759   0.00000  Uiso   1.00
O640   O     0.75000   0.90387   0.45241   0.00000  Uiso   1.00
O641   O     0.75000   0.90387   0.54759   0.00000  Uiso   1.00
O642   O     0.75000   0.76280   0.45241   0.00000  Uiso   1.00
C643   C     0.75056   0.73998   0.49987   0.00000  Uiso   1.00
C644   C     0.75013   0.92668   0.50009   0.00000  Uiso   1.00
O645   O     0.68513   0.83333   0.54760   0.00000  Uiso   1.00
O646   O     0.81487   0.83333   0.45240   0.00000  Uiso   1.00
O647   O     0.81487   0.83333   0.54760   0.00000  Uiso   1.00
O648   O     0.68513   0.83333   0.45240   0.00000  Uiso   1.00
C649   C     0.66416   0.83588   0.50018   0.00000  Uiso   1.00
C650   C     0.83577   0.83568   0.50018   0.00000  Uiso   1.00
Cu651  Cu    0.75000   0.83333   0.55636   0.00000  Uiso   1.00
Cu652  Cu    0.75000   0.83333   0.44364   0.00000  Uiso   1.00
N653   N     0.75000   0.83333   0.35894   0.00000  Uiso   1.00
N654   N     0.75000   0.83333   0.64106   0.00000  Uiso   1.00
C655   C     0.90654   0.87936   0.52013   0.00000  Uiso   1.00
C656   C     0.59282   0.79722   0.47518   0.00000  Uiso   1.00
C657   C     0.90776   0.79673   0.47666   0.00000  Uiso   1.00
C658   C     0.59233   0.87855   0.52184   0.00000  Uiso   1.00
C659   C     0.88420   0.83699   0.50032   0.00000  Uiso   1.00
C660   C     0.61561   0.83691   0.50031   0.00000  Uiso   1.00
C661   C     0.95360   0.80066   0.46746   0.00000  Uiso   1.00
C662   C     0.54618   0.88190   0.51206   0.00000  Uiso   1.00
C663   C     0.95268   0.88227   0.51099   0.00000  Uiso   1.00
C664   C     0.54680   0.80100   0.46673   0.00000  Uiso   1.00
C665   C     0.97635   0.84153   0.48909   0.00000  Uiso   1.00
C666   C     0.52329   0.84154   0.48912   0.00000  Uiso   1.00
C667   C     0.97751   0.76592   0.43522   0.00000  Uiso   1.00
C668   C     0.52197   0.92526   0.52093   0.00000  Uiso   1.00
C669   C     0.97613   0.92558   0.51975   0.00000  Uiso   1.00
C670   C     0.52340   0.76623   0.43466   0.00000  Uiso   1.00
C671   C     0.75051   0.68841   0.49979   0.00000  Uiso   1.00
C672   C     0.75034   0.97823   0.50008   0.00000  Uiso   1.00
H673   H     0.96119   0.73902   0.40885   0.00000  Uiso   1.00
H674   H     0.53765   0.95993   0.52599   0.00000  Uiso   1.00
H675   H     0.95980   0.96055   0.52337   0.00000  Uiso   1.00
H676   H     0.54013   0.73944   0.40805   0.00000  Uiso   1.00
S677   S     0.87708   0.92687   0.55855   0.00000  Uiso   1.00
O678   O     0.85202   0.95696   0.51562   0.00000  Uiso   1.00
O679   O     0.84470   0.90601   0.60036   0.00000  Uiso   1.00
O680   O     0.90990   0.96391   0.59713   0.00000  Uiso   1.00
H681   H     0.92282   0.94278   0.62729   0.00000  Uiso   1.00
S682   S     0.62091   0.74005   0.46431   0.00000  Uiso   1.00
O683   O     0.64195   0.73940   0.40596   0.00000  Uiso   1.00
O684   O     0.65602   0.73330   0.50909   0.00000  Uiso   1.00
O685   O     0.58649   0.69255   0.46976   0.00000  Uiso   1.00
H686   H     0.57213   0.69747   0.50752   0.00000  Uiso   1.00
S687   S     0.88061   0.73921   0.46913   0.00000  Uiso   1.00
O688   O     0.85455   0.73875   0.41429   0.00000  Uiso   1.00
O689   O     0.91244   0.69670   0.46894   0.00000  Uiso   1.00
O690   O     0.84597   0.73173   0.52462   0.00000  Uiso   1.00
H691   H     0.86520   0.73153   0.55901   0.00000  Uiso   1.00
S692   S     0.62079   0.92337   0.56464   0.00000  Uiso   1.00
O693   O     0.65070   0.95180   0.52605   0.00000  Uiso   1.00
O694   O     0.59030   0.95827   0.59555   0.00000  Uiso   1.00
O695   O     0.65123   0.89589   0.61568   0.00000  Uiso   1.00
H696   H     0.67151   0.92142   0.63002   0.00000  Uiso   1.00
O697   O     0.25000   0.09613   0.88092   0.00000  Uiso   1.00
O698   O     0.25000   0.23720   0.78575   0.00000  Uiso   1.00
O699   O     0.25000   0.23720   0.88092   0.00000  Uiso   1.00
O700   O     0.25000   0.09613   0.78575   0.00000  Uiso   1.00
C701   C     0.25056   0.07331   0.83321   0.00000  Uiso   1.00
C702   C     0.25013   0.26001   0.83342   0.00000  Uiso   1.00
O703   O     0.18513   0.16667   0.88093   0.00000  Uiso   1.00
O704   O     0.31487   0.16667   0.78573   0.00000  Uiso   1.00
O705   O     0.31487   0.16667   0.88093   0.00000  Uiso   1.00
O706   O     0.18513   0.16667   0.78573   0.00000  Uiso   1.00
C707   C     0.16416   0.16922   0.83351   0.00000  Uiso   1.00
C708   C     0.33577   0.16902   0.83351   0.00000  Uiso   1.00
Cu709  Cu    0.25000   0.16667   0.88969   0.00000  Uiso   1.00
Cu710  Cu    0.25000   0.16667   0.77697   0.00000  Uiso   1.00
N711   N     0.25000   0.16667   0.69227   0.00000  Uiso   1.00
N712   N     0.25000   0.16667   0.97439   0.00000  Uiso   1.00
C713   C     0.40654   0.21269   0.85346   0.00000  Uiso   1.00
C714   C     0.09282   0.13055   0.80851   0.00000  Uiso   1.00
C715   C     0.40776   0.13006   0.80999   0.00000  Uiso   1.00
C716   C     0.09233   0.21188   0.85518   0.00000  Uiso   1.00
C717   C     0.38420   0.17033   0.83365   0.00000  Uiso   1.00
C718   C     0.11561   0.17025   0.83364   0.00000  Uiso   1.00
C719   C     0.45360   0.13400   0.80079   0.00000  Uiso   1.00
C720   C     0.04618   0.21523   0.84540   0.00000  Uiso   1.00
C721   C     0.45268   0.21561   0.84432   0.00000  Uiso   1.00
C722   C     0.04680   0.13434   0.80007   0.00000  Uiso   1.00
C723   C     0.47635   0.17486   0.82242   0.00000  Uiso   1.00
C724   C     0.02329   0.17487   0.82246   0.00000  Uiso   1.00
C725   C     0.47751   0.09926   0.76855   0.00000  Uiso   1.00
C726   C     0.02197   0.25859   0.85426   0.00000  Uiso   1.00
C727   C     0.47613   0.25892   0.85308   0.00000  Uiso   1.00
C728   C     0.02340   0.09956   0.76799   0.00000  Uiso   1.00
C729   C     0.25051   0.02175   0.83313   0.00000  Uiso   1.00
C730   C     0.25034   0.31156   0.83341   0.00000  Uiso   1.00
H731   H     0.46119   0.07235   0.74218   0.00000  Uiso   1.00
H732   H     0.03765   0.29326   0.85932   0.00000  Uiso   1.00
H733   H     0.45980   0.29389   0.85670   0.00000  Uiso   1.00
H734   H     0.04013   0.07278   0.74138   0.00000  Uiso   1.00
S735   S     0.37708   0.26020   0.89189   0.00000  Uiso   1.00
O736   O     0.35202   0.29029   0.84896   0.00000  Uiso   1.00
O737   O     0.34470   0.23935   0.93370   0.00000  Uiso   1.00
O738   O     0.40990   0.29725   0.93046   0.00000  Uiso   1.00
H739   H     0.42282   0.27612   0.96062   0.00000  Uiso   1.00
S740   S     0.12091   0.07338   0.79764   0.00000  Uiso   1.00
O741   O     0.14195   0.07274   0.73929   0.00000  Uiso   1.00
O742   O     0.15602   0.06663   0.84242   0.00000  Uiso   1.00
O743   O     0.08649   0.02588   0.80309   0.00000  Uiso   1.00
H744   H     0.07213   0.03080   0.84085   0.00000  Uiso   1.00
S745   S     0.38061   0.07254   0.80247   0.00000  Uiso   1.00
O746   O     0.35455   0.07208   0.74762   0.00000  Uiso   1.00
O747   O     0.41244   0.03003   0.80227   0.00000  Uiso   1.00
O748   O     0.34597   0.06506   0.85795   0.00000  Uiso   1.00
H749   H     0.36520   0.06487   0.89234   0.00000  Uiso   1.00
S750   S     0.12079   0.25671   0.89797   0.00000  Uiso   1.00
O751   O     0.15070   0.28513   0.85939   0.00000  Uiso   1.00
O752   O     0.09030   0.29161   0.92888   0.00000  Uiso   1.00
O753   O     0.15123   0.22922   0.94902   0.00000  Uiso   1.00
H754   H     0.17151   0.25475   0.96335   0.00000  Uiso   1.00
O755   O     0.75000   0.09613   0.88092   0.00000  Uiso   1.00
O756   O     0.75000   0.23720   0.78575   0.00000  Uiso   1.00
O757   O     0.75000   0.23720   0.88092   0.00000  Uiso   1.00
O758   O     0.75000   0.09613   0.78575   0.00000  Uiso   1.00
C759   C     0.75056   0.07331   0.83321   0.00000  Uiso   1.00
C760   C     0.75013   0.26001   0.83342   0.00000  Uiso   1.00
O761   O     0.68513   0.16667   0.88093   0.00000  Uiso   1.00
O762   O     0.81487   0.16667   0.78573   0.00000  Uiso   1.00
O763   O     0.81487   0.16667   0.88093   0.00000  Uiso   1.00
O764   O     0.68513   0.16667   0.78573   0.00000  Uiso   1.00
C765   C     0.66416   0.16922   0.83351   0.00000  Uiso   1.00
C766   C     0.83577   0.16902   0.83351   0.00000  Uiso   1.00
Cu767  Cu    0.75000   0.16667   0.88969   0.00000  Uiso   1.00
Cu768  Cu    0.75000   0.16667   0.77697   0.00000  Uiso   1.00
N769   N     0.75000   0.16667   0.69227   0.00000  Uiso   1.00
N770   N     0.75000   0.16667   0.97439   0.00000  Uiso   1.00
C771   C     0.90654   0.21269   0.85346   0.00000  Uiso   1.00
C772   C     0.59282   0.13055   0.80851   0.00000  Uiso   1.00
C773   C     0.90776   0.13006   0.80999   0.00000  Uiso   1.00
C774   C     0.59233   0.21188   0.85518   0.00000  Uiso   1.00
C775   C     0.88420   0.17033   0.83365   0.00000  Uiso   1.00
C776   C     0.61561   0.17025   0.83364   0.00000  Uiso   1.00
C777   C     0.95360   0.13400   0.80079   0.00000  Uiso   1.00
C778   C     0.54618   0.21523   0.84540   0.00000  Uiso   1.00
C779   C     0.95268   0.21561   0.84432   0.00000  Uiso   1.00
C780   C     0.54680   0.13434   0.80007   0.00000  Uiso   1.00
C781   C     0.97635   0.17486   0.82242   0.00000  Uiso   1.00
C782   C     0.52329   0.17487   0.82246   0.00000  Uiso   1.00
C783   C     0.97751   0.09926   0.76855   0.00000  Uiso   1.00
C784   C     0.52197   0.25859   0.85426   0.00000  Uiso   1.00
C785   C     0.97613   0.25892   0.85308   0.00000  Uiso   1.00
C786   C     0.52340   0.09956   0.76799   0.00000  Uiso   1.00
C787   C     0.75051   0.02175   0.83313   0.00000  Uiso   1.00
C788   C     0.75034   0.31156   0.83341   0.00000  Uiso   1.00
H789   H     0.96119   0.07235   0.74218   0.00000  Uiso   1.00
H790   H     0.53765   0.29326   0.85932   0.00000  Uiso   1.00
H791   H     0.95980   0.29389   0.85670   0.00000  Uiso   1.00
H792   H     0.54013   0.07278   0.74138   0.00000  Uiso   1.00
S793   S     0.87708   0.26020   0.89189   0.00000  Uiso   1.00
O794   O     0.85202   0.29029   0.84896   0.00000  Uiso   1.00
O795   O     0.84470   0.23935   0.93370   0.00000  Uiso   1.00
O796   O     0.90990   0.29725   0.93046   0.00000  Uiso   1.00
H797   H     0.92282   0.27612   0.96062   0.00000  Uiso   1.00
S798   S     0.62091   0.07338   0.79764   0.00000  Uiso   1.00
O799   O     0.64195   0.07274   0.73929   0.00000  Uiso   1.00
O800   O     0.65602   0.06663   0.84242   0.00000  Uiso   1.00
O801   O     0.58649   0.02588   0.80309   0.00000  Uiso   1.00
H802   H     0.57213   0.03080   0.84085   0.00000  Uiso   1.00
S803   S     0.88061   0.07254   0.80247   0.00000  Uiso   1.00
O804   O     0.85455   0.07208   0.74762   0.00000  Uiso   1.00
O805   O     0.91244   0.03003   0.80227   0.00000  Uiso   1.00
O806   O     0.84597   0.06506   0.85795   0.00000  Uiso   1.00
H807   H     0.86520   0.06487   0.89234   0.00000  Uiso   1.00
S808   S     0.62079   0.25671   0.89797   0.00000  Uiso   1.00
O809   O     0.65070   0.28513   0.85939   0.00000  Uiso   1.00
O810   O     0.59030   0.29161   0.92888   0.00000  Uiso   1.00
O811   O     0.65123   0.22922   0.94902   0.00000  Uiso   1.00
H812   H     0.67151   0.25475   0.96335   0.00000  Uiso   1.00
O813   O     0.25000   0.42946   0.88092   0.00000  Uiso   1.00
O814   O     0.25000   0.57054   0.78575   0.00000  Uiso   1.00
O815   O     0.25000   0.57054   0.88092   0.00000  Uiso   1.00
O816   O     0.25000   0.42946   0.78575   0.00000  Uiso   1.00
C817   C     0.25056   0.40665   0.83321   0.00000  Uiso   1.00
C818   C     0.25013   0.59335   0.83342   0.00000  Uiso   1.00
O819   O     0.18513   0.50000   0.88093   0.00000  Uiso   1.00
O820   O     0.31487   0.50000   0.78573   0.00000  Uiso   1.00
O821   O     0.31487   0.50000   0.88093   0.00000  Uiso   1.00
O822   O     0.18513   0.50000   0.78573   0.00000  Uiso   1.00
C823   C     0.16416   0.50255   0.83351   0.00000  Uiso   1.00
C824   C     0.33577   0.50235   0.83351   0.00000  Uiso   1.00
Cu825  Cu    0.25000   0.50000   0.88969   0.00000  Uiso   1.00
Cu826  Cu    0.25000   0.50000   0.77697   0.00000  Uiso   1.00
N827   N     0.25000   0.50000   0.69227   0.00000  Uiso   1.00
N828   N     0.25000   0.50000   0.97439   0.00000  Uiso   1.00
C829   C     0.40654   0.54603   0.85346   0.00000  Uiso   1.00
C830   C     0.09282   0.46389   0.80851   0.00000  Uiso   1.00
C831   C     0.40776   0.46339   0.80999   0.00000  Uiso   1.00
C832   C     0.09233   0.54521   0.85518   0.00000  Uiso   1.00
C833   C     0.38420   0.50366   0.83365   0.00000  Uiso   1.00
C834   C     0.11561   0.50358   0.83364   0.00000  Uiso   1.00
C835   C     0.45360   0.46733   0.80079   0.00000  Uiso   1.00
C836   C     0.04618   0.54857   0.84540   0.00000  Uiso   1.00
C837   C     0.45268   0.54894   0.84432   0.00000  Uiso   1.00
C838   C     0.04680   0.46767   0.80007   0.00000  Uiso   1.00
C839   C     0.47635   0.50819   0.82242   0.00000  Uiso   1.00
C840   C     0.02329   0.50820   0.82246   0.00000  Uiso   1.00
C841   C     0.47751   0.43259   0.76855   0.00000  Uiso   1.00
C842   C     0.02197   0.59193   0.85426   0.00000  Uiso   1.00
C843   C     0.47613   0.59225   0.85308   0.00000  Uiso   1.00
C844   C     0.02340   0.43290   0.76799   0.00000  Uiso   1.00
C845   C     0.25051   0.35508   0.83313   0.00000  Uiso   1.00
C846   C     0.25034   0.64489   0.83341   0.00000  Uiso   1.00
H847   H     0.46119   0.40568   0.74218   0.00000  Uiso   1.00
H848   H     0.03765   0.62659   0.85932   0.00000  Uiso   1.00
H849   H     0.45980   0.62722   0.85670   0.00000  Uiso   1.00
H850   H     0.04013   0.40611   0.74138   0.00000  Uiso   1.00
S851   S     0.37708   0.59353   0.89189   0.00000  Uiso   1.00
O852   O     0.35202   0.62362   0.84896   0.00000  Uiso   1.00
O853   O     0.34470   0.57268   0.93370   0.00000  Uiso   1.00
O854   O     0.40990   0.63058   0.93046   0.00000  Uiso   1.00
H855   H     0.42282   0.60945   0.96062   0.00000  Uiso   1.00
S856   S     0.12091   0.40671   0.79764   0.00000  Uiso   1.00
O857   O     0.14195   0.40607   0.73929   0.00000  Uiso   1.00
O858   O     0.15602   0.39996   0.84242   0.00000  Uiso   1.00
O859   O     0.08649   0.35921   0.80309   0.00000  Uiso   1.00
H860   H     0.07213   0.36414   0.84085   0.00000  Uiso   1.00
S861   S     0.38061   0.40587   0.80247   0.00000  Uiso   1.00
O862   O     0.35455   0.40542   0.74762   0.00000  Uiso   1.00
O863   O     0.41244   0.36336   0.80227   0.00000  Uiso   1.00
O864   O     0.34597   0.39840   0.85795   0.00000  Uiso   1.00
H865   H     0.36520   0.39820   0.89234   0.00000  Uiso   1.00
S866   S     0.12079   0.59004   0.89797   0.00000  Uiso   1.00
O867   O     0.15070   0.61847   0.85939   0.00000  Uiso   1.00
O868   O     0.09030   0.62494   0.92888   0.00000  Uiso   1.00
O869   O     0.15123   0.56256   0.94902   0.00000  Uiso   1.00
H870   H     0.17151   0.58809   0.96335   0.00000  Uiso   1.00
O871   O     0.75000   0.42946   0.88092   0.00000  Uiso   1.00
O872   O     0.75000   0.57054   0.78575   0.00000  Uiso   1.00
O873   O     0.75000   0.57054   0.88092   0.00000  Uiso   1.00
O874   O     0.75000   0.42946   0.78575   0.00000  Uiso   1.00
C875   C     0.75056   0.40665   0.83321   0.00000  Uiso   1.00
C876   C     0.75013   0.59335   0.83342   0.00000  Uiso   1.00
O877   O     0.68513   0.50000   0.88093   0.00000  Uiso   1.00
O878   O     0.81487   0.50000   0.78573   0.00000  Uiso   1.00
O879   O     0.81487   0.50000   0.88093   0.00000  Uiso   1.00
O880   O     0.68513   0.50000   0.78573   0.00000  Uiso   1.00
C881   C     0.66416   0.50255   0.83351   0.00000  Uiso   1.00
C882   C     0.83577   0.50235   0.83351   0.00000  Uiso   1.00
Cu883  Cu    0.75000   0.50000   0.88969   0.00000  Uiso   1.00
Cu884  Cu    0.75000   0.50000   0.77697   0.00000  Uiso   1.00
N885   N     0.75000   0.50000   0.69227   0.00000  Uiso   1.00
N886   N     0.75000   0.50000   0.97439   0.00000  Uiso   1.00
C887   C     0.90654   0.54603   0.85346   0.00000  Uiso   1.00
C888   C     0.59282   0.46389   0.80851   0.00000  Uiso   1.00
C889   C     0.90776   0.46339   0.80999   0.00000  Uiso   1.00
C890   C     0.59233   0.54521   0.85518   0.00000  Uiso   1.00
C891   C     0.88420   0.50366   0.83365   0.00000  Uiso   1.00
C892   C     0.61561   0.50358   0.83364   0.00000  Uiso   1.00
C893   C     0.95360   0.46733   0.80079   0.00000  Uiso   1.00
C894   C     0.54618   0.54857   0.84540   0.00000  Uiso   1.00
C895   C     0.95268   0.54894   0.84432   0.00000  Uiso   1.00
C896   C     0.54680   0.46767   0.80007   0.00000  Uiso   1.00
C897   C     0.97635   0.50819   0.82242   0.00000  Uiso   1.00
C898   C     0.52329   0.50820   0.82246   0.00000  Uiso   1.00
C899   C     0.97751   0.43259   0.76855   0.00000  Uiso   1.00
C900   C     0.52197   0.59193   0.85426   0.00000  Uiso   1.00
C901   C     0.97613   0.59225   0.85308   0.00000  Uiso   1.00
C902   C     0.52340   0.43290   0.76799   0.00000  Uiso   1.00
C903   C     0.75051   0.35508   0.83313   0.00000  Uiso   1.00
C904   C     0.75034   0.64489   0.83341   0.00000  Uiso   1.00
H905   H     0.96119   0.40568   0.74218   0.00000  Uiso   1.00
H906   H     0.53765   0.62659   0.85932   0.00000  Uiso   1.00
H907   H     0.95980   0.62722   0.85670   0.00000  Uiso   1.00
H908   H     0.54013   0.40611   0.74138   0.00000  Uiso   1.00
S909   S     0.87708   0.59353   0.89189   0.00000  Uiso   1.00
O910   O     0.85202   0.62362   0.84896   0.00000  Uiso   1.00
O911   O     0.84470   0.57268   0.93370   0.00000  Uiso   1.00
O912   O     0.90990   0.63058   0.93046   0.00000  Uiso   1.00
H913   H     0.92282   0.60945   0.96062   0.00000  Uiso   1.00
S914   S     0.62091   0.40671   0.79764   0.00000  Uiso   1.00
O915   O     0.64195   0.40607   0.73929   0.00000  Uiso   1.00
O916   O     0.65602   0.39996   0.84242   0.00000  Uiso   1.00
O917   O     0.58649   0.35921   0.80309   0.00000  Uiso   1.00
H918   H     0.57213   0.36414   0.84085   0.00000  Uiso   1.00
S919   S     0.88061   0.40587   0.80247   0.00000  Uiso   1.00
O920   O     0.85455   0.40542   0.74762   0.00000  Uiso   1.00
O921   O     0.91244   0.36336   0.80227   0.00000  Uiso   1.00
O922   O     0.84597   0.39840   0.85795   0.00000  Uiso   1.00
H923   H     0.86520   0.39820   0.89234   0.00000  Uiso   1.00
S924   S     0.62079   0.59004   0.89797   0.00000  Uiso   1.00
O925   O     0.65070   0.61847   0.85939   0.00000  Uiso   1.00
O926   O     0.59030   0.62494   0.92888   0.00000  Uiso   1.00
O927   O     0.65123   0.56256   0.94902   0.00000  Uiso   1.00
H928   H     0.67151   0.58809   0.96335   0.00000  Uiso   1.00
O929   O     0.25000   0.76280   0.88092   0.00000  Uiso   1.00
O930   O     0.25000   0.90387   0.78575   0.00000  Uiso   1.00
O931   O     0.25000   0.90387   0.88092   0.00000  Uiso   1.00
O932   O     0.25000   0.76280   0.78575   0.00000  Uiso   1.00
C933   C     0.25056   0.73998   0.83321   0.00000  Uiso   1.00
C934   C     0.25013   0.92668   0.83342   0.00000  Uiso   1.00
O935   O     0.18513   0.83333   0.88093   0.00000  Uiso   1.00
O936   O     0.31487   0.83333   0.78573   0.00000  Uiso   1.00
O937   O     0.31487   0.83333   0.88093   0.00000  Uiso   1.00
O938   O     0.18513   0.83333   0.78573   0.00000  Uiso   1.00
C939   C     0.16416   0.83588   0.83351   0.00000  Uiso   1.00
C940   C     0.33577   0.83568   0.83351   0.00000  Uiso   1.00
Cu941  Cu    0.25000   0.83333   0.88969   0.00000  Uiso   1.00
Cu942  Cu    0.25000   0.83333   0.77697   0.00000  Uiso   1.00
N943   N     0.25000   0.83333   0.69227   0.00000  Uiso   1.00
N944   N     0.25000   0.83333   0.97439   0.00000  Uiso   1.00
C945   C     0.40654   0.87936   0.85346   0.00000  Uiso   1.00
C946   C     0.09282   0.79722   0.80851   0.00000  Uiso   1.00
C947   C     0.40776   0.79673   0.80999   0.00000  Uiso   1.00
C948   C     0.09233   0.87855   0.85518   0.00000  Uiso   1.00
C949   C     0.38420   0.83699   0.83365   0.00000  Uiso   1.00
C950   C     0.11561   0.83691   0.83364   0.00000  Uiso   1.00
C951   C     0.45360   0.80066   0.80079   0.00000  Uiso   1.00
C952   C     0.04618   0.88190   0.84540   0.00000  Uiso   1.00
C953   C     0.45268   0.88227   0.84432   0.00000  Uiso   1.00
C954   C     0.04680   0.80100   0.80007   0.00000  Uiso   1.00
C955   C     0.47635   0.84153   0.82242   0.00000  Uiso   1.00
C956   C     0.02329   0.84154   0.82246   0.00000  Uiso   1.00
C957   C     0.47751   0.76592   0.76855   0.00000  Uiso   1.00
C958   C     0.02197   0.92526   0.85426   0.00000  Uiso   1.00
C959   C     0.47613   0.92558   0.85308   0.00000  Uiso   1.00
C960   C     0.02340   0.76623   0.76799   0.00000  Uiso   1.00
C961   C     0.25051   0.68841   0.83313   0.00000  Uiso   1.00
C962   C     0.25034   0.97823   0.83341   0.00000  Uiso   1.00
H963   H     0.46119   0.73902   0.74218   0.00000  Uiso   1.00
H964   H     0.03765   0.95993   0.85932   0.00000  Uiso   1.00
H965   H     0.45980   0.96055   0.85670   0.00000  Uiso   1.00
H966   H     0.04013   0.73944   0.74138   0.00000  Uiso   1.00
S967   S     0.37708   0.92687   0.89189   0.00000  Uiso   1.00
O968   O     0.35202   0.95696   0.84896   0.00000  Uiso   1.00
O969   O     0.34470   0.90601   0.93370   0.00000  Uiso   1.00
O970   O     0.40990   0.96391   0.93046   0.00000  Uiso   1.00
H971   H     0.42282   0.94278   0.96062   0.00000  Uiso   1.00
S972   S     0.12091   0.74005   0.79764   0.00000  Uiso   1.00
O973   O     0.14195   0.73940   0.73929   0.00000  Uiso   1.00
O974   O     0.15602   0.73330   0.84242   0.00000  Uiso   1.00
O975   O     0.08649   0.69255   0.80309   0.00000  Uiso   1.00
H976   H     0.07213   0.69747   0.84085   0.00000  Uiso   1.00
S977   S     0.38061   0.73921   0.80247   0.00000  Uiso   1.00
O978   O     0.35455   0.73875   0.74762   0.00000  Uiso   1.00
O979   O     0.41244   0.69670   0.80227   0.00000  Uiso   1.00
O980   O     0.34597   0.73173   0.85795   0.00000  Uiso   1.00
H981   H     0.36520   0.73153   0.89234   0.00000  Uiso   1.00
S982   S     0.12079   0.92337   0.89797   0.00000  Uiso   1.00
O983   O     0.15070   0.95180   0.85939   0.00000  Uiso   1.00
O984   O     0.09030   0.95827   0.92888   0.00000  Uiso   1.00
O985   O     0.15123   0.89589   0.94902   0.00000  Uiso   1.00
H986   H     0.17151   0.92142   0.96335   0.00000  Uiso   1.00
O987   O     0.75000   0.76280   0.88092   0.00000  Uiso   1.00
O988   O     0.75000   0.90387   0.78575   0.00000  Uiso   1.00
O989   O     0.75000   0.90387   0.88092   0.00000  Uiso   1.00
O990   O     0.75000   0.76280   0.78575   0.00000  Uiso   1.00
C991   C     0.75056   0.73998   0.83321   0.00000  Uiso   1.00
C992   C     0.75013   0.92668   0.83342   0.00000  Uiso   1.00
O993   O     0.68513   0.83333   0.88093   0.00000  Uiso   1.00
O994   O     0.81487   0.83333   0.78573   0.00000  Uiso   1.00
O995   O     0.81487   0.83333   0.88093   0.00000  Uiso   1.00
O996   O     0.68513   0.83333   0.78573   0.00000  Uiso   1.00
C997   C     0.66416   0.83588   0.83351   0.00000  Uiso   1.00
C998   C     0.83577   0.83568   0.83351   0.00000  Uiso   1.00
Cu999  Cu    0.75000   0.83333   0.88969   0.00000  Uiso   1.00
Cu1000 Cu    0.75000   0.83333   0.77697   0.00000  Uiso   1.00
N1001  N     0.75000   0.83333   0.69227   0.00000  Uiso   1.00
N1002  N     0.75000   0.83333   0.97439   0.00000  Uiso   1.00
C1003  C     0.90654   0.87936   0.85346   0.00000  Uiso   1.00
C1004  C     0.59282   0.79722   0.80851   0.00000  Uiso   1.00
C1005  C     0.90776   0.79673   0.80999   0.00000  Uiso   1.00
C1006  C     0.59233   0.87855   0.85518   0.00000  Uiso   1.00
C1007  C     0.88420   0.83699   0.83365   0.00000  Uiso   1.00
C1008  C     0.61561   0.83691   0.83364   0.00000  Uiso   1.00
C1009  C     0.95360   0.80066   0.80079   0.00000  Uiso   1.00
C1010  C     0.54618   0.88190   0.84540   0.00000  Uiso   1.00
C1011  C     0.95268   0.88227   0.84432   0.00000  Uiso   1.00
C1012  C     0.54680   0.80100   0.80007   0.00000  Uiso   1.00
C1013  C     0.97635   0.84153   0.82242   0.00000  Uiso   1.00
C1014  C     0.52329   0.84154   0.82246   0.00000  Uiso   1.00
C1015  C     0.97751   0.76592   0.76855   0.00000  Uiso   1.00
C1016  C     0.52197   0.92526   0.85426   0.00000  Uiso   1.00
C1017  C     0.97613   0.92558   0.85308   0.00000  Uiso   1.00
C1018  C     0.52340   0.76623   0.76799   0.00000  Uiso   1.00
C1019  C     0.75051   0.68841   0.83313   0.00000  Uiso   1.00
C1020  C     0.75034   0.97823   0.83341   0.00000  Uiso   1.00
H1021  H     0.96119   0.73902   0.74218   0.00000  Uiso   1.00
H1022  H     0.53765   0.95993   0.85932   0.00000  Uiso   1.00
H1023  H     0.95980   0.96055   0.85670   0.00000  Uiso   1.00
H1024  H     0.54013   0.73944   0.74138   0.00000  Uiso   1.00
S1025  S     0.87708   0.92687   0.89189   0.00000  Uiso   1.00
O1026  O     0.85202   0.95696   0.84896   0.00000  Uiso   1.00
O1027  O     0.84470   0.90601   0.93370   0.00000  Uiso   1.00
O1028  O     0.90990   0.96391   0.93046   0.00000  Uiso   1.00
H1029  H     0.92282   0.94278   0.96062   0.00000  Uiso   1.00
S1030  S     0.62091   0.74005   0.79764   0.00000  Uiso   1.00
O1031  O     0.64195   0.73940   0.73929   0.00000  Uiso   1.00
O1032  O     0.65602   0.73330   0.84242   0.00000  Uiso   1.00
O1033  O     0.58649   0.69255   0.80309   0.00000  Uiso   1.00
H1034  H     0.57213   0.69747   0.84085   0.00000  Uiso   1.00
S1035  S     0.88061   0.73921   0.80247   0.00000  Uiso   1.00
O1036  O     0.85455   0.73875   0.74762   0.00000  Uiso   1.00
O1037  O     0.91244   0.69670   0.80227   0.00000  Uiso   1.00
O1038  O     0.84597   0.73173   0.85795   0.00000  Uiso   1.00
H1039  H     0.86520   0.73153   0.89234   0.00000  Uiso   1.00
S1040  S     0.62079   0.92337   0.89797   0.00000  Uiso   1.00
O1041  O     0.65070   0.95180   0.85939   0.00000  Uiso   1.00
O1042  O     0.59030   0.95827   0.92888   0.00000  Uiso   1.00
O1043  O     0.65123   0.89589   0.94902   0.00000  Uiso   1.00
H1044  H     0.67151   0.92142   0.96335   0.00000  Uiso   1.00
loop_
_geom_bond_atom_site_label_1
_geom_bond_atom_site_label_2
_geom_bond_distance
_geom_bond_site_symmetry_2
_ccdc_geom_bond_type
O1     C5      1.273   .     A
O1     Cu13    1.940   .     S
O2     C6      1.272   .     A
O2     Cu14    1.940   .     S
O3     Cu13    1.942   .     S
O3     C6      1.275   .     A
O4     Cu14    1.942   .     S
O4     C5      1.274   .     A
C5     C33     1.411   .     S
C6     C34     1.411   .     S
O7     C11     1.277   .     A
O7     Cu13    1.972   .     S
O8     C12     1.283   .     A
O8     Cu14    1.972   .     S
O9     C12     1.276   .     A
O9     Cu13    1.972   .     S
O10    C11     1.284   .     A
O10    Cu14    1.972   .     S
C11    C22     1.468   .     S
C12    C21     1.465   .     S
Cu13   Cu14    2.629   .     S
Cu13   N16     1.976   .     S
Cu14   N15     1.976   .     S
N15    N712    1.195   1_554 S
N16    N363    1.195   .     S
C17    C25     1.414   .     A
C17    S39     1.803   .     S
C17    C21     1.422   .     A
C18    S44     1.790   .     S
C18    C22     1.416   .     A
C18    C26     1.408   .     A
C19    C23     1.408   .     A
C19    C21     1.416   .     A
C19    S49     1.790   .     S
C20    C22     1.422   .     A
C20    S54     1.802   .     S
C20    C24     1.416   .     A
C23    C29     1.404   .     A
C23    C27     1.409   .     A
C24    C28     1.412   .     A
C24    C30     1.402   .     A
C25    C31     1.401   .     A
C25    C27     1.412   .     A
C26    C32     1.404   .     A
C26    C28     1.409   .     A
C27    C86     1.419   .     S
C28    C85     1.419   1_455 S
C29    H35     1.080   .     S
C29    C90     1.387   .     S
C30    H36     1.071   .     S
C30    C89     1.386   1_455 S
C31    H37     1.075   .     S
C31    C88     1.386   .     S
C32    H38     1.080   .     S
C32    C87     1.387   1_455 S
C33    C266    1.191   1_545 S
C34    C149    1.191   .     S
S39    O41     1.501   .     D
S39    O40     1.500   .     D
S39    O42     1.683   .     S
O42    H43     0.991   .     S
S44    O47     1.678   .     S
S44    O45     1.502   .     D
S44    O46     1.500   .     D
O47    H48     0.990   .     S
S49    O52     1.680   .     S
S49    O50     1.502   .     D
S49    O51     1.502   .     D
O52    H53     0.991   .     S
S54    O55     1.502   .     D
S54    O56     1.502   .     D
S54    O57     1.681   .     S
O57    H58     0.991   .     S
O59    C63     1.273   .     A
O59    Cu71    1.940   .     S
O60    C64     1.272   .     A
O60    Cu72    1.940   .     S
O61    Cu71    1.942   .     S
O61    C64     1.275   .     A
O62    Cu72    1.942   .     S
O62    C63     1.274   .     A
C63    C91     1.411   .     S
C64    C92     1.411   .     S
O65    C69     1.277   .     A
O65    Cu71    1.972   .     S
O66    C70     1.283   .     A
O66    Cu72    1.972   .     S
O67    C70     1.276   .     A
O67    Cu71    1.972   .     S
O68    C69     1.284   .     A
O68    Cu72    1.972   .     S
C69    C80     1.468   .     S
C70    C79     1.465   .     S
Cu71   Cu72    2.629   .     S
Cu71   N74     1.976   .     S
Cu72   N73     1.976   .     S
N73    N770    1.195   1_554 S
N74    N421    1.195   .     S
C75    C83     1.414   .     A
C75    S97     1.803   .     S
C75    C79     1.422   .     A
C76    S102    1.790   .     S
C76    C80     1.416   .     A
C76    C84     1.408   .     A
C77    C81     1.408   .     A
C77    C79     1.416   .     A
C77    S107    1.790   .     S
C78    C80     1.422   .     A
C78    S112    1.802   .     S
C78    C82     1.416   .     A
C81    C87     1.404   .     A
C81    C85     1.409   .     A
C82    C86     1.412   .     A
C82    C88     1.402   .     A
C83    C89     1.401   .     A
C83    C85     1.412   .     A
C84    C90     1.404   .     A
C84    C86     1.409   .     A
C85    C28     1.419   1_655 S
C87    H93     1.080   .     S
C87    C32     1.387   1_655 S
C88    H94     1.071   .     S
C89    H95     1.075   .     S
C89    C30     1.386   1_655 S
C90    H96     1.080   .     S
C91    C324    1.191   1_545 S
C92    C207    1.191   .     S
S97    O99     1.501   .     D
S97    O98     1.500   .     D
S97    O100    1.683   .     S
O100   H101    0.991   .     S
S102   O105    1.678   .     S
S102   O103    1.502   .     D
S102   O104    1.500   .     D
O105   H106    0.990   .     S
S107   O110    1.680   .     S
S107   O108    1.502   .     D
S107   O109    1.502   .     D
O110   H111    0.991   .     S
S112   O113    1.502   .     D
S112   O114    1.502   .     D
S112   O115    1.681   .     S
O115   H116    0.991   .     S
O117   C121    1.273   .     A
O117   Cu129   1.940   .     S
O118   C122    1.272   .     A
O118   Cu130   1.940   .     S
O119   Cu129   1.942   .     S
O119   C122    1.275   .     A
O120   Cu130   1.942   .     S
O120   C121    1.274   .     A
C121   C149    1.411   .     S
C122   C150    1.411   .     S
O123   C127    1.277   .     A
O123   Cu129   1.972   .     S
O124   C128    1.283   .     A
O124   Cu130   1.972   .     S
O125   C128    1.276   .     A
O125   Cu129   1.972   .     S
O126   C127    1.284   .     A
O126   Cu130   1.972   .     S
C127   C138    1.468   .     S
C128   C137    1.465   .     S
Cu129  Cu130   2.629   .     S
Cu129  N132    1.976   .     S
Cu130  N131    1.976   .     S
N131   N828    1.195   1_554 S
N132   N479    1.195   .     S
C133   C141    1.414   .     A
C133   S155    1.803   .     S
C133   C137    1.422   .     A
C134   S160    1.790   .     S
C134   C138    1.416   .     A
C134   C142    1.408   .     A
C135   C139    1.408   .     A
C135   C137    1.416   .     A
C135   S165    1.790   .     S
C136   C138    1.422   .     A
C136   S170    1.802   .     S
C136   C140    1.416   .     A
C139   C145    1.404   .     A
C139   C143    1.409   .     A
C140   C144    1.412   .     A
C140   C146    1.402   .     A
C141   C147    1.401   .     A
C141   C143    1.412   .     A
C142   C148    1.404   .     A
C142   C144    1.409   .     A
C143   C202    1.419   .     S
C144   C201    1.419   1_455 S
C145   H151    1.080   .     S
C145   C206    1.387   .     S
C146   H152    1.071   .     S
C146   C205    1.386   1_455 S
C147   H153    1.075   .     S
C147   C204    1.386   .     S
C148   H154    1.080   .     S
C148   C203    1.387   1_455 S
C150   C265    1.191   .     S
S155   O157    1.501   .     D
S155   O156    1.500   .     D
S155   O158    1.683   .     S
O158   H159    0.991   .     S
S160   O163    1.678   .     S
S160   O161    1.502   .     D
S160   O162    1.500   .     D
O163   H164    0.990   .     S
S165   O168    1.680   .     S
S165   O166    1.502   .     D
S165   O167    1.502   .     D
O168   H169    0.991   .     S
S170   O171    1.502   .     D
S170   O172    1.502   .     D
S170   O173    1.681   .     S
O173   H174    0.991   .     S
O175   C179    1.273   .     A
O175   Cu187   1.940   .     S
O176   C180    1.272   .     A
O176   Cu188   1.940   .     S
O177   Cu187   1.942   .     S
O177   C180    1.275   .     A
O178   Cu188   1.942   .     S
O178   C179    1.274   .     A
C179   C207    1.411   .     S
C180   C208    1.411   .     S
O181   C185    1.277   .     A
O181   Cu187   1.972   .     S
O182   C186    1.283   .     A
O182   Cu188   1.972   .     S
O183   C186    1.276   .     A
O183   Cu187   1.972   .     S
O184   C185    1.284   .     A
O184   Cu188   1.972   .     S
C185   C196    1.468   .     S
C186   C195    1.465   .     S
Cu187  Cu188   2.629   .     S
Cu187  N190    1.976   .     S
Cu188  N189    1.976   .     S
N189   N886    1.195   1_554 S
N190   N537    1.195   .     S
C191   C199    1.414   .     A
C191   S213    1.803   .     S
C191   C195    1.422   .     A
C192   S218    1.790   .     S
C192   C196    1.416   .     A
C192   C200    1.408   .     A
C193   C197    1.408   .     A
C193   C195    1.416   .     A
C193   S223    1.790   .     S
C194   C196    1.422   .     A
C194   S228    1.802   .     S
C194   C198    1.416   .     A
C197   C203    1.404   .     A
C197   C201    1.409   .     A
C198   C202    1.412   .     A
C198   C204    1.402   .     A
C199   C205    1.401   .     A
C199   C201    1.412   .     A
C200   C206    1.404   .     A
C200   C202    1.409   .     A
C201   C144    1.419   1_655 S
C203   H209    1.080   .     S
C203   C148    1.387   1_655 S
C204   H210    1.071   .     S
C205   H211    1.075   .     S
C205   C146    1.386   1_655 S
C206   H212    1.080   .     S
C208   C323    1.191   .     S
S213   O215    1.501   .     D
S213   O214    1.500   .     D
S213   O216    1.683   .     S
O216   H217    0.991   .     S
S218   O221    1.678   .     S
S218   O219    1.502   .     D
S218   O220    1.500   .     D
O221   H222    0.990   .     S
S223   O226    1.680   .     S
S223   O224    1.502   .     D
S223   O225    1.502   .     D
O226   H227    0.991   .     S
S228   O229    1.502   .     D
S228   O230    1.502   .     D
S228   O231    1.681   .     S
O231   H232    0.991   .     S
O233   C237    1.273   .     A
O233   Cu245   1.940   .     S
O234   C238    1.272   .     A
O234   Cu246   1.940   .     S
O235   Cu245   1.942   .     S
O235   C238    1.275   .     A
O236   Cu246   1.942   .     S
O236   C237    1.274   .     A
C237   C265    1.411   .     S
C238   C266    1.411   .     S
O239   C243    1.277   .     A
O239   Cu245   1.972   .     S
O240   C244    1.283   .     A
O240   Cu246   1.972   .     S
O241   C244    1.276   .     A
O241   Cu245   1.972   .     S
O242   C243    1.284   .     A
O242   Cu246   1.972   .     S
C243   C254    1.468   .     S
C244   C253    1.465   .     S
Cu245  Cu246   2.629   .     S
Cu245  N248    1.976   .     S
Cu246  N247    1.976   .     S
N247   N944    1.195   1_554 S
N248   N595    1.195   .     S
C249   C257    1.414   .     A
C249   S271    1.803   .     S
C249   C253    1.422   .     A
C250   S276    1.790   .     S
C250   C254    1.416   .     A
C250   C258    1.408   .     A
C251   C255    1.408   .     A
C251   C253    1.416   .     A
C251   S281    1.790   .     S
C252   C254    1.422   .     A
C252   S286    1.802   .     S
C252   C256    1.416   .     A
C255   C261    1.404   .     A
C255   C259    1.409   .     A
C256   C260    1.412   .     A
C256   C262    1.402   .     A
C257   C263    1.401   .     A
C257   C259    1.412   .     A
C258   C264    1.404   .     A
C258   C260    1.409   .     A
C259   C318    1.419   .     S
C260   C317    1.419   1_455 S
C261   H267    1.080   .     S
C261   C322    1.387   .     S
C262   H268    1.071   .     S
C262   C321    1.386   1_455 S
C263   H269    1.075   .     S
C263   C320    1.386   .     S
C264   H270    1.080   .     S
C264   C319    1.387   1_455 S
C266   C33     1.191   1_565 S
S271   O273    1.501   .     D
S271   O272    1.500   .     D
S271   O274    1.683   .     S
O274   H275    0.991   .     S
S276   O279    1.678   .     S
S276   O277    1.502   .     D
S276   O278    1.500   .     D
O279   H280    0.990   .     S
S281   O284    1.680   .     S
S281   O282    1.502   .     D
S281   O283    1.502   .     D
O284   H285    0.991   .     S
S286   O287    1.502   .     D
S286   O288    1.502   .     D
S286   O289    1.681   .     S
O289   H290    0.991   .     S
O291   C295    1.273   .     A
O291   Cu303   1.940   .     S
O292   C296    1.272   .     A
O292   Cu304   1.940   .     S
O293   Cu303   1.942   .     S
O293   C296    1.275   .     A
O294   Cu304   1.942   .     S
O294   C295    1.274   .     A
C295   C323    1.411   .     S
C296   C324    1.411   .     S
O297   C301    1.277   .     A
O297   Cu303   1.972   .     S
O298   C302    1.283   .     A
O298   Cu304   1.972   .     S
O299   C302    1.276   .     A
O299   Cu303   1.972   .     S
O300   C301    1.284   .     A
O300   Cu304   1.972   .     S
C301   C312    1.468   .     S
C302   C311    1.465   .     S
Cu303  Cu304   2.629   .     S
Cu303  N306    1.976   .     S
Cu304  N305    1.976   .     S
N305   N1002   1.195   1_554 S
N306   N653    1.195   .     S
C307   C315    1.414   .     A
C307   S329    1.803   .     S
C307   C311    1.422   .     A
C308   S334    1.790   .     S
C308   C312    1.416   .     A
C308   C316    1.408   .     A
C309   C313    1.408   .     A
C309   C311    1.416   .     A
C309   S339    1.790   .     S
C310   C312    1.422   .     A
C310   S344    1.802   .     S
C310   C314    1.416   .     A
C313   C319    1.404   .     A
C313   C317    1.409   .     A
C314   C318    1.412   .     A
C314   C320    1.402   .     A
C315   C321    1.401   .     A
C315   C317    1.412   .     A
C316   C322    1.404   .     A
C316   C318    1.409   .     A
C317   C260    1.419   1_655 S
C319   H325    1.080   .     S
C319   C264    1.387   1_655 S
C320   H326    1.071   .     S
C321   H327    1.075   .     S
C321   C262    1.386   1_655 S
C322   H328    1.080   .     S
C324   C91     1.191   1_565 S
S329   O331    1.501   .     D
S329   O330    1.500   .     D
S329   O332    1.683   .     S
O332   H333    0.991   .     S
S334   O337    1.678   .     S
S334   O335    1.502   .     D
S334   O336    1.500   .     D
O337   H338    0.990   .     S
S339   O342    1.680   .     S
S339   O340    1.502   .     D
S339   O341    1.502   .     D
O342   H343    0.991   .     S
S344   O345    1.502   .     D
S344   O346    1.502   .     D
S344   O347    1.681   .     S
O347   H348    0.991   .     S
O349   C353    1.273   .     A
O349   Cu361   1.940   .     S
O350   C354    1.272   .     A
O350   Cu362   1.940   .     S
O351   Cu361   1.942   .     S
O351   C354    1.275   .     A
O352   Cu362   1.942   .     S
O352   C353    1.274   .     A
C353   C381    1.411   .     S
C354   C382    1.411   .     S
O355   C359    1.277   .     A
O355   Cu361   1.972   .     S
O356   C360    1.283   .     A
O356   Cu362   1.972   .     S
O357   C360    1.276   .     A
O357   Cu361   1.972   .     S
O358   C359    1.284   .     A
O358   Cu362   1.972   .     S
C359   C370    1.468   .     S
C360   C369    1.465   .     S
Cu361  Cu362   2.629   .     S
Cu361  N364    1.976   .     S
Cu362  N363    1.976   .     S
N364   N711    1.195   .     S
C365   C373    1.414   .     A
C365   S387    1.803   .     S
C365   C369    1.422   .     A
C366   S392    1.790   .     S
C366   C370    1.416   .     A
C366   C374    1.408   .     A
C367   C371    1.408   .     A
C367   C369    1.416   .     A
C367   S397    1.790   .     S
C368   C370    1.422   .     A
C368   S402    1.802   .     S
C368   C372    1.416   .     A
C371   C377    1.404   .     A
C371   C375    1.409   .     A
C372   C376    1.412   .     A
C372   C378    1.402   .     A
C373   C379    1.401   .     A
C373   C375    1.412   .     A
C374   C380    1.404   .     A
C374   C376    1.409   .     A
C375   C434    1.419   .     S
C376   C433    1.419   1_455 S
C377   H383    1.080   .     S
C377   C438    1.387   .     S
C378   H384    1.071   .     S
C378   C437    1.386   1_455 S
C379   H385    1.075   .     S
C379   C436    1.386   .     S
C380   H386    1.080   .     S
C380   C435    1.387   1_455 S
C381   C614    1.191   1_545 S
C382   C497    1.191   .     S
S387   O389    1.501   .     D
S387   O388    1.500   .     D
S387   O390    1.683   .     S
O390   H391    0.991   .     S
S392   O395    1.678   .     S
S392   O393    1.502   .     D
S392   O394    1.500   .     D
O395   H396    0.990   .     S
S397   O400    1.680   .     S
S397   O398    1.502   .     D
S397   O399    1.502   .     D
O400   H401    0.991   .     S
S402   O403    1.502   .     D
S402   O404    1.502   .     D
S402   O405    1.681   .     S
O405   H406    0.991   .     S
O407   C411    1.273   .     A
O407   Cu419   1.940   .     S
O408   C412    1.272   .     A
O408   Cu420   1.940   .     S
O409   Cu419   1.942   .     S
O409   C412    1.275   .     A
O410   Cu420   1.942   .     S
O410   C411    1.274   .     A
C411   C439    1.411   .     S
C412   C440    1.411   .     S
O413   C417    1.277   .     A
O413   Cu419   1.972   .     S
O414   C418    1.283   .     A
O414   Cu420   1.972   .     S
O415   C418    1.276   .     A
O415   Cu419   1.972   .     S
O416   C417    1.284   .     A
O416   Cu420   1.972   .     S
C417   C428    1.468   .     S
C418   C427    1.465   .     S
Cu419  Cu420   2.629   .     S
Cu419  N422    1.976   .     S
Cu420  N421    1.976   .     S
N422   N769    1.195   .     S
C423   C431    1.414   .     A
C423   S445    1.803   .     S
C423   C427    1.422   .     A
C424   S450    1.790   .     S
C424   C428    1.416   .     A
C424   C432    1.408   .     A
C425   C429    1.408   .     A
C425   C427    1.416   .     A
C425   S455    1.790   .     S
C426   C428    1.422   .     A
C426   S460    1.802   .     S
C426   C430    1.416   .     A
C429   C435    1.404   .     A
C429   C433    1.409   .     A
C430   C434    1.412   .     A
C430   C436    1.402   .     A
C431   C437    1.401   .     A
C431   C433    1.412   .     A
C432   C438    1.404   .     A
C432   C434    1.409   .     A
C433   C376    1.419   1_655 S
C435   H441    1.080   .     S
C435   C380    1.387   1_655 S
C436   H442    1.071   .     S
C437   H443    1.075   .     S
C437   C378    1.386   1_655 S
C438   H444    1.080   .     S
C439   C672    1.191   1_545 S
C440   C555    1.191   .     S
S445   O447    1.501   .     D
S445   O446    1.500   .     D
S445   O448    1.683   .     S
O448   H449    0.991   .     S
S450   O453    1.678   .     S
S450   O451    1.502   .     D
S450   O452    1.500   .     D
O453   H454    0.990   .     S
S455   O458    1.680   .     S
S455   O456    1.502   .     D
S455   O457    1.502   .     D
O458   H459    0.991   .     S
S460   O461    1.502   .     D
S460   O462    1.502   .     D
S460   O463    1.681   .     S
O463   H464    0.991   .     S
O465   C469    1.273   .     A
O465   Cu477   1.940   .     S
O466   C470    1.272   .     A
O466   Cu478   1.940   .     S
O467   Cu477   1.942   .     S
O467   C470    1.275   .     A
O468   Cu478   1.942   .     S
O468   C469    1.274   .     A
C469   C497    1.411   .     S
C470   C498    1.411   .     S
O471   C475    1.277   .     A
O471   Cu477   1.972   .     S
O472   C476    1.283   .     A
O472   Cu478   1.972   .     S
O473   C476    1.276   .     A
O473   Cu477   1.972   .     S
O474   C475    1.284   .     A
O474   Cu478   1.972   .     S
C475   C486    1.468   .     S
C476   C485    1.465   .     S
Cu477  Cu478   2.629   .     S
Cu477  N480    1.976   .     S
Cu478  N479    1.976   .     S
N480   N827    1.195   .     S
C481   C489    1.414   .     A
C481   S503    1.803   .     S
C481   C485    1.422   .     A
C482   S508    1.790   .     S
C482   C486    1.416   .     A
C482   C490    1.408   .     A
C483   C487    1.408   .     A
C483   C485    1.416   .     A
C483   S513    1.790   .     S
C484   C486    1.422   .     A
C484   S518    1.802   .     S
C484   C488    1.416   .     A
C487   C493    1.404   .     A
C487   C491    1.409   .     A
C488   C492    1.412   .     A
C488   C494    1.402   .     A
C489   C495    1.401   .     A
C489   C491    1.412   .     A
C490   C496    1.404   .     A
C490   C492    1.409   .     A
C491   C550    1.419   .     S
C492   C549    1.419   1_455 S
C493   H499    1.080   .     S
C493   C554    1.387   .     S
C494   H500    1.071   .     S
C494   C553    1.386   1_455 S
C495   H501    1.075   .     S
C495   C552    1.386   .     S
C496   H502    1.080   .     S
C496   C551    1.387   1_455 S
C498   C613    1.191   .     S
S503   O505    1.501   .     D
S503   O504    1.500   .     D
S503   O506    1.683   .     S
O506   H507    0.991   .     S
S508   O511    1.678   .     S
S508   O509    1.502   .     D
S508   O510    1.500   .     D
O511   H512    0.990   .     S
S513   O516    1.680   .     S
S513   O514    1.502   .     D
S513   O515    1.502   .     D
O516   H517    0.991   .     S
S518   O519    1.502   .     D
S518   O520    1.502   .     D
S518   O521    1.681   .     S
O521   H522    0.991   .     S
O523   C527    1.273   .     A
O523   Cu535   1.940   .     S
O524   C528    1.272   .     A
O524   Cu536   1.940   .     S
O525   Cu535   1.942   .     S
O525   C528    1.275   .     A
O526   Cu536   1.942   .     S
O526   C527    1.274   .     A
C527   C555    1.411   .     S
C528   C556    1.411   .     S
O529   C533    1.277   .     A
O529   Cu535   1.972   .     S
O530   C534    1.283   .     A
O530   Cu536   1.972   .     S
O531   C534    1.276   .     A
O531   Cu535   1.972   .     S
O532   C533    1.284   .     A
O532   Cu536   1.972   .     S
C533   C544    1.468   .     S
C534   C543    1.465   .     S
Cu535  Cu536   2.629   .     S
Cu535  N538    1.976   .     S
Cu536  N537    1.976   .     S
N538   N885    1.195   .     S
C539   C547    1.414   .     A
C539   S561    1.803   .     S
C539   C543    1.422   .     A
C540   S566    1.790   .     S
C540   C544    1.416   .     A
C540   C548    1.408   .     A
C541   C545    1.408   .     A
C541   C543    1.416   .     A
C541   S571    1.790   .     S
C542   C544    1.422   .     A
C542   S576    1.802   .     S
C542   C546    1.416   .     A
C545   C551    1.404   .     A
C545   C549    1.409   .     A
C546   C550    1.412   .     A
C546   C552    1.402   .     A
C547   C553    1.401   .     A
C547   C549    1.412   .     A
C548   C554    1.404   .     A
C548   C550    1.409   .     A
C549   C492    1.419   1_655 S
C551   H557    1.080   .     S
C551   C496    1.387   1_655 S
C552   H558    1.071   .     S
C553   H559    1.075   .     S
C553   C494    1.386   1_655 S
C554   H560    1.080   .     S
C556   C671    1.191   .     S
S561   O563    1.501   .     D
S561   O562    1.500   .     D
S561   O564    1.683   .     S
O564   H565    0.991   .     S
S566   O569    1.678   .     S
S566   O567    1.502   .     D
S566   O568    1.500   .     D
O569   H570    0.990   .     S
S571   O574    1.680   .     S
S571   O572    1.502   .     D
S571   O573    1.502   .     D
O574   H575    0.991   .     S
S576   O577    1.502   .     D
S576   O578    1.502   .     D
S576   O579    1.681   .     S
O579   H580    0.991   .     S
O581   C585    1.273   .     A
O581   Cu593   1.940   .     S
O582   C586    1.272   .     A
O582   Cu594   1.940   .     S
O583   Cu593   1.942   .     S
O583   C586    1.275   .     A
O584   Cu594   1.942   .     S
O584   C585    1.274   .     A
C585   C613    1.411   .     S
C586   C614    1.411   .     S
O587   C591    1.277   .     A
O587   Cu593   1.972   .     S
O588   C592    1.283   .     A
O588   Cu594   1.972   .     S
O589   C592    1.276   .     A
O589   Cu593   1.972   .     S
O590   C591    1.284   .     A
O590   Cu594   1.972   .     S
C591   C602    1.468   .     S
C592   C601    1.465   .     S
Cu593  Cu594   2.629   .     S
Cu593  N596    1.976   .     S
Cu594  N595    1.976   .     S
N596   N943    1.195   .     S
C597   C605    1.414   .     A
C597   S619    1.803   .     S
C597   C601    1.422   .     A
C598   S624    1.790   .     S
C598   C602    1.416   .     A
C598   C606    1.408   .     A
C599   C603    1.408   .     A
C599   C601    1.416   .     A
C599   S629    1.790   .     S
C600   C602    1.422   .     A
C600   S634    1.802   .     S
C600   C604    1.416   .     A
C603   C609    1.404   .     A
C603   C607    1.409   .     A
C604   C608    1.412   .     A
C604   C610    1.402   .     A
C605   C611    1.401   .     A
C605   C607    1.412   .     A
C606   C612    1.404   .     A
C606   C608    1.409   .     A
C607   C666    1.419   .     S
C608   C665    1.419   1_455 S
C609   H615    1.080   .     S
C609   C670    1.387   .     S
C610   H616    1.071   .     S
C610   C669    1.386   1_455 S
C611   H617    1.075   .     S
C611   C668    1.386   .     S
C612   H618    1.080   .     S
C612   C667    1.387   1_455 S
C614   C381    1.191   1_565 S
S619   O621    1.501   .     D
S619   O620    1.500   .     D
S619   O622    1.683   .     S
O622   H623    0.991   .     S
S624   O627    1.678   .     S
S624   O625    1.502   .     D
S624   O626    1.500   .     D
O627   H628    0.990   .     S
S629   O632    1.680   .     S
S629   O630    1.502   .     D
S629   O631    1.502   .     D
O632   H633    0.991   .     S
S634   O635    1.502   .     D
S634   O636    1.502   .     D
S634   O637    1.681   .     S
O637   H638    0.991   .     S
O639   C643    1.273   .     A
O639   Cu651   1.940   .     S
O640   C644    1.272   .     A
O640   Cu652   1.940   .     S
O641   Cu651   1.942   .     S
O641   C644    1.275   .     A
O642   Cu652   1.942   .     S
O642   C643    1.274   .     A
C643   C671    1.411   .     S
C644   C672    1.411   .     S
O645   C649    1.277   .     A
O645   Cu651   1.972   .     S
O646   C650    1.283   .     A
O646   Cu652   1.972   .     S
O647   C650    1.276   .     A
O647   Cu651   1.972   .     S
O648   C649    1.284   .     A
O648   Cu652   1.972   .     S
C649   C660    1.468   .     S
C650   C659    1.465   .     S
Cu651  Cu652   2.629   .     S
Cu651  N654    1.976   .     S
Cu652  N653    1.976   .     S
N654   N1001   1.195   .     S
C655   C663    1.414   .     A
C655   S677    1.803   .     S
C655   C659    1.422   .     A
C656   S682    1.790   .     S
C656   C660    1.416   .     A
C656   C664    1.408   .     A
C657   C661    1.408   .     A
C657   C659    1.416   .     A
C657   S687    1.790   .     S
C658   C660    1.422   .     A
C658   S692    1.802   .     S
C658   C662    1.416   .     A
C661   C667    1.404   .     A
C661   C665    1.409   .     A
C662   C666    1.412   .     A
C662   C668    1.402   .     A
C663   C669    1.401   .     A
C663   C665    1.412   .     A
C664   C670    1.404   .     A
C664   C666    1.409   .     A
C665   C608    1.419   1_655 S
C667   H673    1.080   .     S
C667   C612    1.387   1_655 S
C668   H674    1.071   .     S
C669   H675    1.075   .     S
C669   C610    1.386   1_655 S
C670   H676    1.080   .     S
C672   C439    1.191   1_565 S
S677   O679    1.501   .     D
S677   O678    1.500   .     D
S677   O680    1.683   .     S
O680   H681    0.991   .     S
S682   O685    1.678   .     S
S682   O683    1.502   .     D
S682   O684    1.500   .     D
O685   H686    0.990   .     S
S687   O690    1.680   .     S
S687   O688    1.502   .     D
S687   O689    1.502   .     D
O690   H691    0.991   .     S
S692   O693    1.502   .     D
S692   O694    1.502   .     D
S692   O695    1.681   .     S
O695   H696    0.991   .     S
O697   C701    1.273   .     A
O697   Cu709   1.940   .     S
O698   C702    1.272   .     A
O698   Cu710   1.940   .     S
O699   Cu709   1.942   .     S
O699   C702    1.275   .     A
O700   Cu710   1.942   .     S
O700   C701    1.274   .     A
C701   C729    1.411   .     S
C702   C730    1.411   .     S
O703   C707    1.277   .     A
O703   Cu709   1.972   .     S
O704   C708    1.283   .     A
O704   Cu710   1.972   .     S
O705   C708    1.276   .     A
O705   Cu709   1.972   .     S
O706   C707    1.284   .     A
O706   Cu710   1.972   .     S
C707   C718    1.468   .     S
C708   C717    1.465   .     S
Cu709  Cu710   2.629   .     S
Cu709  N712    1.976   .     S
Cu710  N711    1.976   .     S
N712   N15     1.195   1_556 S
C713   C721    1.414   .     A
C713   S735    1.803   .     S
C713   C717    1.422   .     A
C714   S740    1.790   .     S
C714   C718    1.416   .     A
C714   C722    1.408   .     A
C715   C719    1.408   .     A
C715   C717    1.416   .     A
C715   S745    1.790   .     S
C716   C718    1.422   .     A
C716   S750    1.802   .     S
C716   C720    1.416   .     A
C719   C725    1.404   .     A
C719   C723    1.409   .     A
C720   C724    1.412   .     A
C720   C726    1.402   .     A
C721   C727    1.401   .     A
C721   C723    1.412   .     A
C722   C728    1.404   .     A
C722   C724    1.409   .     A
C723   C782    1.419   .     S
C724   C781    1.419   1_455 S
C725   H731    1.080   .     S
C725   C786    1.387   .     S
C726   H732    1.071   .     S
C726   C785    1.386   1_455 S
C727   H733    1.075   .     S
C727   C784    1.386   .     S
C728   H734    1.080   .     S
C728   C783    1.387   1_455 S
C729   C962    1.191   1_545 S
C730   C845    1.191   .     S
S735   O737    1.501   .     D
S735   O736    1.500   .     D
S735   O738    1.683   .     S
O738   H739    0.991   .     S
S740   O743    1.678   .     S
S740   O741    1.502   .     D
S740   O742    1.500   .     D
O743   H744    0.990   .     S
S745   O748    1.680   .     S
S745   O746    1.502   .     D
S745   O747    1.502   .     D
O748   H749    0.991   .     S
S750   O751    1.502   .     D
S750   O752    1.502   .     D
S750   O753    1.681   .     S
O753   H754    0.991   .     S
O755   C759    1.273   .     A
O755   Cu767   1.940   .     S
O756   C760    1.272   .     A
O756   Cu768   1.940   .     S
O757   Cu767   1.942   .     S
O757   C760    1.275   .     A
O758   Cu768   1.942   .     S
O758   C759    1.274   .     A
C759   C787    1.411   .     S
C760   C788    1.411   .     S
O761   C765    1.277   .     A
O761   Cu767   1.972   .     S
O762   C766    1.283   .     A
O762   Cu768   1.972   .     S
O763   C766    1.276   .     A
O763   Cu767   1.972   .     S
O764   C765    1.284   .     A
O764   Cu768   1.972   .     S
C765   C776    1.468   .     S
C766   C775    1.465   .     S
Cu767  Cu768   2.629   .     S
Cu767  N770    1.976   .     S
Cu768  N769    1.976   .     S
N770   N73     1.195   1_556 S
C771   C779    1.414   .     A
C771   S793    1.803   .     S
C771   C775    1.422   .     A
C772   S798    1.790   .     S
C772   C776    1.416   .     A
C772   C780    1.408   .     A
C773   C777    1.408   .     A
C773   C775    1.416   .     A
C773   S803    1.790   .     S
C774   C776    1.422   .     A
C774   S808    1.802   .     S
C774   C778    1.416   .     A
C777   C783    1.404   .     A
C777   C781    1.409   .     A
C778   C782    1.412   .     A
C778   C784    1.402   .     A
C779   C785    1.401   .     A
C779   C781    1.412   .     A
C780   C786    1.404   .     A
C780   C782    1.409   .     A
C781   C724    1.419   1_655 S
C783   H789    1.080   .     S
C783   C728    1.387   1_655 S
C784   H790    1.071   .     S
C785   H791    1.075   .     S
C785   C726    1.386   1_655 S
C786   H792    1.080   .     S
C787   C1020   1.191   1_545 S
C788   C903    1.191   .     S
S793   O795    1.501   .     D
S793   O794    1.500   .     D
S793   O796    1.683   .     S
O796   H797    0.991   .     S
S798   O801    1.678   .     S
S798   O799    1.502   .     D
S798   O800    1.500   .     D
O801   H802    0.990   .     S
S803   O806    1.680   .     S
S803   O804    1.502   .     D
S803   O805    1.502   .     D
O806   H807    0.991   .     S
S808   O809    1.502   .     D
S808   O810    1.502   .     D
S808   O811    1.681   .     S
O811   H812    0.991   .     S
O813   C817    1.273   .     A
O813   Cu825   1.940   .     S
O814   C818    1.272   .     A
O814   Cu826   1.940   .     S
O815   Cu825   1.942   .     S
O815   C818    1.275   .     A
O816   Cu826   1.942   .     S
O816   C817    1.274   .     A
C817   C845    1.411   .     S
C818   C846    1.411   .     S
O819   C823    1.277   .     A
O819   Cu825   1.972   .     S
O820   C824    1.283   .     A
O820   Cu826   1.972   .     S
O821   C824    1.276   .     A
O821   Cu825   1.972   .     S
O822   C823    1.284   .     A
O822   Cu826   1.972   .     S
C823   C834    1.468   .     S
C824   C833    1.465   .     S
Cu825  Cu826   2.629   .     S
Cu825  N828    1.976   .     S
Cu826  N827    1.976   .     S
N828   N131    1.195   1_556 S
C829   C837    1.414   .     A
C829   S851    1.803   .     S
C829   C833    1.422   .     A
C830   S856    1.790   .     S
C830   C834    1.416   .     A
C830   C838    1.408   .     A
C831   C835    1.408   .     A
C831   C833    1.416   .     A
C831   S861    1.790   .     S
C832   C834    1.422   .     A
C832   S866    1.802   .     S
C832   C836    1.416   .     A
C835   C841    1.404   .     A
C835   C839    1.409   .     A
C836   C840    1.412   .     A
C836   C842    1.402   .     A
C837   C843    1.401   .     A
C837   C839    1.412   .     A
C838   C844    1.404   .     A
C838   C840    1.409   .     A
C839   C898    1.419   .     S
C840   C897    1.419   1_455 S
C841   H847    1.080   .     S
C841   C902    1.387   .     S
C842   H848    1.071   .     S
C842   C901    1.386   1_455 S
C843   H849    1.075   .     S
C843   C900    1.386   .     S
C844   H850    1.080   .     S
C844   C899    1.387   1_455 S
C846   C961    1.191   .     S
S851   O853    1.501   .     D
S851   O852    1.500   .     D
S851   O854    1.683   .     S
O854   H855    0.991   .     S
S856   O859    1.678   .     S
S856   O857    1.502   .     D
S856   O858    1.500   .     D
O859   H860    0.990   .     S
S861   O864    1.680   .     S
S861   O862    1.502   .     D
S861   O863    1.502   .     D
O864   H865    0.991   .     S
S866   O867    1.502   .     D
S866   O868    1.502   .     D
S866   O869    1.681   .     S
O869   H870    0.991   .     S
O871   C875    1.273   .     A
O871   Cu883   1.940   .     S
O872   C876    1.272   .     A
O872   Cu884   1.940   .     S
O873   Cu883   1.942   .     S
O873   C876    1.275   .     A
O874   Cu884   1.942   .     S
O874   C875    1.274   .     A
C875   C903    1.411   .     S
C876   C904    1.411   .     S
O877   C881    1.277   .     A
O877   Cu883   1.972   .     S
O878   C882    1.283   .     A
O878   Cu884   1.972   .     S
O879   C882    1.276   .     A
O879   Cu883   1.972   .     S
O880   C881    1.284   .     A
O880   Cu884   1.972   .     S
C881   C892    1.468   .     S
C882   C891    1.465   .     S
Cu883  Cu884   2.629   .     S
Cu883  N886    1.976   .     S
Cu884  N885    1.976   .     S
N886   N189    1.195   1_556 S
C887   C895    1.414   .     A
C887   S909    1.803   .     S
C887   C891    1.422   .     A
C888   S914    1.790   .     S
C888   C892    1.416   .     A
C888   C896    1.408   .     A
C889   C893    1.408   .     A
C889   C891    1.416   .     A
C889   S919    1.790   .     S
C890   C892    1.422   .     A
C890   S924    1.802   .     S
C890   C894    1.416   .     A
C893   C899    1.404   .     A
C893   C897    1.409   .     A
C894   C898    1.412   .     A
C894   C900    1.402   .     A
C895   C901    1.401   .     A
C895   C897    1.412   .     A
C896   C902    1.404   .     A
C896   C898    1.409   .     A
C897   C840    1.419   1_655 S
C899   H905    1.080   .     S
C899   C844    1.387   1_655 S
C900   H906    1.071   .     S
C901   H907    1.075   .     S
C901   C842    1.386   1_655 S
C902   H908    1.080   .     S
C904   C1019   1.191   .     S
S909   O911    1.501   .     D
S909   O910    1.500   .     D
S909   O912    1.683   .     S
O912   H913    0.991   .     S
S914   O917    1.678   .     S
S914   O915    1.502   .     D
S914   O916    1.500   .     D
O917   H918    0.990   .     S
S919   O922    1.680   .     S
S919   O920    1.502   .     D
S919   O921    1.502   .     D
O922   H923    0.991   .     S
S924   O925    1.502   .     D
S924   O926    1.502   .     D
S924   O927    1.681   .     S
O927   H928    0.991   .     S
O929   C933    1.273   .     A
O929   Cu941   1.940   .     S
O930   C934    1.272   .     A
O930   Cu942   1.940   .     S
O931   Cu941   1.942   .     S
O931   C934    1.275   .     A
O932   Cu942   1.942   .     S
O932   C933    1.274   .     A
C933   C961    1.411   .     S
C934   C962    1.411   .     S
O935   C939    1.277   .     A
O935   Cu941   1.972   .     S
O936   C940    1.283   .     A
O936   Cu942   1.972   .     S
O937   C940    1.276   .     A
O937   Cu941   1.972   .     S
O938   C939    1.284   .     A
O938   Cu942   1.972   .     S
C939   C950    1.468   .     S
C940   C949    1.465   .     S
Cu941  Cu942   2.629   .     S
Cu941  N944    1.976   .     S
Cu942  N943    1.976   .     S
N944   N247    1.195   1_556 S
C945   C953    1.414   .     A
C945   S967    1.803   .     S
C945   C949    1.422   .     A
C946   S972    1.790   .     S
C946   C950    1.416   .     A
C946   C954    1.408   .     A
C947   C951    1.408   .     A
C947   C949    1.416   .     A
C947   S977    1.790   .     S
C948   C950    1.422   .     A
C948   S982    1.802   .     S
C948   C952    1.416   .     A
C951   C957    1.404   .     A
C951   C955    1.409   .     A
C952   C956    1.412   .     A
C952   C958    1.402   .     A
C953   C959    1.401   .     A
C953   C955    1.412   .     A
C954   C960    1.404   .     A
C954   C956    1.409   .     A
C955   C1014   1.419   .     S
C956   C1013   1.419   1_455 S
C957   H963    1.080   .     S
C957   C1018   1.387   .     S
C958   H964    1.071   .     S
C958   C1017   1.386   1_455 S
C959   H965    1.075   .     S
C959   C1016   1.386   .     S
C960   H966    1.080   .     S
C960   C1015   1.387   1_455 S
C962   C729    1.191   1_565 S
S967   O969    1.501   .     D
S967   O968    1.500   .     D
S967   O970    1.683   .     S
O970   H971    0.991   .     S
S972   O975    1.678   .     S
S972   O973    1.502   .     D
S972   O974    1.500   .     D
O975   H976    0.990   .     S
S977   O980    1.680   .     S
S977   O978    1.502   .     D
S977   O979    1.502   .     D
O980   H981    0.991   .     S
S982   O983    1.502   .     D
S982   O984    1.502   .     D
S982   O985    1.681   .     S
O985   H986    0.991   .     S
O987   C991    1.273   .     A
O987   Cu999   1.940   .     S
O988   C992    1.272   .     A
O988   Cu1000  1.940   .     S
O989   Cu999   1.942   .     S
O989   C992    1.275   .     A
O990   Cu1000  1.942   .     S
O990   C991    1.274   .     A
C991   C1019   1.411   .     S
C992   C1020   1.411   .     S
O993   C997    1.277   .     A
O993   Cu999   1.972   .     S
O994   C998    1.283   .     A
O994   Cu1000  1.972   .     S
O995   C998    1.276   .     A
O995   Cu999   1.972   .     S
O996   C997    1.284   .     A
O996   Cu1000  1.972   .     S
C997   C1008   1.468   .     S
C998   C1007   1.465   .     S
Cu999  Cu1000  2.629   .     S
Cu999  N1002   1.976   .     S
Cu1000 N1001   1.976   .     S
N1002  N305    1.195   1_556 S
C1003  C1011   1.414   .     A
C1003  S1025   1.803   .     S
C1003  C1007   1.422   .     A
C1004  S1030   1.790   .     S
C1004  C1008   1.416   .     A
C1004  C1012   1.408   .     A
C1005  C1009   1.408   .     A
C1005  C1007   1.416   .     A
C1005  S1035   1.790   .     S
C1006  C1008   1.422   .     A
C1006  S1040   1.802   .     S
C1006  C1010   1.416   .     A
C1009  C1015   1.404   .     A
C1009  C1013   1.409   .     A
C1010  C1014   1.412   .     A
C1010  C1016   1.402   .     A
C1011  C1017   1.401   .     A
C1011  C1013   1.412   .     A
C1012  C1018   1.404   .     A
C1012  C1014   1.409   .     A
C1013  C956    1.419   1_655 S
C1015  H1021   1.080   .     S
C1015  C960    1.387   1_655 S
C1016  H1022   1.071   .     S
C1017  H1023   1.075   .     S
C1017  C958    1.386   1_655 S
C1018  H1024   1.080   .     S
C1020  C787    1.191   1_565 S
S1025  O1027   1.501   .     D
S1025  O1026   1.500   .     D
S1025  O1028   1.683   .     S
O1028  H1029   0.991   .     S
S1030  O1033   1.678   .     S
S1030  O1031   1.502   .     D
S1030  O1032   1.500   .     D
O1033  H1034   0.990   .     S
S1035  O1038   1.680   .     S
S1035  O1036   1.502   .     D
S1035  O1037   1.502   .     D
O1038  H1039   0.991   .     S
S1040  O1041   1.502   .     D
S1040  O1042   1.502   .     D
S1040  O1043   1.681   .     S
O1043  H1044   0.991   .     S
