data_str_m2_o1_o10_pcu_sym.175
_audit_creation_date              2020-01-03
_audit_creation_method            'Materials Studio'
_symmetry_space_group_name_H-M    'P1'
_symmetry_Int_Tables_number       1
_symmetry_cell_setting            triclinic
loop_
_symmetry_equiv_pos_as_xyz
  x,y,z
_cell_length_a                    26.1777
_cell_length_b                    32.3584
_cell_length_c                    28.6008
_cell_angle_alpha                 90.3044
_cell_angle_beta                  97.8821
_cell_angle_gamma                 89.9016
loop_
_atom_site_label
_atom_site_type_symbol
_atom_site_fract_x
_atom_site_fract_y
_atom_site_fract_z
_atom_site_U_iso_or_equiv
_atom_site_adp_type
_atom_site_occupancy
O1     O     0.16666   0.10655   0.20625   0.00000  Uiso   1.00
O2     O     0.16667   0.22678   0.12709   0.00000  Uiso   1.00
O3     O     0.16666   0.10654   0.12706   0.00000  Uiso   1.00
O4     O     0.16667   0.22679   0.20628   0.00000  Uiso   1.00
C5     C     0.16655   0.08751   0.16650   0.00000  Uiso   1.00
C6     C     0.16678   0.24582   0.16683   0.00000  Uiso   1.00
O7     O     0.09161   0.16667   0.19712   0.00000  Uiso   1.00
O8     O     0.24172   0.16666   0.13621   0.00000  Uiso   1.00
O9     O     0.09161   0.16666   0.11793   0.00000  Uiso   1.00
O10    O     0.24172   0.16667   0.21540   0.00000  Uiso   1.00
C11    C     0.06793   0.16651   0.15459   0.00000  Uiso   1.00
C12    C     0.26540   0.16683   0.17874   0.00000  Uiso   1.00
Cu13   Cu    0.16667   0.16667   0.21355   0.00000  Uiso   1.00
Cu14   Cu    0.16667   0.16666   0.11978   0.00000  Uiso   1.00
N15    N     0.16668   0.16668   0.28403   0.00000  Uiso   1.00
N16    N     0.16665   0.16666   0.04931   0.00000  Uiso   1.00
C17    C     0.01265   0.16648   0.14794   0.00000  Uiso   1.00
C18    C     0.32068   0.16685   0.18540   0.00000  Uiso   1.00
H19    H     0.32603   0.16625   0.11200   0.00000  Uiso   1.00
H20    H     0.00730   0.16708   0.22134   0.00000  Uiso   1.00
C21    C     0.12460   0.02139   0.14086   0.00000  Uiso   1.00
C22    C     0.20873   0.31195   0.19247   0.00000  Uiso   1.00
C23    C     0.12516   0.31143   0.14121   0.00000  Uiso   1.00
C24    C     0.20817   0.02191   0.19212   0.00000  Uiso   1.00
C25    C     0.16677   0.29049   0.16724   0.00000  Uiso   1.00
C26    C     0.16656   0.04284   0.16609   0.00000  Uiso   1.00
C27    C     0.13186   0.14349   0.02026   0.00000  Uiso   1.00
C28    C     0.20147   0.18985   0.31307   0.00000  Uiso   1.00
H29    H     0.10398   0.12489   0.03526   0.00000  Uiso   1.00
H30    H     0.22936   0.20844   0.29807   0.00000  Uiso   1.00
C31    C     0.13189   0.14348   0.30403   0.00000  Uiso   1.00
C32    C     0.20145   0.18985   0.02930   0.00000  Uiso   1.00
H33    H     0.10405   0.12484   0.28179   0.00000  Uiso   1.00
H34    H     0.22928   0.20850   0.05155   0.00000  Uiso   1.00
C35    C     0.07856   0.04491   0.11610   0.00000  Uiso   1.00
H36    H     0.06478   0.06765   0.14081   0.00000  Uiso   1.00
H37    H     0.08972   0.06147   0.08519   0.00000  Uiso   1.00
H38    H     0.04524   0.02480   0.10354   0.00000  Uiso   1.00
C39    C     0.25478   0.28842   0.21722   0.00000  Uiso   1.00
H40    H     0.26855   0.26568   0.19252   0.00000  Uiso   1.00
H41    H     0.28811   0.30853   0.22977   0.00000  Uiso   1.00
H42    H     0.24362   0.27186   0.24814   0.00000  Uiso   1.00
N43    N     0.08341   0.28846   0.11560   0.00000  Uiso   1.00
O44    O     0.05453   0.26514   0.13802   0.00000  Uiso   1.00
O45    O     0.07523   0.28989   0.06973   0.00000  Uiso   1.00
N46    N     0.24994   0.04487   0.21772   0.00000  Uiso   1.00
O47    O     0.27879   0.06821   0.19529   0.00000  Uiso   1.00
O48    O     0.25813   0.04344   0.26359   0.00000  Uiso   1.00
O49    O     0.50000   0.10655   0.20625   0.00000  Uiso   1.00
O50    O     0.50000   0.22678   0.12709   0.00000  Uiso   1.00
O51    O     0.50000   0.10654   0.12706   0.00000  Uiso   1.00
O52    O     0.50000   0.22679   0.20628   0.00000  Uiso   1.00
C53    C     0.49988   0.08751   0.16650   0.00000  Uiso   1.00
C54    C     0.50012   0.24582   0.16683   0.00000  Uiso   1.00
O55    O     0.42495   0.16667   0.19712   0.00000  Uiso   1.00
O56    O     0.57505   0.16666   0.13621   0.00000  Uiso   1.00
O57    O     0.42494   0.16666   0.11793   0.00000  Uiso   1.00
O58    O     0.57506   0.16667   0.21540   0.00000  Uiso   1.00
C59    C     0.40127   0.16651   0.15459   0.00000  Uiso   1.00
C60    C     0.59873   0.16683   0.17874   0.00000  Uiso   1.00
Cu61   Cu    0.50000   0.16667   0.21355   0.00000  Uiso   1.00
Cu62   Cu    0.50000   0.16666   0.11978   0.00000  Uiso   1.00
N63    N     0.50001   0.16668   0.28403   0.00000  Uiso   1.00
N64    N     0.49999   0.16666   0.04931   0.00000  Uiso   1.00
C65    C     0.34598   0.16648   0.14794   0.00000  Uiso   1.00
C66    C     0.65402   0.16685   0.18540   0.00000  Uiso   1.00
H67    H     0.65936   0.16625   0.11200   0.00000  Uiso   1.00
H68    H     0.34064   0.16708   0.22134   0.00000  Uiso   1.00
C69    C     0.45794   0.02139   0.14086   0.00000  Uiso   1.00
C70    C     0.54206   0.31195   0.19247   0.00000  Uiso   1.00
C71    C     0.45850   0.31143   0.14121   0.00000  Uiso   1.00
C72    C     0.54151   0.02191   0.19212   0.00000  Uiso   1.00
C73    C     0.50010   0.29049   0.16724   0.00000  Uiso   1.00
C74    C     0.49990   0.04284   0.16609   0.00000  Uiso   1.00
C75    C     0.46520   0.14349   0.02026   0.00000  Uiso   1.00
C76    C     0.53480   0.18985   0.31307   0.00000  Uiso   1.00
H77    H     0.43731   0.12489   0.03526   0.00000  Uiso   1.00
H78    H     0.56269   0.20844   0.29807   0.00000  Uiso   1.00
C79    C     0.46522   0.14348   0.30403   0.00000  Uiso   1.00
C80    C     0.53478   0.18985   0.02930   0.00000  Uiso   1.00
H81    H     0.43738   0.12484   0.28179   0.00000  Uiso   1.00
H82    H     0.56262   0.20850   0.05155   0.00000  Uiso   1.00
C83    C     0.41189   0.04491   0.11610   0.00000  Uiso   1.00
H84    H     0.39812   0.06765   0.14081   0.00000  Uiso   1.00
H85    H     0.42306   0.06147   0.08519   0.00000  Uiso   1.00
H86    H     0.37857   0.02480   0.10354   0.00000  Uiso   1.00
C87    C     0.58811   0.28842   0.21722   0.00000  Uiso   1.00
H88    H     0.60188   0.26568   0.19252   0.00000  Uiso   1.00
H89    H     0.62144   0.30853   0.22977   0.00000  Uiso   1.00
H90    H     0.57695   0.27186   0.24814   0.00000  Uiso   1.00
N91    N     0.41674   0.28846   0.11560   0.00000  Uiso   1.00
O92    O     0.38786   0.26514   0.13802   0.00000  Uiso   1.00
O93    O     0.40857   0.28989   0.06973   0.00000  Uiso   1.00
N94    N     0.58327   0.04487   0.21772   0.00000  Uiso   1.00
O95    O     0.61212   0.06821   0.19529   0.00000  Uiso   1.00
O96    O     0.59147   0.04344   0.26359   0.00000  Uiso   1.00
O97    O     0.83333   0.10655   0.20625   0.00000  Uiso   1.00
O98    O     0.83334   0.22678   0.12709   0.00000  Uiso   1.00
O99    O     0.83333   0.10654   0.12706   0.00000  Uiso   1.00
O100   O     0.83334   0.22679   0.20628   0.00000  Uiso   1.00
C101   C     0.83322   0.08751   0.16650   0.00000  Uiso   1.00
C102   C     0.83345   0.24582   0.16683   0.00000  Uiso   1.00
O103   O     0.75828   0.16667   0.19712   0.00000  Uiso   1.00
O104   O     0.90839   0.16666   0.13621   0.00000  Uiso   1.00
O105   O     0.75828   0.16666   0.11793   0.00000  Uiso   1.00
O106   O     0.90839   0.16667   0.21540   0.00000  Uiso   1.00
C107   C     0.73460   0.16651   0.15459   0.00000  Uiso   1.00
C108   C     0.93207   0.16683   0.17874   0.00000  Uiso   1.00
Cu109  Cu    0.83333   0.16667   0.21355   0.00000  Uiso   1.00
Cu110  Cu    0.83333   0.16666   0.11978   0.00000  Uiso   1.00
N111   N     0.83335   0.16668   0.28403   0.00000  Uiso   1.00
N112   N     0.83332   0.16666   0.04931   0.00000  Uiso   1.00
C113   C     0.67932   0.16648   0.14794   0.00000  Uiso   1.00
C114   C     0.98735   0.16685   0.18540   0.00000  Uiso   1.00
H115   H     0.99270   0.16625   0.11200   0.00000  Uiso   1.00
H116   H     0.67397   0.16708   0.22134   0.00000  Uiso   1.00
C117   C     0.79127   0.02139   0.14086   0.00000  Uiso   1.00
C118   C     0.87540   0.31195   0.19247   0.00000  Uiso   1.00
C119   C     0.79183   0.31143   0.14121   0.00000  Uiso   1.00
C120   C     0.87484   0.02191   0.19212   0.00000  Uiso   1.00
C121   C     0.83344   0.29049   0.16724   0.00000  Uiso   1.00
C122   C     0.83323   0.04284   0.16609   0.00000  Uiso   1.00
C123   C     0.79853   0.14349   0.02026   0.00000  Uiso   1.00
C124   C     0.86814   0.18985   0.31307   0.00000  Uiso   1.00
H125   H     0.77064   0.12489   0.03526   0.00000  Uiso   1.00
H126   H     0.89602   0.20844   0.29807   0.00000  Uiso   1.00
C127   C     0.79855   0.14348   0.30403   0.00000  Uiso   1.00
C128   C     0.86811   0.18985   0.02930   0.00000  Uiso   1.00
H129   H     0.77072   0.12484   0.28179   0.00000  Uiso   1.00
H130   H     0.89595   0.20850   0.05155   0.00000  Uiso   1.00
C131   C     0.74522   0.04491   0.11610   0.00000  Uiso   1.00
H132   H     0.73145   0.06765   0.14081   0.00000  Uiso   1.00
H133   H     0.75639   0.06147   0.08519   0.00000  Uiso   1.00
H134   H     0.71190   0.02480   0.10354   0.00000  Uiso   1.00
C135   C     0.92145   0.28842   0.21722   0.00000  Uiso   1.00
H136   H     0.93521   0.26568   0.19252   0.00000  Uiso   1.00
H137   H     0.95477   0.30853   0.22977   0.00000  Uiso   1.00
H138   H     0.91028   0.27186   0.24814   0.00000  Uiso   1.00
N139   N     0.75007   0.28846   0.11560   0.00000  Uiso   1.00
O140   O     0.72120   0.26514   0.13802   0.00000  Uiso   1.00
O141   O     0.74190   0.28989   0.06973   0.00000  Uiso   1.00
N142   N     0.91660   0.04487   0.21772   0.00000  Uiso   1.00
O143   O     0.94546   0.06821   0.19529   0.00000  Uiso   1.00
O144   O     0.92480   0.04344   0.26359   0.00000  Uiso   1.00
O145   O     0.16666   0.43989   0.20625   0.00000  Uiso   1.00
O146   O     0.16667   0.56011   0.12709   0.00000  Uiso   1.00
O147   O     0.16666   0.43988   0.12706   0.00000  Uiso   1.00
O148   O     0.16667   0.56012   0.20628   0.00000  Uiso   1.00
C149   C     0.16655   0.42085   0.16650   0.00000  Uiso   1.00
C150   C     0.16678   0.57915   0.16683   0.00000  Uiso   1.00
O151   O     0.09161   0.50000   0.19712   0.00000  Uiso   1.00
O152   O     0.24172   0.50000   0.13621   0.00000  Uiso   1.00
O153   O     0.09161   0.49999   0.11793   0.00000  Uiso   1.00
O154   O     0.24172   0.50001   0.21540   0.00000  Uiso   1.00
C155   C     0.06793   0.49984   0.15459   0.00000  Uiso   1.00
C156   C     0.26540   0.50016   0.17874   0.00000  Uiso   1.00
Cu157  Cu    0.16667   0.50001   0.21355   0.00000  Uiso   1.00
Cu158  Cu    0.16667   0.49999   0.11978   0.00000  Uiso   1.00
N159   N     0.16668   0.50001   0.28403   0.00000  Uiso   1.00
N160   N     0.16665   0.49999   0.04931   0.00000  Uiso   1.00
C161   C     0.01265   0.49982   0.14794   0.00000  Uiso   1.00
C162   C     0.32068   0.50018   0.18540   0.00000  Uiso   1.00
H163   H     0.32603   0.49959   0.11200   0.00000  Uiso   1.00
H164   H     0.00730   0.50041   0.22134   0.00000  Uiso   1.00
C165   C     0.12460   0.35472   0.14086   0.00000  Uiso   1.00
C166   C     0.20873   0.64528   0.19247   0.00000  Uiso   1.00
C167   C     0.12516   0.64476   0.14121   0.00000  Uiso   1.00
C168   C     0.20817   0.35524   0.19212   0.00000  Uiso   1.00
C169   C     0.16677   0.62382   0.16724   0.00000  Uiso   1.00
C170   C     0.16656   0.37617   0.16609   0.00000  Uiso   1.00
C171   C     0.13186   0.47682   0.02026   0.00000  Uiso   1.00
C172   C     0.20147   0.52318   0.31307   0.00000  Uiso   1.00
H173   H     0.10398   0.45823   0.03526   0.00000  Uiso   1.00
H174   H     0.22936   0.54178   0.29807   0.00000  Uiso   1.00
C175   C     0.13189   0.47682   0.30403   0.00000  Uiso   1.00
C176   C     0.20145   0.52318   0.02930   0.00000  Uiso   1.00
H177   H     0.10405   0.45817   0.28179   0.00000  Uiso   1.00
H178   H     0.22928   0.54183   0.05155   0.00000  Uiso   1.00
C179   C     0.07856   0.37824   0.11610   0.00000  Uiso   1.00
H180   H     0.06478   0.40098   0.14081   0.00000  Uiso   1.00
H181   H     0.08972   0.39481   0.08519   0.00000  Uiso   1.00
H182   H     0.04524   0.35813   0.10354   0.00000  Uiso   1.00
C183   C     0.25478   0.62175   0.21722   0.00000  Uiso   1.00
H184   H     0.26855   0.59902   0.19252   0.00000  Uiso   1.00
H185   H     0.28811   0.64186   0.22977   0.00000  Uiso   1.00
H186   H     0.24362   0.60520   0.24814   0.00000  Uiso   1.00
N187   N     0.08341   0.62180   0.11560   0.00000  Uiso   1.00
O188   O     0.05453   0.59847   0.13802   0.00000  Uiso   1.00
O189   O     0.07523   0.62322   0.06973   0.00000  Uiso   1.00
N190   N     0.24994   0.37820   0.21772   0.00000  Uiso   1.00
O191   O     0.27879   0.40154   0.19529   0.00000  Uiso   1.00
O192   O     0.25813   0.37677   0.26359   0.00000  Uiso   1.00
O193   O     0.50000   0.43989   0.20625   0.00000  Uiso   1.00
O194   O     0.50000   0.56011   0.12709   0.00000  Uiso   1.00
O195   O     0.50000   0.43988   0.12706   0.00000  Uiso   1.00
O196   O     0.50000   0.56012   0.20628   0.00000  Uiso   1.00
C197   C     0.49988   0.42085   0.16650   0.00000  Uiso   1.00
C198   C     0.50012   0.57915   0.16683   0.00000  Uiso   1.00
O199   O     0.42495   0.50000   0.19712   0.00000  Uiso   1.00
O200   O     0.57505   0.50000   0.13621   0.00000  Uiso   1.00
O201   O     0.42494   0.49999   0.11793   0.00000  Uiso   1.00
O202   O     0.57506   0.50001   0.21540   0.00000  Uiso   1.00
C203   C     0.40127   0.49984   0.15459   0.00000  Uiso   1.00
C204   C     0.59873   0.50016   0.17874   0.00000  Uiso   1.00
Cu205  Cu    0.50000   0.50001   0.21355   0.00000  Uiso   1.00
Cu206  Cu    0.50000   0.49999   0.11978   0.00000  Uiso   1.00
N207   N     0.50001   0.50001   0.28403   0.00000  Uiso   1.00
N208   N     0.49999   0.49999   0.04931   0.00000  Uiso   1.00
C209   C     0.34598   0.49982   0.14794   0.00000  Uiso   1.00
C210   C     0.65402   0.50018   0.18540   0.00000  Uiso   1.00
H211   H     0.65936   0.49959   0.11200   0.00000  Uiso   1.00
H212   H     0.34064   0.50041   0.22134   0.00000  Uiso   1.00
C213   C     0.45794   0.35472   0.14086   0.00000  Uiso   1.00
C214   C     0.54206   0.64528   0.19247   0.00000  Uiso   1.00
C215   C     0.45850   0.64476   0.14121   0.00000  Uiso   1.00
C216   C     0.54151   0.35524   0.19212   0.00000  Uiso   1.00
C217   C     0.50010   0.62382   0.16724   0.00000  Uiso   1.00
C218   C     0.49990   0.37617   0.16609   0.00000  Uiso   1.00
C219   C     0.46520   0.47682   0.02026   0.00000  Uiso   1.00
C220   C     0.53480   0.52318   0.31307   0.00000  Uiso   1.00
H221   H     0.43731   0.45823   0.03526   0.00000  Uiso   1.00
H222   H     0.56269   0.54178   0.29807   0.00000  Uiso   1.00
C223   C     0.46522   0.47682   0.30403   0.00000  Uiso   1.00
C224   C     0.53478   0.52318   0.02930   0.00000  Uiso   1.00
H225   H     0.43738   0.45817   0.28179   0.00000  Uiso   1.00
H226   H     0.56262   0.54183   0.05155   0.00000  Uiso   1.00
C227   C     0.41189   0.37824   0.11610   0.00000  Uiso   1.00
H228   H     0.39812   0.40098   0.14081   0.00000  Uiso   1.00
H229   H     0.42306   0.39481   0.08519   0.00000  Uiso   1.00
H230   H     0.37857   0.35813   0.10354   0.00000  Uiso   1.00
C231   C     0.58811   0.62175   0.21722   0.00000  Uiso   1.00
H232   H     0.60188   0.59902   0.19252   0.00000  Uiso   1.00
H233   H     0.62144   0.64186   0.22977   0.00000  Uiso   1.00
H234   H     0.57695   0.60520   0.24814   0.00000  Uiso   1.00
N235   N     0.41674   0.62180   0.11560   0.00000  Uiso   1.00
O236   O     0.38786   0.59847   0.13802   0.00000  Uiso   1.00
O237   O     0.40857   0.62322   0.06973   0.00000  Uiso   1.00
N238   N     0.58327   0.37820   0.21772   0.00000  Uiso   1.00
O239   O     0.61212   0.40154   0.19529   0.00000  Uiso   1.00
O240   O     0.59147   0.37677   0.26359   0.00000  Uiso   1.00
O241   O     0.83333   0.43989   0.20625   0.00000  Uiso   1.00
O242   O     0.83334   0.56011   0.12709   0.00000  Uiso   1.00
O243   O     0.83333   0.43988   0.12706   0.00000  Uiso   1.00
O244   O     0.83334   0.56012   0.20628   0.00000  Uiso   1.00
C245   C     0.83322   0.42085   0.16650   0.00000  Uiso   1.00
C246   C     0.83345   0.57915   0.16683   0.00000  Uiso   1.00
O247   O     0.75828   0.50000   0.19712   0.00000  Uiso   1.00
O248   O     0.90839   0.50000   0.13621   0.00000  Uiso   1.00
O249   O     0.75828   0.49999   0.11793   0.00000  Uiso   1.00
O250   O     0.90839   0.50001   0.21540   0.00000  Uiso   1.00
C251   C     0.73460   0.49984   0.15459   0.00000  Uiso   1.00
C252   C     0.93207   0.50016   0.17874   0.00000  Uiso   1.00
Cu253  Cu    0.83333   0.50001   0.21355   0.00000  Uiso   1.00
Cu254  Cu    0.83333   0.49999   0.11978   0.00000  Uiso   1.00
N255   N     0.83335   0.50001   0.28403   0.00000  Uiso   1.00
N256   N     0.83332   0.49999   0.04931   0.00000  Uiso   1.00
C257   C     0.67932   0.49982   0.14794   0.00000  Uiso   1.00
C258   C     0.98735   0.50018   0.18540   0.00000  Uiso   1.00
H259   H     0.99270   0.49959   0.11200   0.00000  Uiso   1.00
H260   H     0.67397   0.50041   0.22134   0.00000  Uiso   1.00
C261   C     0.79127   0.35472   0.14086   0.00000  Uiso   1.00
C262   C     0.87540   0.64528   0.19247   0.00000  Uiso   1.00
C263   C     0.79183   0.64476   0.14121   0.00000  Uiso   1.00
C264   C     0.87484   0.35524   0.19212   0.00000  Uiso   1.00
C265   C     0.83344   0.62382   0.16724   0.00000  Uiso   1.00
C266   C     0.83323   0.37617   0.16609   0.00000  Uiso   1.00
C267   C     0.79853   0.47682   0.02026   0.00000  Uiso   1.00
C268   C     0.86814   0.52318   0.31307   0.00000  Uiso   1.00
H269   H     0.77064   0.45823   0.03526   0.00000  Uiso   1.00
H270   H     0.89602   0.54178   0.29807   0.00000  Uiso   1.00
C271   C     0.79855   0.47682   0.30403   0.00000  Uiso   1.00
C272   C     0.86811   0.52318   0.02930   0.00000  Uiso   1.00
H273   H     0.77072   0.45817   0.28179   0.00000  Uiso   1.00
H274   H     0.89595   0.54183   0.05155   0.00000  Uiso   1.00
C275   C     0.74522   0.37824   0.11610   0.00000  Uiso   1.00
H276   H     0.73145   0.40098   0.14081   0.00000  Uiso   1.00
H277   H     0.75639   0.39481   0.08519   0.00000  Uiso   1.00
H278   H     0.71190   0.35813   0.10354   0.00000  Uiso   1.00
C279   C     0.92145   0.62175   0.21722   0.00000  Uiso   1.00
H280   H     0.93521   0.59902   0.19252   0.00000  Uiso   1.00
H281   H     0.95477   0.64186   0.22977   0.00000  Uiso   1.00
H282   H     0.91028   0.60520   0.24814   0.00000  Uiso   1.00
N283   N     0.75007   0.62180   0.11560   0.00000  Uiso   1.00
O284   O     0.72120   0.59847   0.13802   0.00000  Uiso   1.00
O285   O     0.74190   0.62322   0.06973   0.00000  Uiso   1.00
N286   N     0.91660   0.37820   0.21772   0.00000  Uiso   1.00
O287   O     0.94546   0.40154   0.19529   0.00000  Uiso   1.00
O288   O     0.92480   0.37677   0.26359   0.00000  Uiso   1.00
O289   O     0.16666   0.77322   0.20625   0.00000  Uiso   1.00
O290   O     0.16667   0.89345   0.12709   0.00000  Uiso   1.00
O291   O     0.16666   0.77321   0.12706   0.00000  Uiso   1.00
O292   O     0.16667   0.89346   0.20628   0.00000  Uiso   1.00
C293   C     0.16655   0.75418   0.16650   0.00000  Uiso   1.00
C294   C     0.16678   0.91249   0.16683   0.00000  Uiso   1.00
O295   O     0.09161   0.83334   0.19712   0.00000  Uiso   1.00
O296   O     0.24172   0.83333   0.13621   0.00000  Uiso   1.00
O297   O     0.09161   0.83333   0.11793   0.00000  Uiso   1.00
O298   O     0.24172   0.83334   0.21540   0.00000  Uiso   1.00
C299   C     0.06793   0.83317   0.15459   0.00000  Uiso   1.00
C300   C     0.26540   0.83349   0.17874   0.00000  Uiso   1.00
Cu301  Cu    0.16667   0.83334   0.21355   0.00000  Uiso   1.00
Cu302  Cu    0.16667   0.83333   0.11978   0.00000  Uiso   1.00
N303   N     0.16668   0.83334   0.28403   0.00000  Uiso   1.00
N304   N     0.16665   0.83332   0.04931   0.00000  Uiso   1.00
C305   C     0.01265   0.83315   0.14794   0.00000  Uiso   1.00
C306   C     0.32068   0.83352   0.18540   0.00000  Uiso   1.00
H307   H     0.32603   0.83292   0.11200   0.00000  Uiso   1.00
H308   H     0.00730   0.83375   0.22134   0.00000  Uiso   1.00
C309   C     0.12460   0.68805   0.14086   0.00000  Uiso   1.00
C310   C     0.20873   0.97861   0.19247   0.00000  Uiso   1.00
C311   C     0.12516   0.97809   0.14121   0.00000  Uiso   1.00
C312   C     0.20817   0.68857   0.19212   0.00000  Uiso   1.00
C313   C     0.16677   0.95716   0.16724   0.00000  Uiso   1.00
C314   C     0.16656   0.70951   0.16609   0.00000  Uiso   1.00
C315   C     0.13186   0.81015   0.02026   0.00000  Uiso   1.00
C316   C     0.20147   0.85651   0.31307   0.00000  Uiso   1.00
H317   H     0.10398   0.79156   0.03526   0.00000  Uiso   1.00
H318   H     0.22936   0.87511   0.29807   0.00000  Uiso   1.00
C319   C     0.13189   0.81015   0.30403   0.00000  Uiso   1.00
C320   C     0.20145   0.85652   0.02930   0.00000  Uiso   1.00
H321   H     0.10405   0.79150   0.28179   0.00000  Uiso   1.00
H322   H     0.22928   0.87516   0.05155   0.00000  Uiso   1.00
C323   C     0.07856   0.71158   0.11610   0.00000  Uiso   1.00
H324   H     0.06478   0.73431   0.14081   0.00000  Uiso   1.00
H325   H     0.08972   0.72814   0.08519   0.00000  Uiso   1.00
H326   H     0.04524   0.69147   0.10354   0.00000  Uiso   1.00
C327   C     0.25478   0.95509   0.21722   0.00000  Uiso   1.00
H328   H     0.26855   0.93235   0.19252   0.00000  Uiso   1.00
H329   H     0.28811   0.97520   0.22977   0.00000  Uiso   1.00
H330   H     0.24362   0.93853   0.24814   0.00000  Uiso   1.00
N331   N     0.08341   0.95513   0.11560   0.00000  Uiso   1.00
O332   O     0.05453   0.93180   0.13802   0.00000  Uiso   1.00
O333   O     0.07523   0.95655   0.06973   0.00000  Uiso   1.00
N334   N     0.24994   0.71154   0.21772   0.00000  Uiso   1.00
O335   O     0.27879   0.73487   0.19529   0.00000  Uiso   1.00
O336   O     0.25813   0.71010   0.26359   0.00000  Uiso   1.00
O337   O     0.50000   0.77322   0.20625   0.00000  Uiso   1.00
O338   O     0.50000   0.89345   0.12709   0.00000  Uiso   1.00
O339   O     0.50000   0.77321   0.12706   0.00000  Uiso   1.00
O340   O     0.50000   0.89346   0.20628   0.00000  Uiso   1.00
C341   C     0.49988   0.75418   0.16650   0.00000  Uiso   1.00
C342   C     0.50012   0.91249   0.16683   0.00000  Uiso   1.00
O343   O     0.42495   0.83334   0.19712   0.00000  Uiso   1.00
O344   O     0.57505   0.83333   0.13621   0.00000  Uiso   1.00
O345   O     0.42494   0.83333   0.11793   0.00000  Uiso   1.00
O346   O     0.57506   0.83334   0.21540   0.00000  Uiso   1.00
C347   C     0.40127   0.83317   0.15459   0.00000  Uiso   1.00
C348   C     0.59873   0.83349   0.17874   0.00000  Uiso   1.00
Cu349  Cu    0.50000   0.83334   0.21355   0.00000  Uiso   1.00
Cu350  Cu    0.50000   0.83333   0.11978   0.00000  Uiso   1.00
N351   N     0.50001   0.83334   0.28403   0.00000  Uiso   1.00
N352   N     0.49999   0.83332   0.04931   0.00000  Uiso   1.00
C353   C     0.34598   0.83315   0.14794   0.00000  Uiso   1.00
C354   C     0.65402   0.83352   0.18540   0.00000  Uiso   1.00
H355   H     0.65936   0.83292   0.11200   0.00000  Uiso   1.00
H356   H     0.34064   0.83375   0.22134   0.00000  Uiso   1.00
C357   C     0.45794   0.68805   0.14086   0.00000  Uiso   1.00
C358   C     0.54206   0.97861   0.19247   0.00000  Uiso   1.00
C359   C     0.45850   0.97809   0.14121   0.00000  Uiso   1.00
C360   C     0.54151   0.68857   0.19212   0.00000  Uiso   1.00
C361   C     0.50010   0.95716   0.16724   0.00000  Uiso   1.00
C362   C     0.49990   0.70951   0.16609   0.00000  Uiso   1.00
C363   C     0.46520   0.81015   0.02026   0.00000  Uiso   1.00
C364   C     0.53480   0.85651   0.31307   0.00000  Uiso   1.00
H365   H     0.43731   0.79156   0.03526   0.00000  Uiso   1.00
H366   H     0.56269   0.87511   0.29807   0.00000  Uiso   1.00
C367   C     0.46522   0.81015   0.30403   0.00000  Uiso   1.00
C368   C     0.53478   0.85652   0.02930   0.00000  Uiso   1.00
H369   H     0.43738   0.79150   0.28179   0.00000  Uiso   1.00
H370   H     0.56262   0.87516   0.05155   0.00000  Uiso   1.00
C371   C     0.41189   0.71158   0.11610   0.00000  Uiso   1.00
H372   H     0.39812   0.73431   0.14081   0.00000  Uiso   1.00
H373   H     0.42306   0.72814   0.08519   0.00000  Uiso   1.00
H374   H     0.37857   0.69147   0.10354   0.00000  Uiso   1.00
C375   C     0.58811   0.95509   0.21722   0.00000  Uiso   1.00
H376   H     0.60188   0.93235   0.19252   0.00000  Uiso   1.00
H377   H     0.62144   0.97520   0.22977   0.00000  Uiso   1.00
H378   H     0.57695   0.93853   0.24814   0.00000  Uiso   1.00
N379   N     0.41674   0.95513   0.11560   0.00000  Uiso   1.00
O380   O     0.38786   0.93180   0.13802   0.00000  Uiso   1.00
O381   O     0.40857   0.95655   0.06973   0.00000  Uiso   1.00
N382   N     0.58327   0.71154   0.21772   0.00000  Uiso   1.00
O383   O     0.61212   0.73487   0.19529   0.00000  Uiso   1.00
O384   O     0.59147   0.71010   0.26359   0.00000  Uiso   1.00
O385   O     0.83333   0.77322   0.20625   0.00000  Uiso   1.00
O386   O     0.83334   0.89345   0.12709   0.00000  Uiso   1.00
O387   O     0.83333   0.77321   0.12706   0.00000  Uiso   1.00
O388   O     0.83334   0.89346   0.20628   0.00000  Uiso   1.00
C389   C     0.83322   0.75418   0.16650   0.00000  Uiso   1.00
C390   C     0.83345   0.91249   0.16683   0.00000  Uiso   1.00
O391   O     0.75828   0.83334   0.19712   0.00000  Uiso   1.00
O392   O     0.90839   0.83333   0.13621   0.00000  Uiso   1.00
O393   O     0.75828   0.83333   0.11793   0.00000  Uiso   1.00
O394   O     0.90839   0.83334   0.21540   0.00000  Uiso   1.00
C395   C     0.73460   0.83317   0.15459   0.00000  Uiso   1.00
C396   C     0.93207   0.83349   0.17874   0.00000  Uiso   1.00
Cu397  Cu    0.83333   0.83334   0.21355   0.00000  Uiso   1.00
Cu398  Cu    0.83333   0.83333   0.11978   0.00000  Uiso   1.00
N399   N     0.83335   0.83334   0.28403   0.00000  Uiso   1.00
N400   N     0.83332   0.83332   0.04931   0.00000  Uiso   1.00
C401   C     0.67932   0.83315   0.14794   0.00000  Uiso   1.00
C402   C     0.98735   0.83352   0.18540   0.00000  Uiso   1.00
H403   H     0.99270   0.83292   0.11200   0.00000  Uiso   1.00
H404   H     0.67397   0.83375   0.22134   0.00000  Uiso   1.00
C405   C     0.79127   0.68805   0.14086   0.00000  Uiso   1.00
C406   C     0.87540   0.97861   0.19247   0.00000  Uiso   1.00
C407   C     0.79183   0.97809   0.14121   0.00000  Uiso   1.00
C408   C     0.87484   0.68857   0.19212   0.00000  Uiso   1.00
C409   C     0.83344   0.95716   0.16724   0.00000  Uiso   1.00
C410   C     0.83323   0.70951   0.16609   0.00000  Uiso   1.00
C411   C     0.79853   0.81015   0.02026   0.00000  Uiso   1.00
C412   C     0.86814   0.85651   0.31307   0.00000  Uiso   1.00
H413   H     0.77064   0.79156   0.03526   0.00000  Uiso   1.00
H414   H     0.89602   0.87511   0.29807   0.00000  Uiso   1.00
C415   C     0.79855   0.81015   0.30403   0.00000  Uiso   1.00
C416   C     0.86811   0.85652   0.02930   0.00000  Uiso   1.00
H417   H     0.77072   0.79150   0.28179   0.00000  Uiso   1.00
H418   H     0.89595   0.87516   0.05155   0.00000  Uiso   1.00
C419   C     0.74522   0.71158   0.11610   0.00000  Uiso   1.00
H420   H     0.73145   0.73431   0.14081   0.00000  Uiso   1.00
H421   H     0.75639   0.72814   0.08519   0.00000  Uiso   1.00
H422   H     0.71190   0.69147   0.10354   0.00000  Uiso   1.00
C423   C     0.92145   0.95509   0.21722   0.00000  Uiso   1.00
H424   H     0.93521   0.93235   0.19252   0.00000  Uiso   1.00
H425   H     0.95477   0.97520   0.22977   0.00000  Uiso   1.00
H426   H     0.91028   0.93853   0.24814   0.00000  Uiso   1.00
N427   N     0.75007   0.95513   0.11560   0.00000  Uiso   1.00
O428   O     0.72120   0.93180   0.13802   0.00000  Uiso   1.00
O429   O     0.74190   0.95655   0.06973   0.00000  Uiso   1.00
N430   N     0.91660   0.71154   0.21772   0.00000  Uiso   1.00
O431   O     0.94546   0.73487   0.19529   0.00000  Uiso   1.00
O432   O     0.92480   0.71010   0.26359   0.00000  Uiso   1.00
O433   O     0.16666   0.10655   0.53958   0.00000  Uiso   1.00
O434   O     0.16667   0.22678   0.46042   0.00000  Uiso   1.00
O435   O     0.16666   0.10654   0.46039   0.00000  Uiso   1.00
O436   O     0.16667   0.22679   0.53961   0.00000  Uiso   1.00
C437   C     0.16655   0.08751   0.49983   0.00000  Uiso   1.00
C438   C     0.16678   0.24582   0.50017   0.00000  Uiso   1.00
O439   O     0.09161   0.16667   0.53046   0.00000  Uiso   1.00
O440   O     0.24172   0.16666   0.46954   0.00000  Uiso   1.00
O441   O     0.09161   0.16666   0.45127   0.00000  Uiso   1.00
O442   O     0.24172   0.16667   0.54873   0.00000  Uiso   1.00
C443   C     0.06793   0.16651   0.48792   0.00000  Uiso   1.00
C444   C     0.26540   0.16683   0.51208   0.00000  Uiso   1.00
Cu445  Cu    0.16667   0.16667   0.54689   0.00000  Uiso   1.00
Cu446  Cu    0.16667   0.16666   0.45311   0.00000  Uiso   1.00
N447   N     0.16668   0.16668   0.61736   0.00000  Uiso   1.00
N448   N     0.16665   0.16666   0.38264   0.00000  Uiso   1.00
C449   C     0.01265   0.16648   0.48127   0.00000  Uiso   1.00
C450   C     0.32068   0.16685   0.51873   0.00000  Uiso   1.00
H451   H     0.32603   0.16625   0.44533   0.00000  Uiso   1.00
H452   H     0.00730   0.16708   0.55467   0.00000  Uiso   1.00
C453   C     0.12460   0.02139   0.47419   0.00000  Uiso   1.00
C454   C     0.20873   0.31195   0.52581   0.00000  Uiso   1.00
C455   C     0.12516   0.31143   0.47455   0.00000  Uiso   1.00
C456   C     0.20817   0.02191   0.52545   0.00000  Uiso   1.00
C457   C     0.16677   0.29049   0.50057   0.00000  Uiso   1.00
C458   C     0.16656   0.04284   0.49943   0.00000  Uiso   1.00
C459   C     0.13186   0.14349   0.35360   0.00000  Uiso   1.00
C460   C     0.20147   0.18985   0.64640   0.00000  Uiso   1.00
H461   H     0.10398   0.12489   0.36860   0.00000  Uiso   1.00
H462   H     0.22936   0.20844   0.63140   0.00000  Uiso   1.00
C463   C     0.13189   0.14348   0.63737   0.00000  Uiso   1.00
C464   C     0.20145   0.18985   0.36263   0.00000  Uiso   1.00
H465   H     0.10405   0.12484   0.61512   0.00000  Uiso   1.00
H466   H     0.22928   0.20850   0.38488   0.00000  Uiso   1.00
C467   C     0.07856   0.04491   0.44943   0.00000  Uiso   1.00
H468   H     0.06478   0.06765   0.47414   0.00000  Uiso   1.00
H469   H     0.08972   0.06147   0.41853   0.00000  Uiso   1.00
H470   H     0.04524   0.02480   0.43687   0.00000  Uiso   1.00
C471   C     0.25478   0.28842   0.55056   0.00000  Uiso   1.00
H472   H     0.26855   0.26568   0.52585   0.00000  Uiso   1.00
H473   H     0.28811   0.30853   0.56311   0.00000  Uiso   1.00
H474   H     0.24362   0.27186   0.58147   0.00000  Uiso   1.00
N475   N     0.08341   0.28846   0.44893   0.00000  Uiso   1.00
O476   O     0.05453   0.26514   0.47136   0.00000  Uiso   1.00
O477   O     0.07523   0.28989   0.40306   0.00000  Uiso   1.00
N478   N     0.24994   0.04487   0.55105   0.00000  Uiso   1.00
O479   O     0.27879   0.06821   0.52863   0.00000  Uiso   1.00
O480   O     0.25813   0.04344   0.59693   0.00000  Uiso   1.00
O481   O     0.50000   0.10655   0.53958   0.00000  Uiso   1.00
O482   O     0.50000   0.22678   0.46042   0.00000  Uiso   1.00
O483   O     0.50000   0.10654   0.46039   0.00000  Uiso   1.00
O484   O     0.50000   0.22679   0.53961   0.00000  Uiso   1.00
C485   C     0.49988   0.08751   0.49983   0.00000  Uiso   1.00
C486   C     0.50012   0.24582   0.50017   0.00000  Uiso   1.00
O487   O     0.42495   0.16667   0.53046   0.00000  Uiso   1.00
O488   O     0.57505   0.16666   0.46954   0.00000  Uiso   1.00
O489   O     0.42494   0.16666   0.45127   0.00000  Uiso   1.00
O490   O     0.57506   0.16667   0.54873   0.00000  Uiso   1.00
C491   C     0.40127   0.16651   0.48792   0.00000  Uiso   1.00
C492   C     0.59873   0.16683   0.51208   0.00000  Uiso   1.00
Cu493  Cu    0.50000   0.16667   0.54689   0.00000  Uiso   1.00
Cu494  Cu    0.50000   0.16666   0.45311   0.00000  Uiso   1.00
N495   N     0.50001   0.16668   0.61736   0.00000  Uiso   1.00
N496   N     0.49999   0.16666   0.38264   0.00000  Uiso   1.00
C497   C     0.34598   0.16648   0.48127   0.00000  Uiso   1.00
C498   C     0.65402   0.16685   0.51873   0.00000  Uiso   1.00
H499   H     0.65936   0.16625   0.44533   0.00000  Uiso   1.00
H500   H     0.34064   0.16708   0.55467   0.00000  Uiso   1.00
C501   C     0.45794   0.02139   0.47419   0.00000  Uiso   1.00
C502   C     0.54206   0.31195   0.52581   0.00000  Uiso   1.00
C503   C     0.45850   0.31143   0.47455   0.00000  Uiso   1.00
C504   C     0.54151   0.02191   0.52545   0.00000  Uiso   1.00
C505   C     0.50010   0.29049   0.50057   0.00000  Uiso   1.00
C506   C     0.49990   0.04284   0.49943   0.00000  Uiso   1.00
C507   C     0.46520   0.14349   0.35360   0.00000  Uiso   1.00
C508   C     0.53480   0.18985   0.64640   0.00000  Uiso   1.00
H509   H     0.43731   0.12489   0.36860   0.00000  Uiso   1.00
H510   H     0.56269   0.20844   0.63140   0.00000  Uiso   1.00
C511   C     0.46522   0.14348   0.63737   0.00000  Uiso   1.00
C512   C     0.53478   0.18985   0.36263   0.00000  Uiso   1.00
H513   H     0.43738   0.12484   0.61512   0.00000  Uiso   1.00
H514   H     0.56262   0.20850   0.38488   0.00000  Uiso   1.00
C515   C     0.41189   0.04491   0.44943   0.00000  Uiso   1.00
H516   H     0.39812   0.06765   0.47414   0.00000  Uiso   1.00
H517   H     0.42306   0.06147   0.41853   0.00000  Uiso   1.00
H518   H     0.37857   0.02480   0.43687   0.00000  Uiso   1.00
C519   C     0.58811   0.28842   0.55056   0.00000  Uiso   1.00
H520   H     0.60188   0.26568   0.52585   0.00000  Uiso   1.00
H521   H     0.62144   0.30853   0.56311   0.00000  Uiso   1.00
H522   H     0.57695   0.27186   0.58147   0.00000  Uiso   1.00
N523   N     0.41674   0.28846   0.44893   0.00000  Uiso   1.00
O524   O     0.38786   0.26514   0.47136   0.00000  Uiso   1.00
O525   O     0.40857   0.28989   0.40306   0.00000  Uiso   1.00
N526   N     0.58327   0.04487   0.55105   0.00000  Uiso   1.00
O527   O     0.61212   0.06821   0.52863   0.00000  Uiso   1.00
O528   O     0.59147   0.04344   0.59693   0.00000  Uiso   1.00
O529   O     0.83333   0.10655   0.53958   0.00000  Uiso   1.00
O530   O     0.83334   0.22678   0.46042   0.00000  Uiso   1.00
O531   O     0.83333   0.10654   0.46039   0.00000  Uiso   1.00
O532   O     0.83334   0.22679   0.53961   0.00000  Uiso   1.00
C533   C     0.83322   0.08751   0.49983   0.00000  Uiso   1.00
C534   C     0.83345   0.24582   0.50017   0.00000  Uiso   1.00
O535   O     0.75828   0.16667   0.53046   0.00000  Uiso   1.00
O536   O     0.90839   0.16666   0.46954   0.00000  Uiso   1.00
O537   O     0.75828   0.16666   0.45127   0.00000  Uiso   1.00
O538   O     0.90839   0.16667   0.54873   0.00000  Uiso   1.00
C539   C     0.73460   0.16651   0.48792   0.00000  Uiso   1.00
C540   C     0.93207   0.16683   0.51208   0.00000  Uiso   1.00
Cu541  Cu    0.83333   0.16667   0.54689   0.00000  Uiso   1.00
Cu542  Cu    0.83333   0.16666   0.45311   0.00000  Uiso   1.00
N543   N     0.83335   0.16668   0.61736   0.00000  Uiso   1.00
N544   N     0.83332   0.16666   0.38264   0.00000  Uiso   1.00
C545   C     0.67932   0.16648   0.48127   0.00000  Uiso   1.00
C546   C     0.98735   0.16685   0.51873   0.00000  Uiso   1.00
H547   H     0.99270   0.16625   0.44533   0.00000  Uiso   1.00
H548   H     0.67397   0.16708   0.55467   0.00000  Uiso   1.00
C549   C     0.79127   0.02139   0.47419   0.00000  Uiso   1.00
C550   C     0.87540   0.31195   0.52581   0.00000  Uiso   1.00
C551   C     0.79183   0.31143   0.47455   0.00000  Uiso   1.00
C552   C     0.87484   0.02191   0.52545   0.00000  Uiso   1.00
C553   C     0.83344   0.29049   0.50057   0.00000  Uiso   1.00
C554   C     0.83323   0.04284   0.49943   0.00000  Uiso   1.00
C555   C     0.79853   0.14349   0.35360   0.00000  Uiso   1.00
C556   C     0.86814   0.18985   0.64640   0.00000  Uiso   1.00
H557   H     0.77064   0.12489   0.36860   0.00000  Uiso   1.00
H558   H     0.89602   0.20844   0.63140   0.00000  Uiso   1.00
C559   C     0.79855   0.14348   0.63737   0.00000  Uiso   1.00
C560   C     0.86811   0.18985   0.36263   0.00000  Uiso   1.00
H561   H     0.77072   0.12484   0.61512   0.00000  Uiso   1.00
H562   H     0.89595   0.20850   0.38488   0.00000  Uiso   1.00
C563   C     0.74522   0.04491   0.44943   0.00000  Uiso   1.00
H564   H     0.73145   0.06765   0.47414   0.00000  Uiso   1.00
H565   H     0.75639   0.06147   0.41853   0.00000  Uiso   1.00
H566   H     0.71190   0.02480   0.43687   0.00000  Uiso   1.00
C567   C     0.92145   0.28842   0.55056   0.00000  Uiso   1.00
H568   H     0.93521   0.26568   0.52585   0.00000  Uiso   1.00
H569   H     0.95477   0.30853   0.56311   0.00000  Uiso   1.00
H570   H     0.91028   0.27186   0.58147   0.00000  Uiso   1.00
N571   N     0.75007   0.28846   0.44893   0.00000  Uiso   1.00
O572   O     0.72120   0.26514   0.47136   0.00000  Uiso   1.00
O573   O     0.74190   0.28989   0.40306   0.00000  Uiso   1.00
N574   N     0.91660   0.04487   0.55105   0.00000  Uiso   1.00
O575   O     0.94546   0.06821   0.52863   0.00000  Uiso   1.00
O576   O     0.92480   0.04344   0.59693   0.00000  Uiso   1.00
O577   O     0.16666   0.43989   0.53958   0.00000  Uiso   1.00
O578   O     0.16667   0.56011   0.46042   0.00000  Uiso   1.00
O579   O     0.16666   0.43988   0.46039   0.00000  Uiso   1.00
O580   O     0.16667   0.56012   0.53961   0.00000  Uiso   1.00
C581   C     0.16655   0.42085   0.49983   0.00000  Uiso   1.00
C582   C     0.16678   0.57915   0.50017   0.00000  Uiso   1.00
O583   O     0.09161   0.50000   0.53046   0.00000  Uiso   1.00
O584   O     0.24172   0.50000   0.46954   0.00000  Uiso   1.00
O585   O     0.09161   0.49999   0.45127   0.00000  Uiso   1.00
O586   O     0.24172   0.50001   0.54873   0.00000  Uiso   1.00
C587   C     0.06793   0.49984   0.48792   0.00000  Uiso   1.00
C588   C     0.26540   0.50016   0.51208   0.00000  Uiso   1.00
Cu589  Cu    0.16667   0.50001   0.54689   0.00000  Uiso   1.00
Cu590  Cu    0.16667   0.49999   0.45311   0.00000  Uiso   1.00
N591   N     0.16668   0.50001   0.61736   0.00000  Uiso   1.00
N592   N     0.16665   0.49999   0.38264   0.00000  Uiso   1.00
C593   C     0.01265   0.49982   0.48127   0.00000  Uiso   1.00
C594   C     0.32068   0.50018   0.51873   0.00000  Uiso   1.00
H595   H     0.32603   0.49959   0.44533   0.00000  Uiso   1.00
H596   H     0.00730   0.50041   0.55467   0.00000  Uiso   1.00
C597   C     0.12460   0.35472   0.47419   0.00000  Uiso   1.00
C598   C     0.20873   0.64528   0.52581   0.00000  Uiso   1.00
C599   C     0.12516   0.64476   0.47455   0.00000  Uiso   1.00
C600   C     0.20817   0.35524   0.52545   0.00000  Uiso   1.00
C601   C     0.16677   0.62382   0.50057   0.00000  Uiso   1.00
C602   C     0.16656   0.37617   0.49943   0.00000  Uiso   1.00
C603   C     0.13186   0.47682   0.35360   0.00000  Uiso   1.00
C604   C     0.20147   0.52318   0.64640   0.00000  Uiso   1.00
H605   H     0.10398   0.45823   0.36860   0.00000  Uiso   1.00
H606   H     0.22936   0.54178   0.63140   0.00000  Uiso   1.00
C607   C     0.13189   0.47682   0.63737   0.00000  Uiso   1.00
C608   C     0.20145   0.52318   0.36263   0.00000  Uiso   1.00
H609   H     0.10405   0.45817   0.61512   0.00000  Uiso   1.00
H610   H     0.22928   0.54183   0.38488   0.00000  Uiso   1.00
C611   C     0.07856   0.37824   0.44943   0.00000  Uiso   1.00
H612   H     0.06478   0.40098   0.47414   0.00000  Uiso   1.00
H613   H     0.08972   0.39481   0.41853   0.00000  Uiso   1.00
H614   H     0.04524   0.35813   0.43687   0.00000  Uiso   1.00
C615   C     0.25478   0.62175   0.55056   0.00000  Uiso   1.00
H616   H     0.26855   0.59902   0.52585   0.00000  Uiso   1.00
H617   H     0.28811   0.64186   0.56311   0.00000  Uiso   1.00
H618   H     0.24362   0.60520   0.58147   0.00000  Uiso   1.00
N619   N     0.08341   0.62180   0.44893   0.00000  Uiso   1.00
O620   O     0.05453   0.59847   0.47136   0.00000  Uiso   1.00
O621   O     0.07523   0.62322   0.40306   0.00000  Uiso   1.00
N622   N     0.24994   0.37820   0.55105   0.00000  Uiso   1.00
O623   O     0.27879   0.40154   0.52863   0.00000  Uiso   1.00
O624   O     0.25813   0.37677   0.59693   0.00000  Uiso   1.00
O625   O     0.50000   0.43989   0.53958   0.00000  Uiso   1.00
O626   O     0.50000   0.56011   0.46042   0.00000  Uiso   1.00
O627   O     0.50000   0.43988   0.46039   0.00000  Uiso   1.00
O628   O     0.50000   0.56012   0.53961   0.00000  Uiso   1.00
C629   C     0.49988   0.42085   0.49983   0.00000  Uiso   1.00
C630   C     0.50012   0.57915   0.50017   0.00000  Uiso   1.00
O631   O     0.42495   0.50000   0.53046   0.00000  Uiso   1.00
O632   O     0.57505   0.50000   0.46954   0.00000  Uiso   1.00
O633   O     0.42494   0.49999   0.45127   0.00000  Uiso   1.00
O634   O     0.57506   0.50001   0.54873   0.00000  Uiso   1.00
C635   C     0.40127   0.49984   0.48792   0.00000  Uiso   1.00
C636   C     0.59873   0.50016   0.51208   0.00000  Uiso   1.00
Cu637  Cu    0.50000   0.50001   0.54689   0.00000  Uiso   1.00
Cu638  Cu    0.50000   0.49999   0.45311   0.00000  Uiso   1.00
N639   N     0.50001   0.50001   0.61736   0.00000  Uiso   1.00
N640   N     0.49999   0.49999   0.38264   0.00000  Uiso   1.00
C641   C     0.34598   0.49982   0.48127   0.00000  Uiso   1.00
C642   C     0.65402   0.50018   0.51873   0.00000  Uiso   1.00
H643   H     0.65936   0.49959   0.44533   0.00000  Uiso   1.00
H644   H     0.34064   0.50041   0.55467   0.00000  Uiso   1.00
C645   C     0.45794   0.35472   0.47419   0.00000  Uiso   1.00
C646   C     0.54206   0.64528   0.52581   0.00000  Uiso   1.00
C647   C     0.45850   0.64476   0.47455   0.00000  Uiso   1.00
C648   C     0.54151   0.35524   0.52545   0.00000  Uiso   1.00
C649   C     0.50010   0.62382   0.50057   0.00000  Uiso   1.00
C650   C     0.49990   0.37617   0.49943   0.00000  Uiso   1.00
C651   C     0.46520   0.47682   0.35360   0.00000  Uiso   1.00
C652   C     0.53480   0.52318   0.64640   0.00000  Uiso   1.00
H653   H     0.43731   0.45823   0.36860   0.00000  Uiso   1.00
H654   H     0.56269   0.54178   0.63140   0.00000  Uiso   1.00
C655   C     0.46522   0.47682   0.63737   0.00000  Uiso   1.00
C656   C     0.53478   0.52318   0.36263   0.00000  Uiso   1.00
H657   H     0.43738   0.45817   0.61512   0.00000  Uiso   1.00
H658   H     0.56262   0.54183   0.38488   0.00000  Uiso   1.00
C659   C     0.41189   0.37824   0.44943   0.00000  Uiso   1.00
H660   H     0.39812   0.40098   0.47414   0.00000  Uiso   1.00
H661   H     0.42306   0.39481   0.41853   0.00000  Uiso   1.00
H662   H     0.37857   0.35813   0.43687   0.00000  Uiso   1.00
C663   C     0.58811   0.62175   0.55056   0.00000  Uiso   1.00
H664   H     0.60188   0.59902   0.52585   0.00000  Uiso   1.00
H665   H     0.62144   0.64186   0.56311   0.00000  Uiso   1.00
H666   H     0.57695   0.60520   0.58147   0.00000  Uiso   1.00
N667   N     0.41674   0.62180   0.44893   0.00000  Uiso   1.00
O668   O     0.38786   0.59847   0.47136   0.00000  Uiso   1.00
O669   O     0.40857   0.62322   0.40306   0.00000  Uiso   1.00
N670   N     0.58327   0.37820   0.55105   0.00000  Uiso   1.00
O671   O     0.61212   0.40154   0.52863   0.00000  Uiso   1.00
O672   O     0.59147   0.37677   0.59693   0.00000  Uiso   1.00
O673   O     0.83333   0.43989   0.53958   0.00000  Uiso   1.00
O674   O     0.83334   0.56011   0.46042   0.00000  Uiso   1.00
O675   O     0.83333   0.43988   0.46039   0.00000  Uiso   1.00
O676   O     0.83334   0.56012   0.53961   0.00000  Uiso   1.00
C677   C     0.83322   0.42085   0.49983   0.00000  Uiso   1.00
C678   C     0.83345   0.57915   0.50017   0.00000  Uiso   1.00
O679   O     0.75828   0.50000   0.53046   0.00000  Uiso   1.00
O680   O     0.90839   0.50000   0.46954   0.00000  Uiso   1.00
O681   O     0.75828   0.49999   0.45127   0.00000  Uiso   1.00
O682   O     0.90839   0.50001   0.54873   0.00000  Uiso   1.00
C683   C     0.73460   0.49984   0.48792   0.00000  Uiso   1.00
C684   C     0.93207   0.50016   0.51208   0.00000  Uiso   1.00
Cu685  Cu    0.83333   0.50001   0.54689   0.00000  Uiso   1.00
Cu686  Cu    0.83333   0.49999   0.45311   0.00000  Uiso   1.00
N687   N     0.83335   0.50001   0.61736   0.00000  Uiso   1.00
N688   N     0.83332   0.49999   0.38264   0.00000  Uiso   1.00
C689   C     0.67932   0.49982   0.48127   0.00000  Uiso   1.00
C690   C     0.98735   0.50018   0.51873   0.00000  Uiso   1.00
H691   H     0.99270   0.49959   0.44533   0.00000  Uiso   1.00
H692   H     0.67397   0.50041   0.55467   0.00000  Uiso   1.00
C693   C     0.79127   0.35472   0.47419   0.00000  Uiso   1.00
C694   C     0.87540   0.64528   0.52581   0.00000  Uiso   1.00
C695   C     0.79183   0.64476   0.47455   0.00000  Uiso   1.00
C696   C     0.87484   0.35524   0.52545   0.00000  Uiso   1.00
C697   C     0.83344   0.62382   0.50057   0.00000  Uiso   1.00
C698   C     0.83323   0.37617   0.49943   0.00000  Uiso   1.00
C699   C     0.79853   0.47682   0.35360   0.00000  Uiso   1.00
C700   C     0.86814   0.52318   0.64640   0.00000  Uiso   1.00
H701   H     0.77064   0.45823   0.36860   0.00000  Uiso   1.00
H702   H     0.89602   0.54178   0.63140   0.00000  Uiso   1.00
C703   C     0.79855   0.47682   0.63737   0.00000  Uiso   1.00
C704   C     0.86811   0.52318   0.36263   0.00000  Uiso   1.00
H705   H     0.77072   0.45817   0.61512   0.00000  Uiso   1.00
H706   H     0.89595   0.54183   0.38488   0.00000  Uiso   1.00
C707   C     0.74522   0.37824   0.44943   0.00000  Uiso   1.00
H708   H     0.73145   0.40098   0.47414   0.00000  Uiso   1.00
H709   H     0.75639   0.39481   0.41853   0.00000  Uiso   1.00
H710   H     0.71190   0.35813   0.43687   0.00000  Uiso   1.00
C711   C     0.92145   0.62175   0.55056   0.00000  Uiso   1.00
H712   H     0.93521   0.59902   0.52585   0.00000  Uiso   1.00
H713   H     0.95477   0.64186   0.56311   0.00000  Uiso   1.00
H714   H     0.91028   0.60520   0.58147   0.00000  Uiso   1.00
N715   N     0.75007   0.62180   0.44893   0.00000  Uiso   1.00
O716   O     0.72120   0.59847   0.47136   0.00000  Uiso   1.00
O717   O     0.74190   0.62322   0.40306   0.00000  Uiso   1.00
N718   N     0.91660   0.37820   0.55105   0.00000  Uiso   1.00
O719   O     0.94546   0.40154   0.52863   0.00000  Uiso   1.00
O720   O     0.92480   0.37677   0.59693   0.00000  Uiso   1.00
O721   O     0.16666   0.77322   0.53958   0.00000  Uiso   1.00
O722   O     0.16667   0.89345   0.46042   0.00000  Uiso   1.00
O723   O     0.16666   0.77321   0.46039   0.00000  Uiso   1.00
O724   O     0.16667   0.89346   0.53961   0.00000  Uiso   1.00
C725   C     0.16655   0.75418   0.49983   0.00000  Uiso   1.00
C726   C     0.16678   0.91249   0.50017   0.00000  Uiso   1.00
O727   O     0.09161   0.83334   0.53046   0.00000  Uiso   1.00
O728   O     0.24172   0.83333   0.46954   0.00000  Uiso   1.00
O729   O     0.09161   0.83333   0.45127   0.00000  Uiso   1.00
O730   O     0.24172   0.83334   0.54873   0.00000  Uiso   1.00
C731   C     0.06793   0.83317   0.48792   0.00000  Uiso   1.00
C732   C     0.26540   0.83349   0.51208   0.00000  Uiso   1.00
Cu733  Cu    0.16667   0.83334   0.54689   0.00000  Uiso   1.00
Cu734  Cu    0.16667   0.83333   0.45311   0.00000  Uiso   1.00
N735   N     0.16668   0.83334   0.61736   0.00000  Uiso   1.00
N736   N     0.16665   0.83332   0.38264   0.00000  Uiso   1.00
C737   C     0.01265   0.83315   0.48127   0.00000  Uiso   1.00
C738   C     0.32068   0.83352   0.51873   0.00000  Uiso   1.00
H739   H     0.32603   0.83292   0.44533   0.00000  Uiso   1.00
H740   H     0.00730   0.83375   0.55467   0.00000  Uiso   1.00
C741   C     0.12460   0.68805   0.47419   0.00000  Uiso   1.00
C742   C     0.20873   0.97861   0.52581   0.00000  Uiso   1.00
C743   C     0.12516   0.97809   0.47455   0.00000  Uiso   1.00
C744   C     0.20817   0.68857   0.52545   0.00000  Uiso   1.00
C745   C     0.16677   0.95716   0.50057   0.00000  Uiso   1.00
C746   C     0.16656   0.70951   0.49943   0.00000  Uiso   1.00
C747   C     0.13186   0.81015   0.35360   0.00000  Uiso   1.00
C748   C     0.20147   0.85651   0.64640   0.00000  Uiso   1.00
H749   H     0.10398   0.79156   0.36860   0.00000  Uiso   1.00
H750   H     0.22936   0.87511   0.63140   0.00000  Uiso   1.00
C751   C     0.13189   0.81015   0.63737   0.00000  Uiso   1.00
C752   C     0.20145   0.85652   0.36263   0.00000  Uiso   1.00
H753   H     0.10405   0.79150   0.61512   0.00000  Uiso   1.00
H754   H     0.22928   0.87516   0.38488   0.00000  Uiso   1.00
C755   C     0.07856   0.71158   0.44943   0.00000  Uiso   1.00
H756   H     0.06478   0.73431   0.47414   0.00000  Uiso   1.00
H757   H     0.08972   0.72814   0.41853   0.00000  Uiso   1.00
H758   H     0.04524   0.69147   0.43687   0.00000  Uiso   1.00
C759   C     0.25478   0.95509   0.55056   0.00000  Uiso   1.00
H760   H     0.26855   0.93235   0.52585   0.00000  Uiso   1.00
H761   H     0.28811   0.97520   0.56311   0.00000  Uiso   1.00
H762   H     0.24362   0.93853   0.58147   0.00000  Uiso   1.00
N763   N     0.08341   0.95513   0.44893   0.00000  Uiso   1.00
O764   O     0.05453   0.93180   0.47136   0.00000  Uiso   1.00
O765   O     0.07523   0.95655   0.40306   0.00000  Uiso   1.00
N766   N     0.24994   0.71154   0.55105   0.00000  Uiso   1.00
O767   O     0.27879   0.73487   0.52863   0.00000  Uiso   1.00
O768   O     0.25813   0.71010   0.59693   0.00000  Uiso   1.00
O769   O     0.50000   0.77322   0.53958   0.00000  Uiso   1.00
O770   O     0.50000   0.89345   0.46042   0.00000  Uiso   1.00
O771   O     0.50000   0.77321   0.46039   0.00000  Uiso   1.00
O772   O     0.50000   0.89346   0.53961   0.00000  Uiso   1.00
C773   C     0.49988   0.75418   0.49983   0.00000  Uiso   1.00
C774   C     0.50012   0.91249   0.50017   0.00000  Uiso   1.00
O775   O     0.42495   0.83334   0.53046   0.00000  Uiso   1.00
O776   O     0.57505   0.83333   0.46954   0.00000  Uiso   1.00
O777   O     0.42494   0.83333   0.45127   0.00000  Uiso   1.00
O778   O     0.57506   0.83334   0.54873   0.00000  Uiso   1.00
C779   C     0.40127   0.83317   0.48792   0.00000  Uiso   1.00
C780   C     0.59873   0.83349   0.51208   0.00000  Uiso   1.00
Cu781  Cu    0.50000   0.83334   0.54689   0.00000  Uiso   1.00
Cu782  Cu    0.50000   0.83333   0.45311   0.00000  Uiso   1.00
N783   N     0.50001   0.83334   0.61736   0.00000  Uiso   1.00
N784   N     0.49999   0.83332   0.38264   0.00000  Uiso   1.00
C785   C     0.34598   0.83315   0.48127   0.00000  Uiso   1.00
C786   C     0.65402   0.83352   0.51873   0.00000  Uiso   1.00
H787   H     0.65936   0.83292   0.44533   0.00000  Uiso   1.00
H788   H     0.34064   0.83375   0.55467   0.00000  Uiso   1.00
C789   C     0.45794   0.68805   0.47419   0.00000  Uiso   1.00
C790   C     0.54206   0.97861   0.52581   0.00000  Uiso   1.00
C791   C     0.45850   0.97809   0.47455   0.00000  Uiso   1.00
C792   C     0.54151   0.68857   0.52545   0.00000  Uiso   1.00
C793   C     0.50010   0.95716   0.50057   0.00000  Uiso   1.00
C794   C     0.49990   0.70951   0.49943   0.00000  Uiso   1.00
C795   C     0.46520   0.81015   0.35360   0.00000  Uiso   1.00
C796   C     0.53480   0.85651   0.64640   0.00000  Uiso   1.00
H797   H     0.43731   0.79156   0.36860   0.00000  Uiso   1.00
H798   H     0.56269   0.87511   0.63140   0.00000  Uiso   1.00
C799   C     0.46522   0.81015   0.63737   0.00000  Uiso   1.00
C800   C     0.53478   0.85652   0.36263   0.00000  Uiso   1.00
H801   H     0.43738   0.79150   0.61512   0.00000  Uiso   1.00
H802   H     0.56262   0.87516   0.38488   0.00000  Uiso   1.00
C803   C     0.41189   0.71158   0.44943   0.00000  Uiso   1.00
H804   H     0.39812   0.73431   0.47414   0.00000  Uiso   1.00
H805   H     0.42306   0.72814   0.41853   0.00000  Uiso   1.00
H806   H     0.37857   0.69147   0.43687   0.00000  Uiso   1.00
C807   C     0.58811   0.95509   0.55056   0.00000  Uiso   1.00
H808   H     0.60188   0.93235   0.52585   0.00000  Uiso   1.00
H809   H     0.62144   0.97520   0.56311   0.00000  Uiso   1.00
H810   H     0.57695   0.93853   0.58147   0.00000  Uiso   1.00
N811   N     0.41674   0.95513   0.44893   0.00000  Uiso   1.00
O812   O     0.38786   0.93180   0.47136   0.00000  Uiso   1.00
O813   O     0.40857   0.95655   0.40306   0.00000  Uiso   1.00
N814   N     0.58327   0.71154   0.55105   0.00000  Uiso   1.00
O815   O     0.61212   0.73487   0.52863   0.00000  Uiso   1.00
O816   O     0.59147   0.71010   0.59693   0.00000  Uiso   1.00
O817   O     0.83333   0.77322   0.53958   0.00000  Uiso   1.00
O818   O     0.83334   0.89345   0.46042   0.00000  Uiso   1.00
O819   O     0.83333   0.77321   0.46039   0.00000  Uiso   1.00
O820   O     0.83334   0.89346   0.53961   0.00000  Uiso   1.00
C821   C     0.83322   0.75418   0.49983   0.00000  Uiso   1.00
C822   C     0.83345   0.91249   0.50017   0.00000  Uiso   1.00
O823   O     0.75828   0.83334   0.53046   0.00000  Uiso   1.00
O824   O     0.90839   0.83333   0.46954   0.00000  Uiso   1.00
O825   O     0.75828   0.83333   0.45127   0.00000  Uiso   1.00
O826   O     0.90839   0.83334   0.54873   0.00000  Uiso   1.00
C827   C     0.73460   0.83317   0.48792   0.00000  Uiso   1.00
C828   C     0.93207   0.83349   0.51208   0.00000  Uiso   1.00
Cu829  Cu    0.83333   0.83334   0.54689   0.00000  Uiso   1.00
Cu830  Cu    0.83333   0.83333   0.45311   0.00000  Uiso   1.00
N831   N     0.83335   0.83334   0.61736   0.00000  Uiso   1.00
N832   N     0.83332   0.83332   0.38264   0.00000  Uiso   1.00
C833   C     0.67932   0.83315   0.48127   0.00000  Uiso   1.00
C834   C     0.98735   0.83352   0.51873   0.00000  Uiso   1.00
H835   H     0.99270   0.83292   0.44533   0.00000  Uiso   1.00
H836   H     0.67397   0.83375   0.55467   0.00000  Uiso   1.00
C837   C     0.79127   0.68805   0.47419   0.00000  Uiso   1.00
C838   C     0.87540   0.97861   0.52581   0.00000  Uiso   1.00
C839   C     0.79183   0.97809   0.47455   0.00000  Uiso   1.00
C840   C     0.87484   0.68857   0.52545   0.00000  Uiso   1.00
C841   C     0.83344   0.95716   0.50057   0.00000  Uiso   1.00
C842   C     0.83323   0.70951   0.49943   0.00000  Uiso   1.00
C843   C     0.79853   0.81015   0.35360   0.00000  Uiso   1.00
C844   C     0.86814   0.85651   0.64640   0.00000  Uiso   1.00
H845   H     0.77064   0.79156   0.36860   0.00000  Uiso   1.00
H846   H     0.89602   0.87511   0.63140   0.00000  Uiso   1.00
C847   C     0.79855   0.81015   0.63737   0.00000  Uiso   1.00
C848   C     0.86811   0.85652   0.36263   0.00000  Uiso   1.00
H849   H     0.77072   0.79150   0.61512   0.00000  Uiso   1.00
H850   H     0.89595   0.87516   0.38488   0.00000  Uiso   1.00
C851   C     0.74522   0.71158   0.44943   0.00000  Uiso   1.00
H852   H     0.73145   0.73431   0.47414   0.00000  Uiso   1.00
H853   H     0.75639   0.72814   0.41853   0.00000  Uiso   1.00
H854   H     0.71190   0.69147   0.43687   0.00000  Uiso   1.00
C855   C     0.92145   0.95509   0.55056   0.00000  Uiso   1.00
H856   H     0.93521   0.93235   0.52585   0.00000  Uiso   1.00
H857   H     0.95477   0.97520   0.56311   0.00000  Uiso   1.00
H858   H     0.91028   0.93853   0.58147   0.00000  Uiso   1.00
N859   N     0.75007   0.95513   0.44893   0.00000  Uiso   1.00
O860   O     0.72120   0.93180   0.47136   0.00000  Uiso   1.00
O861   O     0.74190   0.95655   0.40306   0.00000  Uiso   1.00
N862   N     0.91660   0.71154   0.55105   0.00000  Uiso   1.00
O863   O     0.94546   0.73487   0.52863   0.00000  Uiso   1.00
O864   O     0.92480   0.71010   0.59693   0.00000  Uiso   1.00
O865   O     0.16666   0.10655   0.87291   0.00000  Uiso   1.00
O866   O     0.16667   0.22678   0.79375   0.00000  Uiso   1.00
O867   O     0.16666   0.10654   0.79372   0.00000  Uiso   1.00
O868   O     0.16667   0.22679   0.87294   0.00000  Uiso   1.00
C869   C     0.16655   0.08751   0.83317   0.00000  Uiso   1.00
C870   C     0.16678   0.24582   0.83350   0.00000  Uiso   1.00
O871   O     0.09161   0.16667   0.86379   0.00000  Uiso   1.00
O872   O     0.24172   0.16666   0.80288   0.00000  Uiso   1.00
O873   O     0.09161   0.16666   0.78460   0.00000  Uiso   1.00
O874   O     0.24172   0.16667   0.88207   0.00000  Uiso   1.00
C875   C     0.06793   0.16651   0.82126   0.00000  Uiso   1.00
C876   C     0.26540   0.16683   0.84541   0.00000  Uiso   1.00
Cu877  Cu    0.16667   0.16667   0.88022   0.00000  Uiso   1.00
Cu878  Cu    0.16667   0.16666   0.78645   0.00000  Uiso   1.00
N879   N     0.16668   0.16668   0.95069   0.00000  Uiso   1.00
N880   N     0.16665   0.16666   0.71597   0.00000  Uiso   1.00
C881   C     0.01265   0.16648   0.81460   0.00000  Uiso   1.00
C882   C     0.32068   0.16685   0.85206   0.00000  Uiso   1.00
H883   H     0.32603   0.16625   0.77866   0.00000  Uiso   1.00
H884   H     0.00730   0.16708   0.88800   0.00000  Uiso   1.00
C885   C     0.12460   0.02139   0.80752   0.00000  Uiso   1.00
C886   C     0.20873   0.31195   0.85914   0.00000  Uiso   1.00
C887   C     0.12516   0.31143   0.80788   0.00000  Uiso   1.00
C888   C     0.20817   0.02191   0.85878   0.00000  Uiso   1.00
C889   C     0.16677   0.29049   0.83391   0.00000  Uiso   1.00
C890   C     0.16656   0.04284   0.83276   0.00000  Uiso   1.00
C891   C     0.13186   0.14349   0.68693   0.00000  Uiso   1.00
C892   C     0.20147   0.18985   0.97974   0.00000  Uiso   1.00
H893   H     0.10398   0.12489   0.70193   0.00000  Uiso   1.00
H894   H     0.22936   0.20844   0.96474   0.00000  Uiso   1.00
C895   C     0.13189   0.14348   0.97070   0.00000  Uiso   1.00
C896   C     0.20145   0.18985   0.69597   0.00000  Uiso   1.00
H897   H     0.10405   0.12484   0.94845   0.00000  Uiso   1.00
H898   H     0.22928   0.20850   0.71821   0.00000  Uiso   1.00
C899   C     0.07856   0.04491   0.78277   0.00000  Uiso   1.00
H900   H     0.06478   0.06765   0.80747   0.00000  Uiso   1.00
H901   H     0.08972   0.06147   0.75186   0.00000  Uiso   1.00
H902   H     0.04524   0.02480   0.77021   0.00000  Uiso   1.00
C903   C     0.25478   0.28842   0.88389   0.00000  Uiso   1.00
H904   H     0.26855   0.26568   0.85919   0.00000  Uiso   1.00
H905   H     0.28811   0.30853   0.89644   0.00000  Uiso   1.00
H906   H     0.24362   0.27186   0.91480   0.00000  Uiso   1.00
N907   N     0.08341   0.28846   0.78227   0.00000  Uiso   1.00
O908   O     0.05453   0.26514   0.80469   0.00000  Uiso   1.00
O909   O     0.07523   0.28989   0.73639   0.00000  Uiso   1.00
N910   N     0.24994   0.04487   0.88439   0.00000  Uiso   1.00
O911   O     0.27879   0.06821   0.86196   0.00000  Uiso   1.00
O912   O     0.25813   0.04344   0.93026   0.00000  Uiso   1.00
O913   O     0.50000   0.10655   0.87291   0.00000  Uiso   1.00
O914   O     0.50000   0.22678   0.79375   0.00000  Uiso   1.00
O915   O     0.50000   0.10654   0.79372   0.00000  Uiso   1.00
O916   O     0.50000   0.22679   0.87294   0.00000  Uiso   1.00
C917   C     0.49988   0.08751   0.83317   0.00000  Uiso   1.00
C918   C     0.50012   0.24582   0.83350   0.00000  Uiso   1.00
O919   O     0.42495   0.16667   0.86379   0.00000  Uiso   1.00
O920   O     0.57505   0.16666   0.80288   0.00000  Uiso   1.00
O921   O     0.42494   0.16666   0.78460   0.00000  Uiso   1.00
O922   O     0.57506   0.16667   0.88207   0.00000  Uiso   1.00
C923   C     0.40127   0.16651   0.82126   0.00000  Uiso   1.00
C924   C     0.59873   0.16683   0.84541   0.00000  Uiso   1.00
Cu925  Cu    0.50000   0.16667   0.88022   0.00000  Uiso   1.00
Cu926  Cu    0.50000   0.16666   0.78645   0.00000  Uiso   1.00
N927   N     0.50001   0.16668   0.95069   0.00000  Uiso   1.00
N928   N     0.49999   0.16666   0.71597   0.00000  Uiso   1.00
C929   C     0.34598   0.16648   0.81460   0.00000  Uiso   1.00
C930   C     0.65402   0.16685   0.85206   0.00000  Uiso   1.00
H931   H     0.65936   0.16625   0.77866   0.00000  Uiso   1.00
H932   H     0.34064   0.16708   0.88800   0.00000  Uiso   1.00
C933   C     0.45794   0.02139   0.80752   0.00000  Uiso   1.00
C934   C     0.54206   0.31195   0.85914   0.00000  Uiso   1.00
C935   C     0.45850   0.31143   0.80788   0.00000  Uiso   1.00
C936   C     0.54151   0.02191   0.85878   0.00000  Uiso   1.00
C937   C     0.50010   0.29049   0.83391   0.00000  Uiso   1.00
C938   C     0.49990   0.04284   0.83276   0.00000  Uiso   1.00
C939   C     0.46520   0.14349   0.68693   0.00000  Uiso   1.00
C940   C     0.53480   0.18985   0.97974   0.00000  Uiso   1.00
H941   H     0.43731   0.12489   0.70193   0.00000  Uiso   1.00
H942   H     0.56269   0.20844   0.96474   0.00000  Uiso   1.00
C943   C     0.46522   0.14348   0.97070   0.00000  Uiso   1.00
C944   C     0.53478   0.18985   0.69597   0.00000  Uiso   1.00
H945   H     0.43738   0.12484   0.94845   0.00000  Uiso   1.00
H946   H     0.56262   0.20850   0.71821   0.00000  Uiso   1.00
C947   C     0.41189   0.04491   0.78277   0.00000  Uiso   1.00
H948   H     0.39812   0.06765   0.80747   0.00000  Uiso   1.00
H949   H     0.42306   0.06147   0.75186   0.00000  Uiso   1.00
H950   H     0.37857   0.02480   0.77021   0.00000  Uiso   1.00
C951   C     0.58811   0.28842   0.88389   0.00000  Uiso   1.00
H952   H     0.60188   0.26568   0.85919   0.00000  Uiso   1.00
H953   H     0.62144   0.30853   0.89644   0.00000  Uiso   1.00
H954   H     0.57695   0.27186   0.91480   0.00000  Uiso   1.00
N955   N     0.41674   0.28846   0.78227   0.00000  Uiso   1.00
O956   O     0.38786   0.26514   0.80469   0.00000  Uiso   1.00
O957   O     0.40857   0.28989   0.73639   0.00000  Uiso   1.00
N958   N     0.58327   0.04487   0.88439   0.00000  Uiso   1.00
O959   O     0.61212   0.06821   0.86196   0.00000  Uiso   1.00
O960   O     0.59147   0.04344   0.93026   0.00000  Uiso   1.00
O961   O     0.83333   0.10655   0.87291   0.00000  Uiso   1.00
O962   O     0.83334   0.22678   0.79375   0.00000  Uiso   1.00
O963   O     0.83333   0.10654   0.79372   0.00000  Uiso   1.00
O964   O     0.83334   0.22679   0.87294   0.00000  Uiso   1.00
C965   C     0.83322   0.08751   0.83317   0.00000  Uiso   1.00
C966   C     0.83345   0.24582   0.83350   0.00000  Uiso   1.00
O967   O     0.75828   0.16667   0.86379   0.00000  Uiso   1.00
O968   O     0.90839   0.16666   0.80288   0.00000  Uiso   1.00
O969   O     0.75828   0.16666   0.78460   0.00000  Uiso   1.00
O970   O     0.90839   0.16667   0.88207   0.00000  Uiso   1.00
C971   C     0.73460   0.16651   0.82126   0.00000  Uiso   1.00
C972   C     0.93207   0.16683   0.84541   0.00000  Uiso   1.00
Cu973  Cu    0.83333   0.16667   0.88022   0.00000  Uiso   1.00
Cu974  Cu    0.83333   0.16666   0.78645   0.00000  Uiso   1.00
N975   N     0.83335   0.16668   0.95069   0.00000  Uiso   1.00
N976   N     0.83332   0.16666   0.71597   0.00000  Uiso   1.00
C977   C     0.67932   0.16648   0.81460   0.00000  Uiso   1.00
C978   C     0.98735   0.16685   0.85206   0.00000  Uiso   1.00
H979   H     0.99270   0.16625   0.77866   0.00000  Uiso   1.00
H980   H     0.67397   0.16708   0.88800   0.00000  Uiso   1.00
C981   C     0.79127   0.02139   0.80752   0.00000  Uiso   1.00
C982   C     0.87540   0.31195   0.85914   0.00000  Uiso   1.00
C983   C     0.79183   0.31143   0.80788   0.00000  Uiso   1.00
C984   C     0.87484   0.02191   0.85878   0.00000  Uiso   1.00
C985   C     0.83344   0.29049   0.83391   0.00000  Uiso   1.00
C986   C     0.83323   0.04284   0.83276   0.00000  Uiso   1.00
C987   C     0.79853   0.14349   0.68693   0.00000  Uiso   1.00
C988   C     0.86814   0.18985   0.97974   0.00000  Uiso   1.00
H989   H     0.77064   0.12489   0.70193   0.00000  Uiso   1.00
H990   H     0.89602   0.20844   0.96474   0.00000  Uiso   1.00
C991   C     0.79855   0.14348   0.97070   0.00000  Uiso   1.00
C992   C     0.86811   0.18985   0.69597   0.00000  Uiso   1.00
H993   H     0.77072   0.12484   0.94845   0.00000  Uiso   1.00
H994   H     0.89595   0.20850   0.71821   0.00000  Uiso   1.00
C995   C     0.74522   0.04491   0.78277   0.00000  Uiso   1.00
H996   H     0.73145   0.06765   0.80747   0.00000  Uiso   1.00
H997   H     0.75639   0.06147   0.75186   0.00000  Uiso   1.00
H998   H     0.71190   0.02480   0.77021   0.00000  Uiso   1.00
C999   C     0.92145   0.28842   0.88389   0.00000  Uiso   1.00
H1000  H     0.93521   0.26568   0.85919   0.00000  Uiso   1.00
H1001  H     0.95477   0.30853   0.89644   0.00000  Uiso   1.00
H1002  H     0.91028   0.27186   0.91480   0.00000  Uiso   1.00
N1003  N     0.75007   0.28846   0.78227   0.00000  Uiso   1.00
O1004  O     0.72120   0.26514   0.80469   0.00000  Uiso   1.00
O1005  O     0.74190   0.28989   0.73639   0.00000  Uiso   1.00
N1006  N     0.91660   0.04487   0.88439   0.00000  Uiso   1.00
O1007  O     0.94546   0.06821   0.86196   0.00000  Uiso   1.00
O1008  O     0.92480   0.04344   0.93026   0.00000  Uiso   1.00
O1009  O     0.16666   0.43989   0.87291   0.00000  Uiso   1.00
O1010  O     0.16667   0.56011   0.79375   0.00000  Uiso   1.00
O1011  O     0.16666   0.43988   0.79372   0.00000  Uiso   1.00
O1012  O     0.16667   0.56012   0.87294   0.00000  Uiso   1.00
C1013  C     0.16655   0.42085   0.83317   0.00000  Uiso   1.00
C1014  C     0.16678   0.57915   0.83350   0.00000  Uiso   1.00
O1015  O     0.09161   0.50000   0.86379   0.00000  Uiso   1.00
O1016  O     0.24172   0.50000   0.80288   0.00000  Uiso   1.00
O1017  O     0.09161   0.49999   0.78460   0.00000  Uiso   1.00
O1018  O     0.24172   0.50001   0.88207   0.00000  Uiso   1.00
C1019  C     0.06793   0.49984   0.82126   0.00000  Uiso   1.00
C1020  C     0.26540   0.50016   0.84541   0.00000  Uiso   1.00
Cu1021 Cu    0.16667   0.50001   0.88022   0.00000  Uiso   1.00
Cu1022 Cu    0.16667   0.49999   0.78645   0.00000  Uiso   1.00
N1023  N     0.16668   0.50001   0.95069   0.00000  Uiso   1.00
N1024  N     0.16665   0.49999   0.71597   0.00000  Uiso   1.00
C1025  C     0.01265   0.49982   0.81460   0.00000  Uiso   1.00
C1026  C     0.32068   0.50018   0.85206   0.00000  Uiso   1.00
H1027  H     0.32603   0.49959   0.77866   0.00000  Uiso   1.00
H1028  H     0.00730   0.50041   0.88800   0.00000  Uiso   1.00
C1029  C     0.12460   0.35472   0.80752   0.00000  Uiso   1.00
C1030  C     0.20873   0.64528   0.85914   0.00000  Uiso   1.00
C1031  C     0.12516   0.64476   0.80788   0.00000  Uiso   1.00
C1032  C     0.20817   0.35524   0.85878   0.00000  Uiso   1.00
C1033  C     0.16677   0.62382   0.83391   0.00000  Uiso   1.00
C1034  C     0.16656   0.37617   0.83276   0.00000  Uiso   1.00
C1035  C     0.13186   0.47682   0.68693   0.00000  Uiso   1.00
C1036  C     0.20147   0.52318   0.97974   0.00000  Uiso   1.00
H1037  H     0.10398   0.45823   0.70193   0.00000  Uiso   1.00
H1038  H     0.22936   0.54178   0.96474   0.00000  Uiso   1.00
C1039  C     0.13189   0.47682   0.97070   0.00000  Uiso   1.00
C1040  C     0.20145   0.52318   0.69597   0.00000  Uiso   1.00
H1041  H     0.10405   0.45817   0.94845   0.00000  Uiso   1.00
H1042  H     0.22928   0.54183   0.71821   0.00000  Uiso   1.00
C1043  C     0.07856   0.37824   0.78277   0.00000  Uiso   1.00
H1044  H     0.06478   0.40098   0.80747   0.00000  Uiso   1.00
H1045  H     0.08972   0.39481   0.75186   0.00000  Uiso   1.00
H1046  H     0.04524   0.35813   0.77021   0.00000  Uiso   1.00
C1047  C     0.25478   0.62175   0.88389   0.00000  Uiso   1.00
H1048  H     0.26855   0.59902   0.85919   0.00000  Uiso   1.00
H1049  H     0.28811   0.64186   0.89644   0.00000  Uiso   1.00
H1050  H     0.24362   0.60520   0.91480   0.00000  Uiso   1.00
N1051  N     0.08341   0.62180   0.78227   0.00000  Uiso   1.00
O1052  O     0.05453   0.59847   0.80469   0.00000  Uiso   1.00
O1053  O     0.07523   0.62322   0.73639   0.00000  Uiso   1.00
N1054  N     0.24994   0.37820   0.88439   0.00000  Uiso   1.00
O1055  O     0.27879   0.40154   0.86196   0.00000  Uiso   1.00
O1056  O     0.25813   0.37677   0.93026   0.00000  Uiso   1.00
O1057  O     0.50000   0.43989   0.87291   0.00000  Uiso   1.00
O1058  O     0.50000   0.56011   0.79375   0.00000  Uiso   1.00
O1059  O     0.50000   0.43988   0.79372   0.00000  Uiso   1.00
O1060  O     0.50000   0.56012   0.87294   0.00000  Uiso   1.00
C1061  C     0.49988   0.42085   0.83317   0.00000  Uiso   1.00
C1062  C     0.50012   0.57915   0.83350   0.00000  Uiso   1.00
O1063  O     0.42495   0.50000   0.86379   0.00000  Uiso   1.00
O1064  O     0.57505   0.50000   0.80288   0.00000  Uiso   1.00
O1065  O     0.42494   0.49999   0.78460   0.00000  Uiso   1.00
O1066  O     0.57506   0.50001   0.88207   0.00000  Uiso   1.00
C1067  C     0.40127   0.49984   0.82126   0.00000  Uiso   1.00
C1068  C     0.59873   0.50016   0.84541   0.00000  Uiso   1.00
Cu1069 Cu    0.50000   0.50001   0.88022   0.00000  Uiso   1.00
Cu1070 Cu    0.50000   0.49999   0.78645   0.00000  Uiso   1.00
N1071  N     0.50001   0.50001   0.95069   0.00000  Uiso   1.00
N1072  N     0.49999   0.49999   0.71597   0.00000  Uiso   1.00
C1073  C     0.34598   0.49982   0.81460   0.00000  Uiso   1.00
C1074  C     0.65402   0.50018   0.85206   0.00000  Uiso   1.00
H1075  H     0.65936   0.49959   0.77866   0.00000  Uiso   1.00
H1076  H     0.34064   0.50041   0.88800   0.00000  Uiso   1.00
C1077  C     0.45794   0.35472   0.80752   0.00000  Uiso   1.00
C1078  C     0.54206   0.64528   0.85914   0.00000  Uiso   1.00
C1079  C     0.45850   0.64476   0.80788   0.00000  Uiso   1.00
C1080  C     0.54151   0.35524   0.85878   0.00000  Uiso   1.00
C1081  C     0.50010   0.62382   0.83391   0.00000  Uiso   1.00
C1082  C     0.49990   0.37617   0.83276   0.00000  Uiso   1.00
C1083  C     0.46520   0.47682   0.68693   0.00000  Uiso   1.00
C1084  C     0.53480   0.52318   0.97974   0.00000  Uiso   1.00
H1085  H     0.43731   0.45823   0.70193   0.00000  Uiso   1.00
H1086  H     0.56269   0.54178   0.96474   0.00000  Uiso   1.00
C1087  C     0.46522   0.47682   0.97070   0.00000  Uiso   1.00
C1088  C     0.53478   0.52318   0.69597   0.00000  Uiso   1.00
H1089  H     0.43738   0.45817   0.94845   0.00000  Uiso   1.00
H1090  H     0.56262   0.54183   0.71821   0.00000  Uiso   1.00
C1091  C     0.41189   0.37824   0.78277   0.00000  Uiso   1.00
H1092  H     0.39812   0.40098   0.80747   0.00000  Uiso   1.00
H1093  H     0.42306   0.39481   0.75186   0.00000  Uiso   1.00
H1094  H     0.37857   0.35813   0.77021   0.00000  Uiso   1.00
C1095  C     0.58811   0.62175   0.88389   0.00000  Uiso   1.00
H1096  H     0.60188   0.59902   0.85919   0.00000  Uiso   1.00
H1097  H     0.62144   0.64186   0.89644   0.00000  Uiso   1.00
H1098  H     0.57695   0.60520   0.91480   0.00000  Uiso   1.00
N1099  N     0.41674   0.62180   0.78227   0.00000  Uiso   1.00
O1100  O     0.38786   0.59847   0.80469   0.00000  Uiso   1.00
O1101  O     0.40857   0.62322   0.73639   0.00000  Uiso   1.00
N1102  N     0.58327   0.37820   0.88439   0.00000  Uiso   1.00
O1103  O     0.61212   0.40154   0.86196   0.00000  Uiso   1.00
O1104  O     0.59147   0.37677   0.93026   0.00000  Uiso   1.00
O1105  O     0.83333   0.43989   0.87291   0.00000  Uiso   1.00
O1106  O     0.83334   0.56011   0.79375   0.00000  Uiso   1.00
O1107  O     0.83333   0.43988   0.79372   0.00000  Uiso   1.00
O1108  O     0.83334   0.56012   0.87294   0.00000  Uiso   1.00
C1109  C     0.83322   0.42085   0.83317   0.00000  Uiso   1.00
C1110  C     0.83345   0.57915   0.83350   0.00000  Uiso   1.00
O1111  O     0.75828   0.50000   0.86379   0.00000  Uiso   1.00
O1112  O     0.90839   0.50000   0.80288   0.00000  Uiso   1.00
O1113  O     0.75828   0.49999   0.78460   0.00000  Uiso   1.00
O1114  O     0.90839   0.50001   0.88207   0.00000  Uiso   1.00
C1115  C     0.73460   0.49984   0.82126   0.00000  Uiso   1.00
C1116  C     0.93207   0.50016   0.84541   0.00000  Uiso   1.00
Cu1117 Cu    0.83333   0.50001   0.88022   0.00000  Uiso   1.00
Cu1118 Cu    0.83333   0.49999   0.78645   0.00000  Uiso   1.00
N1119  N     0.83335   0.50001   0.95069   0.00000  Uiso   1.00
N1120  N     0.83332   0.49999   0.71597   0.00000  Uiso   1.00
C1121  C     0.67932   0.49982   0.81460   0.00000  Uiso   1.00
C1122  C     0.98735   0.50018   0.85206   0.00000  Uiso   1.00
H1123  H     0.99270   0.49959   0.77866   0.00000  Uiso   1.00
H1124  H     0.67397   0.50041   0.88800   0.00000  Uiso   1.00
C1125  C     0.79127   0.35472   0.80752   0.00000  Uiso   1.00
C1126  C     0.87540   0.64528   0.85914   0.00000  Uiso   1.00
C1127  C     0.79183   0.64476   0.80788   0.00000  Uiso   1.00
C1128  C     0.87484   0.35524   0.85878   0.00000  Uiso   1.00
C1129  C     0.83344   0.62382   0.83391   0.00000  Uiso   1.00
C1130  C     0.83323   0.37617   0.83276   0.00000  Uiso   1.00
C1131  C     0.79853   0.47682   0.68693   0.00000  Uiso   1.00
C1132  C     0.86814   0.52318   0.97974   0.00000  Uiso   1.00
H1133  H     0.77064   0.45823   0.70193   0.00000  Uiso   1.00
H1134  H     0.89602   0.54178   0.96474   0.00000  Uiso   1.00
C1135  C     0.79855   0.47682   0.97070   0.00000  Uiso   1.00
C1136  C     0.86811   0.52318   0.69597   0.00000  Uiso   1.00
H1137  H     0.77072   0.45817   0.94845   0.00000  Uiso   1.00
H1138  H     0.89595   0.54183   0.71821   0.00000  Uiso   1.00
C1139  C     0.74522   0.37824   0.78277   0.00000  Uiso   1.00
H1140  H     0.73145   0.40098   0.80747   0.00000  Uiso   1.00
H1141  H     0.75639   0.39481   0.75186   0.00000  Uiso   1.00
H1142  H     0.71190   0.35813   0.77021   0.00000  Uiso   1.00
C1143  C     0.92145   0.62175   0.88389   0.00000  Uiso   1.00
H1144  H     0.93521   0.59902   0.85919   0.00000  Uiso   1.00
H1145  H     0.95477   0.64186   0.89644   0.00000  Uiso   1.00
H1146  H     0.91028   0.60520   0.91480   0.00000  Uiso   1.00
N1147  N     0.75007   0.62180   0.78227   0.00000  Uiso   1.00
O1148  O     0.72120   0.59847   0.80469   0.00000  Uiso   1.00
O1149  O     0.74190   0.62322   0.73639   0.00000  Uiso   1.00
N1150  N     0.91660   0.37820   0.88439   0.00000  Uiso   1.00
O1151  O     0.94546   0.40154   0.86196   0.00000  Uiso   1.00
O1152  O     0.92480   0.37677   0.93026   0.00000  Uiso   1.00
O1153  O     0.16666   0.77322   0.87291   0.00000  Uiso   1.00
O1154  O     0.16667   0.89345   0.79375   0.00000  Uiso   1.00
O1155  O     0.16666   0.77321   0.79372   0.00000  Uiso   1.00
O1156  O     0.16667   0.89346   0.87294   0.00000  Uiso   1.00
C1157  C     0.16655   0.75418   0.83317   0.00000  Uiso   1.00
C1158  C     0.16678   0.91249   0.83350   0.00000  Uiso   1.00
O1159  O     0.09161   0.83334   0.86379   0.00000  Uiso   1.00
O1160  O     0.24172   0.83333   0.80288   0.00000  Uiso   1.00
O1161  O     0.09161   0.83333   0.78460   0.00000  Uiso   1.00
O1162  O     0.24172   0.83334   0.88207   0.00000  Uiso   1.00
C1163  C     0.06793   0.83317   0.82126   0.00000  Uiso   1.00
C1164  C     0.26540   0.83349   0.84541   0.00000  Uiso   1.00
Cu1165 Cu    0.16667   0.83334   0.88022   0.00000  Uiso   1.00
Cu1166 Cu    0.16667   0.83333   0.78645   0.00000  Uiso   1.00
N1167  N     0.16668   0.83334   0.95069   0.00000  Uiso   1.00
N1168  N     0.16665   0.83332   0.71597   0.00000  Uiso   1.00
C1169  C     0.01265   0.83315   0.81460   0.00000  Uiso   1.00
C1170  C     0.32068   0.83352   0.85206   0.00000  Uiso   1.00
H1171  H     0.32603   0.83292   0.77866   0.00000  Uiso   1.00
H1172  H     0.00730   0.83375   0.88800   0.00000  Uiso   1.00
C1173  C     0.12460   0.68805   0.80752   0.00000  Uiso   1.00
C1174  C     0.20873   0.97861   0.85914   0.00000  Uiso   1.00
C1175  C     0.12516   0.97809   0.80788   0.00000  Uiso   1.00
C1176  C     0.20817   0.68857   0.85878   0.00000  Uiso   1.00
C1177  C     0.16677   0.95716   0.83391   0.00000  Uiso   1.00
C1178  C     0.16656   0.70951   0.83276   0.00000  Uiso   1.00
C1179  C     0.13186   0.81015   0.68693   0.00000  Uiso   1.00
C1180  C     0.20147   0.85651   0.97974   0.00000  Uiso   1.00
H1181  H     0.10398   0.79156   0.70193   0.00000  Uiso   1.00
H1182  H     0.22936   0.87511   0.96474   0.00000  Uiso   1.00
C1183  C     0.13189   0.81015   0.97070   0.00000  Uiso   1.00
C1184  C     0.20145   0.85652   0.69597   0.00000  Uiso   1.00
H1185  H     0.10405   0.79150   0.94845   0.00000  Uiso   1.00
H1186  H     0.22928   0.87516   0.71821   0.00000  Uiso   1.00
C1187  C     0.07856   0.71158   0.78277   0.00000  Uiso   1.00
H1188  H     0.06478   0.73431   0.80747   0.00000  Uiso   1.00
H1189  H     0.08972   0.72814   0.75186   0.00000  Uiso   1.00
H1190  H     0.04524   0.69147   0.77021   0.00000  Uiso   1.00
C1191  C     0.25478   0.95509   0.88389   0.00000  Uiso   1.00
H1192  H     0.26855   0.93235   0.85919   0.00000  Uiso   1.00
H1193  H     0.28811   0.97520   0.89644   0.00000  Uiso   1.00
H1194  H     0.24362   0.93853   0.91480   0.00000  Uiso   1.00
N1195  N     0.08341   0.95513   0.78227   0.00000  Uiso   1.00
O1196  O     0.05453   0.93180   0.80469   0.00000  Uiso   1.00
O1197  O     0.07523   0.95655   0.73639   0.00000  Uiso   1.00
N1198  N     0.24994   0.71154   0.88439   0.00000  Uiso   1.00
O1199  O     0.27879   0.73487   0.86196   0.00000  Uiso   1.00
O1200  O     0.25813   0.71010   0.93026   0.00000  Uiso   1.00
O1201  O     0.50000   0.77322   0.87291   0.00000  Uiso   1.00
O1202  O     0.50000   0.89345   0.79375   0.00000  Uiso   1.00
O1203  O     0.50000   0.77321   0.79372   0.00000  Uiso   1.00
O1204  O     0.50000   0.89346   0.87294   0.00000  Uiso   1.00
C1205  C     0.49988   0.75418   0.83317   0.00000  Uiso   1.00
C1206  C     0.50012   0.91249   0.83350   0.00000  Uiso   1.00
O1207  O     0.42495   0.83334   0.86379   0.00000  Uiso   1.00
O1208  O     0.57505   0.83333   0.80288   0.00000  Uiso   1.00
O1209  O     0.42494   0.83333   0.78460   0.00000  Uiso   1.00
O1210  O     0.57506   0.83334   0.88207   0.00000  Uiso   1.00
C1211  C     0.40127   0.83317   0.82126   0.00000  Uiso   1.00
C1212  C     0.59873   0.83349   0.84541   0.00000  Uiso   1.00
Cu1213 Cu    0.50000   0.83334   0.88022   0.00000  Uiso   1.00
Cu1214 Cu    0.50000   0.83333   0.78645   0.00000  Uiso   1.00
N1215  N     0.50001   0.83334   0.95069   0.00000  Uiso   1.00
N1216  N     0.49999   0.83332   0.71597   0.00000  Uiso   1.00
C1217  C     0.34598   0.83315   0.81460   0.00000  Uiso   1.00
C1218  C     0.65402   0.83352   0.85206   0.00000  Uiso   1.00
H1219  H     0.65936   0.83292   0.77866   0.00000  Uiso   1.00
H1220  H     0.34064   0.83375   0.88800   0.00000  Uiso   1.00
C1221  C     0.45794   0.68805   0.80752   0.00000  Uiso   1.00
C1222  C     0.54206   0.97861   0.85914   0.00000  Uiso   1.00
C1223  C     0.45850   0.97809   0.80788   0.00000  Uiso   1.00
C1224  C     0.54151   0.68857   0.85878   0.00000  Uiso   1.00
C1225  C     0.50010   0.95716   0.83391   0.00000  Uiso   1.00
C1226  C     0.49990   0.70951   0.83276   0.00000  Uiso   1.00
C1227  C     0.46520   0.81015   0.68693   0.00000  Uiso   1.00
C1228  C     0.53480   0.85651   0.97974   0.00000  Uiso   1.00
H1229  H     0.43731   0.79156   0.70193   0.00000  Uiso   1.00
H1230  H     0.56269   0.87511   0.96474   0.00000  Uiso   1.00
C1231  C     0.46522   0.81015   0.97070   0.00000  Uiso   1.00
C1232  C     0.53478   0.85652   0.69597   0.00000  Uiso   1.00
H1233  H     0.43738   0.79150   0.94845   0.00000  Uiso   1.00
H1234  H     0.56262   0.87516   0.71821   0.00000  Uiso   1.00
C1235  C     0.41189   0.71158   0.78277   0.00000  Uiso   1.00
H1236  H     0.39812   0.73431   0.80747   0.00000  Uiso   1.00
H1237  H     0.42306   0.72814   0.75186   0.00000  Uiso   1.00
H1238  H     0.37857   0.69147   0.77021   0.00000  Uiso   1.00
C1239  C     0.58811   0.95509   0.88389   0.00000  Uiso   1.00
H1240  H     0.60188   0.93235   0.85919   0.00000  Uiso   1.00
H1241  H     0.62144   0.97520   0.89644   0.00000  Uiso   1.00
H1242  H     0.57695   0.93853   0.91480   0.00000  Uiso   1.00
N1243  N     0.41674   0.95513   0.78227   0.00000  Uiso   1.00
O1244  O     0.38786   0.93180   0.80469   0.00000  Uiso   1.00
O1245  O     0.40857   0.95655   0.73639   0.00000  Uiso   1.00
N1246  N     0.58327   0.71154   0.88439   0.00000  Uiso   1.00
O1247  O     0.61212   0.73487   0.86196   0.00000  Uiso   1.00
O1248  O     0.59147   0.71010   0.93026   0.00000  Uiso   1.00
O1249  O     0.83333   0.77322   0.87291   0.00000  Uiso   1.00
O1250  O     0.83334   0.89345   0.79375   0.00000  Uiso   1.00
O1251  O     0.83333   0.77321   0.79372   0.00000  Uiso   1.00
O1252  O     0.83334   0.89346   0.87294   0.00000  Uiso   1.00
C1253  C     0.83322   0.75418   0.83317   0.00000  Uiso   1.00
C1254  C     0.83345   0.91249   0.83350   0.00000  Uiso   1.00
O1255  O     0.75828   0.83334   0.86379   0.00000  Uiso   1.00
O1256  O     0.90839   0.83333   0.80288   0.00000  Uiso   1.00
O1257  O     0.75828   0.83333   0.78460   0.00000  Uiso   1.00
O1258  O     0.90839   0.83334   0.88207   0.00000  Uiso   1.00
C1259  C     0.73460   0.83317   0.82126   0.00000  Uiso   1.00
C1260  C     0.93207   0.83349   0.84541   0.00000  Uiso   1.00
Cu1261 Cu    0.83333   0.83334   0.88022   0.00000  Uiso   1.00
Cu1262 Cu    0.83333   0.83333   0.78645   0.00000  Uiso   1.00
N1263  N     0.83335   0.83334   0.95069   0.00000  Uiso   1.00
N1264  N     0.83332   0.83332   0.71597   0.00000  Uiso   1.00
C1265  C     0.67932   0.83315   0.81460   0.00000  Uiso   1.00
C1266  C     0.98735   0.83352   0.85206   0.00000  Uiso   1.00
H1267  H     0.99270   0.83292   0.77866   0.00000  Uiso   1.00
H1268  H     0.67397   0.83375   0.88800   0.00000  Uiso   1.00
C1269  C     0.79127   0.68805   0.80752   0.00000  Uiso   1.00
C1270  C     0.87540   0.97861   0.85914   0.00000  Uiso   1.00
C1271  C     0.79183   0.97809   0.80788   0.00000  Uiso   1.00
C1272  C     0.87484   0.68857   0.85878   0.00000  Uiso   1.00
C1273  C     0.83344   0.95716   0.83391   0.00000  Uiso   1.00
C1274  C     0.83323   0.70951   0.83276   0.00000  Uiso   1.00
C1275  C     0.79853   0.81015   0.68693   0.00000  Uiso   1.00
C1276  C     0.86814   0.85651   0.97974   0.00000  Uiso   1.00
H1277  H     0.77064   0.79156   0.70193   0.00000  Uiso   1.00
H1278  H     0.89602   0.87511   0.96474   0.00000  Uiso   1.00
C1279  C     0.79855   0.81015   0.97070   0.00000  Uiso   1.00
C1280  C     0.86811   0.85652   0.69597   0.00000  Uiso   1.00
H1281  H     0.77072   0.79150   0.94845   0.00000  Uiso   1.00
H1282  H     0.89595   0.87516   0.71821   0.00000  Uiso   1.00
C1283  C     0.74522   0.71158   0.78277   0.00000  Uiso   1.00
H1284  H     0.73145   0.73431   0.80747   0.00000  Uiso   1.00
H1285  H     0.75639   0.72814   0.75186   0.00000  Uiso   1.00
H1286  H     0.71190   0.69147   0.77021   0.00000  Uiso   1.00
C1287  C     0.92145   0.95509   0.88389   0.00000  Uiso   1.00
H1288  H     0.93521   0.93235   0.85919   0.00000  Uiso   1.00
H1289  H     0.95477   0.97520   0.89644   0.00000  Uiso   1.00
H1290  H     0.91028   0.93853   0.91480   0.00000  Uiso   1.00
N1291  N     0.75007   0.95513   0.78227   0.00000  Uiso   1.00
O1292  O     0.72120   0.93180   0.80469   0.00000  Uiso   1.00
O1293  O     0.74190   0.95655   0.73639   0.00000  Uiso   1.00
N1294  N     0.91660   0.71154   0.88439   0.00000  Uiso   1.00
O1295  O     0.94546   0.73487   0.86196   0.00000  Uiso   1.00
O1296  O     0.92480   0.71010   0.93026   0.00000  Uiso   1.00
loop_
_geom_bond_atom_site_label_1
_geom_bond_atom_site_label_2
_geom_bond_distance
_geom_bond_site_symmetry_2
_ccdc_geom_bond_type
O1     C5      1.290   .     A
O1     Cu13    1.955   .     S
O2     C6      1.290   .     A
O2     Cu14    1.955   .     S
O3     Cu14    1.957   .     S
O3     C5      1.288   .     A
O4     C6      1.288   .     A
O4     Cu13    1.957   .     S
C5     C26     1.446   .     S
C6     C25     1.445   .     S
O7     Cu13    1.956   .     S
O7     C11     1.287   .     A
O8     C12     1.287   .     A
O8     Cu14    1.956   .     S
O9     Cu14    1.958   .     S
O9     C11     1.289   .     A
O10    C12     1.289   .     A
O10    Cu13    1.958   .     S
C11    C17     1.434   .     S
C12    C18     1.434   .     S
Cu13   Cu14    2.682   .     S
Cu13   N15     2.016   .     S
Cu14   N16     2.016   .     S
N15    C31     1.368   .     A
N15    C28     1.367   .     A
N16    C27     1.367   .     A
N16    C32     1.368   .     A
C17    C114    1.335   1_455 S
C17    H115    1.087   1_455 S
C18    C65     1.335   .     S
C18    H68     1.087   .     S
H19    C65     1.087   .     S
H20    C114    1.087   1_455 S
C21    C35     1.517   .     S
C21    C26     1.410   .     A
C21    C311    1.401   1_545 S
C22    C39     1.517   .     S
C22    C25     1.410   .     A
C22    C168    1.401   .     S
C23    N43     1.436   .     S
C23    C25     1.407   .     A
C23    C165    1.401   .     S
C24    N46     1.436   .     S
C24    C26     1.407   .     A
C24    C310    1.401   1_545 S
C27    H29     1.081   .     S
C27    C895    1.418   1_554 S
C28    H30     1.081   .     S
C28    C464    1.418   .     S
C31    H33     1.082   .     S
C31    C459    1.418   .     S
C32    H34     1.082   .     S
C32    C892    1.418   1_554 S
C35    H36     1.111   .     S
C35    H37     1.109   .     S
C35    H38     1.108   .     S
C39    H41     1.108   .     S
C39    H42     1.109   .     S
C39    H40     1.111   .     S
N43    O44     1.301   .     A
N43    O45     1.301   .     A
N46    O48     1.301   .     A
N46    O47     1.301   .     A
O49    C53     1.290   .     A
O49    Cu61    1.955   .     S
O50    C54     1.290   .     A
O50    Cu62    1.955   .     S
O51    Cu62    1.957   .     S
O51    C53     1.288   .     A
O52    C54     1.288   .     A
O52    Cu61    1.957   .     S
C53    C74     1.446   .     S
C54    C73     1.445   .     S
O55    Cu61    1.956   .     S
O55    C59     1.287   .     A
O56    C60     1.287   .     A
O56    Cu62    1.956   .     S
O57    Cu62    1.958   .     S
O57    C59     1.289   .     A
O58    C60     1.289   .     A
O58    Cu61    1.958   .     S
C59    C65     1.434   .     S
C60    C66     1.434   .     S
Cu61   Cu62    2.682   .     S
Cu61   N63     2.016   .     S
Cu62   N64     2.016   .     S
N63    C79     1.368   .     A
N63    C76     1.367   .     A
N64    C75     1.367   .     A
N64    C80     1.368   .     A
C66    C113    1.335   .     S
C66    H116    1.087   .     S
H67    C113    1.087   .     S
C69    C83     1.517   .     S
C69    C74     1.410   .     A
C69    C359    1.401   1_545 S
C70    C87     1.517   .     S
C70    C73     1.410   .     A
C70    C216    1.401   .     S
C71    N91     1.436   .     S
C71    C73     1.407   .     A
C71    C213    1.401   .     S
C72    N94     1.436   .     S
C72    C74     1.407   .     A
C72    C358    1.401   1_545 S
C75    H77     1.081   .     S
C75    C943    1.418   1_554 S
C76    H78     1.081   .     S
C76    C512    1.418   .     S
C79    H81     1.082   .     S
C79    C507    1.418   .     S
C80    H82     1.082   .     S
C80    C940    1.418   1_554 S
C83    H84     1.111   .     S
C83    H85     1.109   .     S
C83    H86     1.108   .     S
C87    H89     1.108   .     S
C87    H90     1.109   .     S
C87    H88     1.111   .     S
N91    O92     1.301   .     A
N91    O93     1.301   .     A
N94    O96     1.301   .     A
N94    O95     1.301   .     A
O97    C101    1.290   .     A
O97    Cu109   1.955   .     S
O98    C102    1.290   .     A
O98    Cu110   1.955   .     S
O99    Cu110   1.957   .     S
O99    C101    1.288   .     A
O100   C102    1.288   .     A
O100   Cu109   1.957   .     S
C101   C122    1.446   .     S
C102   C121    1.445   .     S
O103   Cu109   1.956   .     S
O103   C107    1.287   .     A
O104   C108    1.287   .     A
O104   Cu110   1.956   .     S
O105   Cu110   1.958   .     S
O105   C107    1.289   .     A
O106   C108    1.289   .     A
O106   Cu109   1.958   .     S
C107   C113    1.434   .     S
C108   C114    1.434   .     S
Cu109  Cu110   2.682   .     S
Cu109  N111    2.016   .     S
Cu110  N112    2.016   .     S
N111   C127    1.368   .     A
N111   C124    1.367   .     A
N112   C123    1.367   .     A
N112   C128    1.368   .     A
C114   C17     1.335   1_655 S
C114   H20     1.087   1_655 S
H115   C17     1.087   1_655 S
C117   C131    1.517   .     S
C117   C122    1.410   .     A
C117   C407    1.401   1_545 S
C118   C135    1.517   .     S
C118   C121    1.410   .     A
C118   C264    1.401   .     S
C119   N139    1.436   .     S
C119   C121    1.407   .     A
C119   C261    1.401   .     S
C120   N142    1.436   .     S
C120   C122    1.407   .     A
C120   C406    1.401   1_545 S
C123   H125    1.081   .     S
C123   C991    1.418   1_554 S
C124   H126    1.081   .     S
C124   C560    1.418   .     S
C127   H129    1.082   .     S
C127   C555    1.418   .     S
C128   H130    1.082   .     S
C128   C988    1.418   1_554 S
C131   H132    1.111   .     S
C131   H133    1.109   .     S
C131   H134    1.108   .     S
C135   H137    1.108   .     S
C135   H138    1.109   .     S
C135   H136    1.111   .     S
N139   O140    1.301   .     A
N139   O141    1.301   .     A
N142   O144    1.301   .     A
N142   O143    1.301   .     A
O145   C149    1.290   .     A
O145   Cu157   1.955   .     S
O146   C150    1.290   .     A
O146   Cu158   1.955   .     S
O147   Cu158   1.957   .     S
O147   C149    1.288   .     A
O148   C150    1.288   .     A
O148   Cu157   1.957   .     S
C149   C170    1.446   .     S
C150   C169    1.445   .     S
O151   Cu157   1.956   .     S
O151   C155    1.287   .     A
O152   C156    1.287   .     A
O152   Cu158   1.956   .     S
O153   Cu158   1.958   .     S
O153   C155    1.289   .     A
O154   C156    1.289   .     A
O154   Cu157   1.958   .     S
C155   C161    1.434   .     S
C156   C162    1.434   .     S
Cu157  Cu158   2.682   .     S
Cu157  N159    2.016   .     S
Cu158  N160    2.016   .     S
N159   C175    1.368   .     A
N159   C172    1.367   .     A
N160   C171    1.367   .     A
N160   C176    1.368   .     A
C161   C258    1.335   1_455 S
C161   H259    1.087   1_455 S
C162   C209    1.335   .     S
C162   H212    1.087   .     S
H163   C209    1.087   .     S
H164   C258    1.087   1_455 S
C165   C179    1.517   .     S
C165   C170    1.410   .     A
C166   C183    1.517   .     S
C166   C169    1.410   .     A
C166   C312    1.401   .     S
C167   N187    1.436   .     S
C167   C169    1.407   .     A
C167   C309    1.401   .     S
C168   N190    1.436   .     S
C168   C170    1.407   .     A
C171   H173    1.081   .     S
C171   C1039   1.418   1_554 S
C172   H174    1.081   .     S
C172   C608    1.418   .     S
C175   H177    1.082   .     S
C175   C603    1.418   .     S
C176   H178    1.082   .     S
C176   C1036   1.418   1_554 S
C179   H180    1.111   .     S
C179   H181    1.109   .     S
C179   H182    1.108   .     S
C183   H185    1.108   .     S
C183   H186    1.109   .     S
C183   H184    1.111   .     S
N187   O188    1.301   .     A
N187   O189    1.301   .     A
N190   O192    1.301   .     A
N190   O191    1.301   .     A
O193   C197    1.290   .     A
O193   Cu205   1.955   .     S
O194   C198    1.290   .     A
O194   Cu206   1.955   .     S
O195   Cu206   1.957   .     S
O195   C197    1.288   .     A
O196   C198    1.288   .     A
O196   Cu205   1.957   .     S
C197   C218    1.446   .     S
C198   C217    1.445   .     S
O199   Cu205   1.956   .     S
O199   C203    1.287   .     A
O200   C204    1.287   .     A
O200   Cu206   1.956   .     S
O201   Cu206   1.958   .     S
O201   C203    1.289   .     A
O202   C204    1.289   .     A
O202   Cu205   1.958   .     S
C203   C209    1.434   .     S
C204   C210    1.434   .     S
Cu205  Cu206   2.682   .     S
Cu205  N207    2.016   .     S
Cu206  N208    2.016   .     S
N207   C223    1.368   .     A
N207   C220    1.367   .     A
N208   C219    1.367   .     A
N208   C224    1.368   .     A
C210   C257    1.335   .     S
C210   H260    1.087   .     S
H211   C257    1.087   .     S
C213   C227    1.517   .     S
C213   C218    1.410   .     A
C214   C231    1.517   .     S
C214   C217    1.410   .     A
C214   C360    1.401   .     S
C215   N235    1.436   .     S
C215   C217    1.407   .     A
C215   C357    1.401   .     S
C216   N238    1.436   .     S
C216   C218    1.407   .     A
C219   H221    1.081   .     S
C219   C1087   1.418   1_554 S
C220   H222    1.081   .     S
C220   C656    1.418   .     S
C223   H225    1.082   .     S
C223   C651    1.418   .     S
C224   H226    1.082   .     S
C224   C1084   1.418   1_554 S
C227   H228    1.111   .     S
C227   H229    1.109   .     S
C227   H230    1.108   .     S
C231   H233    1.108   .     S
C231   H234    1.109   .     S
C231   H232    1.111   .     S
N235   O236    1.301   .     A
N235   O237    1.301   .     A
N238   O240    1.301   .     A
N238   O239    1.301   .     A
O241   C245    1.290   .     A
O241   Cu253   1.955   .     S
O242   C246    1.290   .     A
O242   Cu254   1.955   .     S
O243   Cu254   1.957   .     S
O243   C245    1.288   .     A
O244   C246    1.288   .     A
O244   Cu253   1.957   .     S
C245   C266    1.446   .     S
C246   C265    1.445   .     S
O247   Cu253   1.956   .     S
O247   C251    1.287   .     A
O248   C252    1.287   .     A
O248   Cu254   1.956   .     S
O249   Cu254   1.958   .     S
O249   C251    1.289   .     A
O250   C252    1.289   .     A
O250   Cu253   1.958   .     S
C251   C257    1.434   .     S
C252   C258    1.434   .     S
Cu253  Cu254   2.682   .     S
Cu253  N255    2.016   .     S
Cu254  N256    2.016   .     S
N255   C271    1.368   .     A
N255   C268    1.367   .     A
N256   C267    1.367   .     A
N256   C272    1.368   .     A
C258   C161    1.335   1_655 S
C258   H164    1.087   1_655 S
H259   C161    1.087   1_655 S
C261   C275    1.517   .     S
C261   C266    1.410   .     A
C262   C279    1.517   .     S
C262   C265    1.410   .     A
C262   C408    1.401   .     S
C263   N283    1.436   .     S
C263   C265    1.407   .     A
C263   C405    1.401   .     S
C264   N286    1.436   .     S
C264   C266    1.407   .     A
C267   H269    1.081   .     S
C267   C1135   1.418   1_554 S
C268   H270    1.081   .     S
C268   C704    1.418   .     S
C271   H273    1.082   .     S
C271   C699    1.418   .     S
C272   H274    1.082   .     S
C272   C1132   1.418   1_554 S
C275   H276    1.111   .     S
C275   H277    1.109   .     S
C275   H278    1.108   .     S
C279   H281    1.108   .     S
C279   H282    1.109   .     S
C279   H280    1.111   .     S
N283   O284    1.301   .     A
N283   O285    1.301   .     A
N286   O288    1.301   .     A
N286   O287    1.301   .     A
O289   C293    1.290   .     A
O289   Cu301   1.955   .     S
O290   C294    1.290   .     A
O290   Cu302   1.955   .     S
O291   Cu302   1.957   .     S
O291   C293    1.288   .     A
O292   C294    1.288   .     A
O292   Cu301   1.957   .     S
C293   C314    1.446   .     S
C294   C313    1.445   .     S
O295   Cu301   1.956   .     S
O295   C299    1.287   .     A
O296   C300    1.287   .     A
O296   Cu302   1.956   .     S
O297   Cu302   1.958   .     S
O297   C299    1.289   .     A
O298   C300    1.289   .     A
O298   Cu301   1.958   .     S
C299   C305    1.434   .     S
C300   C306    1.434   .     S
Cu301  Cu302   2.682   .     S
Cu301  N303    2.016   .     S
Cu302  N304    2.016   .     S
N303   C319    1.368   .     A
N303   C316    1.367   .     A
N304   C315    1.367   .     A
N304   C320    1.368   .     A
C305   C402    1.335   1_455 S
C305   H403    1.087   1_455 S
C306   C353    1.335   .     S
C306   H356    1.087   .     S
H307   C353    1.087   .     S
H308   C402    1.087   1_455 S
C309   C323    1.517   .     S
C309   C314    1.410   .     A
C310   C327    1.517   .     S
C310   C313    1.410   .     A
C310   C24     1.401   1_565 S
C311   N331    1.436   .     S
C311   C313    1.407   .     A
C311   C21     1.401   1_565 S
C312   N334    1.436   .     S
C312   C314    1.407   .     A
C315   H317    1.081   .     S
C315   C1183   1.418   1_554 S
C316   H318    1.081   .     S
C316   C752    1.418   .     S
C319   H321    1.082   .     S
C319   C747    1.418   .     S
C320   H322    1.082   .     S
C320   C1180   1.418   1_554 S
C323   H324    1.111   .     S
C323   H325    1.109   .     S
C323   H326    1.108   .     S
C327   H329    1.108   .     S
C327   H330    1.109   .     S
C327   H328    1.111   .     S
N331   O332    1.301   .     A
N331   O333    1.301   .     A
N334   O336    1.301   .     A
N334   O335    1.301   .     A
O337   C341    1.290   .     A
O337   Cu349   1.955   .     S
O338   C342    1.290   .     A
O338   Cu350   1.955   .     S
O339   Cu350   1.957   .     S
O339   C341    1.288   .     A
O340   C342    1.288   .     A
O340   Cu349   1.957   .     S
C341   C362    1.446   .     S
C342   C361    1.445   .     S
O343   Cu349   1.956   .     S
O343   C347    1.287   .     A
O344   C348    1.287   .     A
O344   Cu350   1.956   .     S
O345   Cu350   1.958   .     S
O345   C347    1.289   .     A
O346   C348    1.289   .     A
O346   Cu349   1.958   .     S
C347   C353    1.434   .     S
C348   C354    1.434   .     S
Cu349  Cu350   2.682   .     S
Cu349  N351    2.016   .     S
Cu350  N352    2.016   .     S
N351   C367    1.368   .     A
N351   C364    1.367   .     A
N352   C363    1.367   .     A
N352   C368    1.368   .     A
C354   C401    1.335   .     S
C354   H404    1.087   .     S
H355   C401    1.087   .     S
C357   C371    1.517   .     S
C357   C362    1.410   .     A
C358   C375    1.517   .     S
C358   C361    1.410   .     A
C358   C72     1.401   1_565 S
C359   N379    1.436   .     S
C359   C361    1.407   .     A
C359   C69     1.401   1_565 S
C360   N382    1.436   .     S
C360   C362    1.407   .     A
C363   H365    1.081   .     S
C363   C1231   1.418   1_554 S
C364   H366    1.081   .     S
C364   C800    1.418   .     S
C367   H369    1.082   .     S
C367   C795    1.418   .     S
C368   H370    1.082   .     S
C368   C1228   1.418   1_554 S
C371   H372    1.111   .     S
C371   H373    1.109   .     S
C371   H374    1.108   .     S
C375   H377    1.108   .     S
C375   H378    1.109   .     S
C375   H376    1.111   .     S
N379   O380    1.301   .     A
N379   O381    1.301   .     A
N382   O384    1.301   .     A
N382   O383    1.301   .     A
O385   C389    1.290   .     A
O385   Cu397   1.955   .     S
O386   C390    1.290   .     A
O386   Cu398   1.955   .     S
O387   Cu398   1.957   .     S
O387   C389    1.288   .     A
O388   C390    1.288   .     A
O388   Cu397   1.957   .     S
C389   C410    1.446   .     S
C390   C409    1.445   .     S
O391   Cu397   1.956   .     S
O391   C395    1.287   .     A
O392   C396    1.287   .     A
O392   Cu398   1.956   .     S
O393   Cu398   1.958   .     S
O393   C395    1.289   .     A
O394   C396    1.289   .     A
O394   Cu397   1.958   .     S
C395   C401    1.434   .     S
C396   C402    1.434   .     S
Cu397  Cu398   2.682   .     S
Cu397  N399    2.016   .     S
Cu398  N400    2.016   .     S
N399   C415    1.368   .     A
N399   C412    1.367   .     A
N400   C411    1.367   .     A
N400   C416    1.368   .     A
C402   C305    1.335   1_655 S
C402   H308    1.087   1_655 S
H403   C305    1.087   1_655 S
C405   C419    1.517   .     S
C405   C410    1.410   .     A
C406   C423    1.517   .     S
C406   C409    1.410   .     A
C406   C120    1.401   1_565 S
C407   N427    1.436   .     S
C407   C409    1.407   .     A
C407   C117    1.401   1_565 S
C408   N430    1.436   .     S
C408   C410    1.407   .     A
C411   H413    1.081   .     S
C411   C1279   1.418   1_554 S
C412   H414    1.081   .     S
C412   C848    1.418   .     S
C415   H417    1.082   .     S
C415   C843    1.418   .     S
C416   H418    1.082   .     S
C416   C1276   1.418   1_554 S
C419   H420    1.111   .     S
C419   H421    1.109   .     S
C419   H422    1.108   .     S
C423   H425    1.108   .     S
C423   H426    1.109   .     S
C423   H424    1.111   .     S
N427   O428    1.301   .     A
N427   O429    1.301   .     A
N430   O432    1.301   .     A
N430   O431    1.301   .     A
O433   C437    1.290   .     A
O433   Cu445   1.955   .     S
O434   C438    1.290   .     A
O434   Cu446   1.955   .     S
O435   Cu446   1.957   .     S
O435   C437    1.288   .     A
O436   C438    1.288   .     A
O436   Cu445   1.957   .     S
C437   C458    1.446   .     S
C438   C457    1.445   .     S
O439   Cu445   1.956   .     S
O439   C443    1.287   .     A
O440   C444    1.287   .     A
O440   Cu446   1.956   .     S
O441   Cu446   1.958   .     S
O441   C443    1.289   .     A
O442   C444    1.289   .     A
O442   Cu445   1.958   .     S
C443   C449    1.434   .     S
C444   C450    1.434   .     S
Cu445  Cu446   2.682   .     S
Cu445  N447    2.016   .     S
Cu446  N448    2.016   .     S
N447   C463    1.368   .     A
N447   C460    1.367   .     A
N448   C459    1.367   .     A
N448   C464    1.368   .     A
C449   C546    1.335   1_455 S
C449   H547    1.087   1_455 S
C450   C497    1.335   .     S
C450   H500    1.087   .     S
H451   C497    1.087   .     S
H452   C546    1.087   1_455 S
C453   C467    1.517   .     S
C453   C458    1.410   .     A
C453   C743    1.401   1_545 S
C454   C471    1.517   .     S
C454   C457    1.410   .     A
C454   C600    1.401   .     S
C455   N475    1.436   .     S
C455   C457    1.407   .     A
C455   C597    1.401   .     S
C456   N478    1.436   .     S
C456   C458    1.407   .     A
C456   C742    1.401   1_545 S
C459   H461    1.081   .     S
C460   H462    1.081   .     S
C460   C896    1.418   .     S
C463   H465    1.082   .     S
C463   C891    1.418   .     S
C464   H466    1.082   .     S
C467   H468    1.111   .     S
C467   H469    1.109   .     S
C467   H470    1.108   .     S
C471   H473    1.108   .     S
C471   H474    1.109   .     S
C471   H472    1.111   .     S
N475   O476    1.301   .     A
N475   O477    1.301   .     A
N478   O480    1.301   .     A
N478   O479    1.301   .     A
O481   C485    1.290   .     A
O481   Cu493   1.955   .     S
O482   C486    1.290   .     A
O482   Cu494   1.955   .     S
O483   Cu494   1.957   .     S
O483   C485    1.288   .     A
O484   C486    1.288   .     A
O484   Cu493   1.957   .     S
C485   C506    1.446   .     S
C486   C505    1.445   .     S
O487   Cu493   1.956   .     S
O487   C491    1.287   .     A
O488   C492    1.287   .     A
O488   Cu494   1.956   .     S
O489   Cu494   1.958   .     S
O489   C491    1.289   .     A
O490   C492    1.289   .     A
O490   Cu493   1.958   .     S
C491   C497    1.434   .     S
C492   C498    1.434   .     S
Cu493  Cu494   2.682   .     S
Cu493  N495    2.016   .     S
Cu494  N496    2.016   .     S
N495   C511    1.368   .     A
N495   C508    1.367   .     A
N496   C507    1.367   .     A
N496   C512    1.368   .     A
C498   C545    1.335   .     S
C498   H548    1.087   .     S
H499   C545    1.087   .     S
C501   C515    1.517   .     S
C501   C506    1.410   .     A
C501   C791    1.401   1_545 S
C502   C519    1.517   .     S
C502   C505    1.410   .     A
C502   C648    1.401   .     S
C503   N523    1.436   .     S
C503   C505    1.407   .     A
C503   C645    1.401   .     S
C504   N526    1.436   .     S
C504   C506    1.407   .     A
C504   C790    1.401   1_545 S
C507   H509    1.081   .     S
C508   H510    1.081   .     S
C508   C944    1.418   .     S
C511   H513    1.082   .     S
C511   C939    1.418   .     S
C512   H514    1.082   .     S
C515   H516    1.111   .     S
C515   H517    1.109   .     S
C515   H518    1.108   .     S
C519   H521    1.108   .     S
C519   H522    1.109   .     S
C519   H520    1.111   .     S
N523   O524    1.301   .     A
N523   O525    1.301   .     A
N526   O528    1.301   .     A
N526   O527    1.301   .     A
O529   C533    1.290   .     A
O529   Cu541   1.955   .     S
O530   C534    1.290   .     A
O530   Cu542   1.955   .     S
O531   Cu542   1.957   .     S
O531   C533    1.288   .     A
O532   C534    1.288   .     A
O532   Cu541   1.957   .     S
C533   C554    1.446   .     S
C534   C553    1.445   .     S
O535   Cu541   1.956   .     S
O535   C539    1.287   .     A
O536   C540    1.287   .     A
O536   Cu542   1.956   .     S
O537   Cu542   1.958   .     S
O537   C539    1.289   .     A
O538   C540    1.289   .     A
O538   Cu541   1.958   .     S
C539   C545    1.434   .     S
C540   C546    1.434   .     S
Cu541  Cu542   2.682   .     S
Cu541  N543    2.016   .     S
Cu542  N544    2.016   .     S
N543   C559    1.368   .     A
N543   C556    1.367   .     A
N544   C555    1.367   .     A
N544   C560    1.368   .     A
C546   C449    1.335   1_655 S
C546   H452    1.087   1_655 S
H547   C449    1.087   1_655 S
C549   C563    1.517   .     S
C549   C554    1.410   .     A
C549   C839    1.401   1_545 S
C550   C567    1.517   .     S
C550   C553    1.410   .     A
C550   C696    1.401   .     S
C551   N571    1.436   .     S
C551   C553    1.407   .     A
C551   C693    1.401   .     S
C552   N574    1.436   .     S
C552   C554    1.407   .     A
C552   C838    1.401   1_545 S
C555   H557    1.081   .     S
C556   H558    1.081   .     S
C556   C992    1.418   .     S
C559   H561    1.082   .     S
C559   C987    1.418   .     S
C560   H562    1.082   .     S
C563   H564    1.111   .     S
C563   H565    1.109   .     S
C563   H566    1.108   .     S
C567   H569    1.108   .     S
C567   H570    1.109   .     S
C567   H568    1.111   .     S
N571   O572    1.301   .     A
N571   O573    1.301   .     A
N574   O576    1.301   .     A
N574   O575    1.301   .     A
O577   C581    1.290   .     A
O577   Cu589   1.955   .     S
O578   C582    1.290   .     A
O578   Cu590   1.955   .     S
O579   Cu590   1.957   .     S
O579   C581    1.288   .     A
O580   C582    1.288   .     A
O580   Cu589   1.957   .     S
C581   C602    1.446   .     S
C582   C601    1.445   .     S
O583   Cu589   1.956   .     S
O583   C587    1.287   .     A
O584   C588    1.287   .     A
O584   Cu590   1.956   .     S
O585   Cu590   1.958   .     S
O585   C587    1.289   .     A
O586   C588    1.289   .     A
O586   Cu589   1.958   .     S
C587   C593    1.434   .     S
C588   C594    1.434   .     S
Cu589  Cu590   2.682   .     S
Cu589  N591    2.016   .     S
Cu590  N592    2.016   .     S
N591   C607    1.368   .     A
N591   C604    1.367   .     A
N592   C603    1.367   .     A
N592   C608    1.368   .     A
C593   C690    1.335   1_455 S
C593   H691    1.087   1_455 S
C594   C641    1.335   .     S
C594   H644    1.087   .     S
H595   C641    1.087   .     S
H596   C690    1.087   1_455 S
C597   C611    1.517   .     S
C597   C602    1.410   .     A
C598   C615    1.517   .     S
C598   C601    1.410   .     A
C598   C744    1.401   .     S
C599   N619    1.436   .     S
C599   C601    1.407   .     A
C599   C741    1.401   .     S
C600   N622    1.436   .     S
C600   C602    1.407   .     A
C603   H605    1.081   .     S
C604   H606    1.081   .     S
C604   C1040   1.418   .     S
C607   H609    1.082   .     S
C607   C1035   1.418   .     S
C608   H610    1.082   .     S
C611   H612    1.111   .     S
C611   H613    1.109   .     S
C611   H614    1.108   .     S
C615   H617    1.108   .     S
C615   H618    1.109   .     S
C615   H616    1.111   .     S
N619   O620    1.301   .     A
N619   O621    1.301   .     A
N622   O624    1.301   .     A
N622   O623    1.301   .     A
O625   C629    1.290   .     A
O625   Cu637   1.955   .     S
O626   C630    1.290   .     A
O626   Cu638   1.955   .     S
O627   Cu638   1.957   .     S
O627   C629    1.288   .     A
O628   C630    1.288   .     A
O628   Cu637   1.957   .     S
C629   C650    1.446   .     S
C630   C649    1.445   .     S
O631   Cu637   1.956   .     S
O631   C635    1.287   .     A
O632   C636    1.287   .     A
O632   Cu638   1.956   .     S
O633   Cu638   1.958   .     S
O633   C635    1.289   .     A
O634   C636    1.289   .     A
O634   Cu637   1.958   .     S
C635   C641    1.434   .     S
C636   C642    1.434   .     S
Cu637  Cu638   2.682   .     S
Cu637  N639    2.016   .     S
Cu638  N640    2.016   .     S
N639   C655    1.368   .     A
N639   C652    1.367   .     A
N640   C651    1.367   .     A
N640   C656    1.368   .     A
C642   C689    1.335   .     S
C642   H692    1.087   .     S
H643   C689    1.087   .     S
C645   C659    1.517   .     S
C645   C650    1.410   .     A
C646   C663    1.517   .     S
C646   C649    1.410   .     A
C646   C792    1.401   .     S
C647   N667    1.436   .     S
C647   C649    1.407   .     A
C647   C789    1.401   .     S
C648   N670    1.436   .     S
C648   C650    1.407   .     A
C651   H653    1.081   .     S
C652   H654    1.081   .     S
C652   C1088   1.418   .     S
C655   H657    1.082   .     S
C655   C1083   1.418   .     S
C656   H658    1.082   .     S
C659   H660    1.111   .     S
C659   H661    1.109   .     S
C659   H662    1.108   .     S
C663   H665    1.108   .     S
C663   H666    1.109   .     S
C663   H664    1.111   .     S
N667   O668    1.301   .     A
N667   O669    1.301   .     A
N670   O672    1.301   .     A
N670   O671    1.301   .     A
O673   C677    1.290   .     A
O673   Cu685   1.955   .     S
O674   C678    1.290   .     A
O674   Cu686   1.955   .     S
O675   Cu686   1.957   .     S
O675   C677    1.288   .     A
O676   C678    1.288   .     A
O676   Cu685   1.957   .     S
C677   C698    1.446   .     S
C678   C697    1.445   .     S
O679   Cu685   1.956   .     S
O679   C683    1.287   .     A
O680   C684    1.287   .     A
O680   Cu686   1.956   .     S
O681   Cu686   1.958   .     S
O681   C683    1.289   .     A
O682   C684    1.289   .     A
O682   Cu685   1.958   .     S
C683   C689    1.434   .     S
C684   C690    1.434   .     S
Cu685  Cu686   2.682   .     S
Cu685  N687    2.016   .     S
Cu686  N688    2.016   .     S
N687   C703    1.368   .     A
N687   C700    1.367   .     A
N688   C699    1.367   .     A
N688   C704    1.368   .     A
C690   C593    1.335   1_655 S
C690   H596    1.087   1_655 S
H691   C593    1.087   1_655 S
C693   C707    1.517   .     S
C693   C698    1.410   .     A
C694   C711    1.517   .     S
C694   C697    1.410   .     A
C694   C840    1.401   .     S
C695   N715    1.436   .     S
C695   C697    1.407   .     A
C695   C837    1.401   .     S
C696   N718    1.436   .     S
C696   C698    1.407   .     A
C699   H701    1.081   .     S
C700   H702    1.081   .     S
C700   C1136   1.418   .     S
C703   H705    1.082   .     S
C703   C1131   1.418   .     S
C704   H706    1.082   .     S
C707   H708    1.111   .     S
C707   H709    1.109   .     S
C707   H710    1.108   .     S
C711   H713    1.108   .     S
C711   H714    1.109   .     S
C711   H712    1.111   .     S
N715   O716    1.301   .     A
N715   O717    1.301   .     A
N718   O720    1.301   .     A
N718   O719    1.301   .     A
O721   C725    1.290   .     A
O721   Cu733   1.955   .     S
O722   C726    1.290   .     A
O722   Cu734   1.955   .     S
O723   Cu734   1.957   .     S
O723   C725    1.288   .     A
O724   C726    1.288   .     A
O724   Cu733   1.957   .     S
C725   C746    1.446   .     S
C726   C745    1.445   .     S
O727   Cu733   1.956   .     S
O727   C731    1.287   .     A
O728   C732    1.287   .     A
O728   Cu734   1.956   .     S
O729   Cu734   1.958   .     S
O729   C731    1.289   .     A
O730   C732    1.289   .     A
O730   Cu733   1.958   .     S
C731   C737    1.434   .     S
C732   C738    1.434   .     S
Cu733  Cu734   2.682   .     S
Cu733  N735    2.016   .     S
Cu734  N736    2.016   .     S
N735   C751    1.368   .     A
N735   C748    1.367   .     A
N736   C747    1.367   .     A
N736   C752    1.368   .     A
C737   C834    1.335   1_455 S
C737   H835    1.087   1_455 S
C738   C785    1.335   .     S
C738   H788    1.087   .     S
H739   C785    1.087   .     S
H740   C834    1.087   1_455 S
C741   C755    1.517   .     S
C741   C746    1.410   .     A
C742   C759    1.517   .     S
C742   C745    1.410   .     A
C742   C456    1.401   1_565 S
C743   N763    1.436   .     S
C743   C745    1.407   .     A
C743   C453    1.401   1_565 S
C744   N766    1.436   .     S
C744   C746    1.407   .     A
C747   H749    1.081   .     S
C748   H750    1.081   .     S
C748   C1184   1.418   .     S
C751   H753    1.082   .     S
C751   C1179   1.418   .     S
C752   H754    1.082   .     S
C755   H756    1.111   .     S
C755   H757    1.109   .     S
C755   H758    1.108   .     S
C759   H761    1.108   .     S
C759   H762    1.109   .     S
C759   H760    1.111   .     S
N763   O764    1.301   .     A
N763   O765    1.301   .     A
N766   O768    1.301   .     A
N766   O767    1.301   .     A
O769   C773    1.290   .     A
O769   Cu781   1.955   .     S
O770   C774    1.290   .     A
O770   Cu782   1.955   .     S
O771   Cu782   1.957   .     S
O771   C773    1.288   .     A
O772   C774    1.288   .     A
O772   Cu781   1.957   .     S
C773   C794    1.446   .     S
C774   C793    1.445   .     S
O775   Cu781   1.956   .     S
O775   C779    1.287   .     A
O776   C780    1.287   .     A
O776   Cu782   1.956   .     S
O777   Cu782   1.958   .     S
O777   C779    1.289   .     A
O778   C780    1.289   .     A
O778   Cu781   1.958   .     S
C779   C785    1.434   .     S
C780   C786    1.434   .     S
Cu781  Cu782   2.682   .     S
Cu781  N783    2.016   .     S
Cu782  N784    2.016   .     S
N783   C799    1.368   .     A
N783   C796    1.367   .     A
N784   C795    1.367   .     A
N784   C800    1.368   .     A
C786   C833    1.335   .     S
C786   H836    1.087   .     S
H787   C833    1.087   .     S
C789   C803    1.517   .     S
C789   C794    1.410   .     A
C790   C807    1.517   .     S
C790   C793    1.410   .     A
C790   C504    1.401   1_565 S
C791   N811    1.436   .     S
C791   C793    1.407   .     A
C791   C501    1.401   1_565 S
C792   N814    1.436   .     S
C792   C794    1.407   .     A
C795   H797    1.081   .     S
C796   H798    1.081   .     S
C796   C1232   1.418   .     S
C799   H801    1.082   .     S
C799   C1227   1.418   .     S
C800   H802    1.082   .     S
C803   H804    1.111   .     S
C803   H805    1.109   .     S
C803   H806    1.108   .     S
C807   H809    1.108   .     S
C807   H810    1.109   .     S
C807   H808    1.111   .     S
N811   O812    1.301   .     A
N811   O813    1.301   .     A
N814   O816    1.301   .     A
N814   O815    1.301   .     A
O817   C821    1.290   .     A
O817   Cu829   1.955   .     S
O818   C822    1.290   .     A
O818   Cu830   1.955   .     S
O819   Cu830   1.957   .     S
O819   C821    1.288   .     A
O820   C822    1.288   .     A
O820   Cu829   1.957   .     S
C821   C842    1.446   .     S
C822   C841    1.445   .     S
O823   Cu829   1.956   .     S
O823   C827    1.287   .     A
O824   C828    1.287   .     A
O824   Cu830   1.956   .     S
O825   Cu830   1.958   .     S
O825   C827    1.289   .     A
O826   C828    1.289   .     A
O826   Cu829   1.958   .     S
C827   C833    1.434   .     S
C828   C834    1.434   .     S
Cu829  Cu830   2.682   .     S
Cu829  N831    2.016   .     S
Cu830  N832    2.016   .     S
N831   C847    1.368   .     A
N831   C844    1.367   .     A
N832   C843    1.367   .     A
N832   C848    1.368   .     A
C834   C737    1.335   1_655 S
C834   H740    1.087   1_655 S
H835   C737    1.087   1_655 S
C837   C851    1.517   .     S
C837   C842    1.410   .     A
C838   C855    1.517   .     S
C838   C841    1.410   .     A
C838   C552    1.401   1_565 S
C839   N859    1.436   .     S
C839   C841    1.407   .     A
C839   C549    1.401   1_565 S
C840   N862    1.436   .     S
C840   C842    1.407   .     A
C843   H845    1.081   .     S
C844   H846    1.081   .     S
C844   C1280   1.418   .     S
C847   H849    1.082   .     S
C847   C1275   1.418   .     S
C848   H850    1.082   .     S
C851   H852    1.111   .     S
C851   H853    1.109   .     S
C851   H854    1.108   .     S
C855   H857    1.108   .     S
C855   H858    1.109   .     S
C855   H856    1.111   .     S
N859   O860    1.301   .     A
N859   O861    1.301   .     A
N862   O864    1.301   .     A
N862   O863    1.301   .     A
O865   C869    1.290   .     A
O865   Cu877   1.955   .     S
O866   C870    1.290   .     A
O866   Cu878   1.955   .     S
O867   Cu878   1.957   .     S
O867   C869    1.288   .     A
O868   C870    1.288   .     A
O868   Cu877   1.957   .     S
C869   C890    1.446   .     S
C870   C889    1.445   .     S
O871   Cu877   1.956   .     S
O871   C875    1.287   .     A
O872   C876    1.287   .     A
O872   Cu878   1.956   .     S
O873   Cu878   1.958   .     S
O873   C875    1.289   .     A
O874   C876    1.289   .     A
O874   Cu877   1.958   .     S
C875   C881    1.434   .     S
C876   C882    1.434   .     S
Cu877  Cu878   2.682   .     S
Cu877  N879    2.016   .     S
Cu878  N880    2.016   .     S
N879   C895    1.368   .     A
N879   C892    1.367   .     A
N880   C891    1.367   .     A
N880   C896    1.368   .     A
C881   C978    1.335   1_455 S
C881   H979    1.087   1_455 S
C882   C929    1.335   .     S
C882   H932    1.087   .     S
H883   C929    1.087   .     S
H884   C978    1.087   1_455 S
C885   C899    1.517   .     S
C885   C890    1.410   .     A
C885   C1175   1.401   1_545 S
C886   C903    1.517   .     S
C886   C889    1.410   .     A
C886   C1032   1.401   .     S
C887   N907    1.436   .     S
C887   C889    1.407   .     A
C887   C1029   1.401   .     S
C888   N910    1.436   .     S
C888   C890    1.407   .     A
C888   C1174   1.401   1_545 S
C891   H893    1.081   .     S
C892   H894    1.081   .     S
C892   C32     1.418   1_556 S
C895   H897    1.082   .     S
C895   C27     1.418   1_556 S
C896   H898    1.082   .     S
C899   H900    1.111   .     S
C899   H901    1.109   .     S
C899   H902    1.108   .     S
C903   H905    1.108   .     S
C903   H906    1.109   .     S
C903   H904    1.111   .     S
N907   O908    1.301   .     A
N907   O909    1.301   .     A
N910   O912    1.301   .     A
N910   O911    1.301   .     A
O913   C917    1.290   .     A
O913   Cu925   1.955   .     S
O914   C918    1.290   .     A
O914   Cu926   1.955   .     S
O915   Cu926   1.957   .     S
O915   C917    1.288   .     A
O916   C918    1.288   .     A
O916   Cu925   1.957   .     S
C917   C938    1.446   .     S
C918   C937    1.445   .     S
O919   Cu925   1.956   .     S
O919   C923    1.287   .     A
O920   C924    1.287   .     A
O920   Cu926   1.956   .     S
O921   Cu926   1.958   .     S
O921   C923    1.289   .     A
O922   C924    1.289   .     A
O922   Cu925   1.958   .     S
C923   C929    1.434   .     S
C924   C930    1.434   .     S
Cu925  Cu926   2.682   .     S
Cu925  N927    2.016   .     S
Cu926  N928    2.016   .     S
N927   C943    1.368   .     A
N927   C940    1.367   .     A
N928   C939    1.367   .     A
N928   C944    1.368   .     A
C930   C977    1.335   .     S
C930   H980    1.087   .     S
H931   C977    1.087   .     S
C933   C947    1.517   .     S
C933   C938    1.410   .     A
C933   C1223   1.401   1_545 S
C934   C951    1.517   .     S
C934   C937    1.410   .     A
C934   C1080   1.401   .     S
C935   N955    1.436   .     S
C935   C937    1.407   .     A
C935   C1077   1.401   .     S
C936   N958    1.436   .     S
C936   C938    1.407   .     A
C936   C1222   1.401   1_545 S
C939   H941    1.081   .     S
C940   H942    1.081   .     S
C940   C80     1.418   1_556 S
C943   H945    1.082   .     S
C943   C75     1.418   1_556 S
C944   H946    1.082   .     S
C947   H948    1.111   .     S
C947   H949    1.109   .     S
C947   H950    1.108   .     S
C951   H953    1.108   .     S
C951   H954    1.109   .     S
C951   H952    1.111   .     S
N955   O956    1.301   .     A
N955   O957    1.301   .     A
N958   O960    1.301   .     A
N958   O959    1.301   .     A
O961   C965    1.290   .     A
O961   Cu973   1.955   .     S
O962   C966    1.290   .     A
O962   Cu974   1.955   .     S
O963   Cu974   1.957   .     S
O963   C965    1.288   .     A
O964   C966    1.288   .     A
O964   Cu973   1.957   .     S
C965   C986    1.446   .     S
C966   C985    1.445   .     S
O967   Cu973   1.956   .     S
O967   C971    1.287   .     A
O968   C972    1.287   .     A
O968   Cu974   1.956   .     S
O969   Cu974   1.958   .     S
O969   C971    1.289   .     A
O970   C972    1.289   .     A
O970   Cu973   1.958   .     S
C971   C977    1.434   .     S
C972   C978    1.434   .     S
Cu973  Cu974   2.682   .     S
Cu973  N975    2.016   .     S
Cu974  N976    2.016   .     S
N975   C991    1.368   .     A
N975   C988    1.367   .     A
N976   C987    1.367   .     A
N976   C992    1.368   .     A
C978   C881    1.335   1_655 S
C978   H884    1.087   1_655 S
H979   C881    1.087   1_655 S
C981   C995    1.517   .     S
C981   C986    1.410   .     A
C981   C1271   1.401   1_545 S
C982   C999    1.517   .     S
C982   C985    1.410   .     A
C982   C1128   1.401   .     S
C983   N1003   1.436   .     S
C983   C985    1.407   .     A
C983   C1125   1.401   .     S
C984   N1006   1.436   .     S
C984   C986    1.407   .     A
C984   C1270   1.401   1_545 S
C987   H989    1.081   .     S
C988   H990    1.081   .     S
C988   C128    1.418   1_556 S
C991   H993    1.082   .     S
C991   C123    1.418   1_556 S
C992   H994    1.082   .     S
C995   H996    1.111   .     S
C995   H997    1.109   .     S
C995   H998    1.108   .     S
C999   H1001   1.108   .     S
C999   H1002   1.109   .     S
C999   H1000   1.111   .     S
N1003  O1004   1.301   .     A
N1003  O1005   1.301   .     A
N1006  O1008   1.301   .     A
N1006  O1007   1.301   .     A
O1009  C1013   1.290   .     A
O1009  Cu1021  1.955   .     S
O1010  C1014   1.290   .     A
O1010  Cu1022  1.955   .     S
O1011  Cu1022  1.957   .     S
O1011  C1013   1.288   .     A
O1012  C1014   1.288   .     A
O1012  Cu1021  1.957   .     S
C1013  C1034   1.446   .     S
C1014  C1033   1.445   .     S
O1015  Cu1021  1.956   .     S
O1015  C1019   1.287   .     A
O1016  C1020   1.287   .     A
O1016  Cu1022  1.956   .     S
O1017  Cu1022  1.958   .     S
O1017  C1019   1.289   .     A
O1018  C1020   1.289   .     A
O1018  Cu1021  1.958   .     S
C1019  C1025   1.434   .     S
C1020  C1026   1.434   .     S
Cu1021 Cu1022  2.682   .     S
Cu1021 N1023   2.016   .     S
Cu1022 N1024   2.016   .     S
N1023  C1039   1.368   .     A
N1023  C1036   1.367   .     A
N1024  C1035   1.367   .     A
N1024  C1040   1.368   .     A
C1025  C1122   1.335   1_455 S
C1025  H1123   1.087   1_455 S
C1026  C1073   1.335   .     S
C1026  H1076   1.087   .     S
H1027  C1073   1.087   .     S
H1028  C1122   1.087   1_455 S
C1029  C1043   1.517   .     S
C1029  C1034   1.410   .     A
C1030  C1047   1.517   .     S
C1030  C1033   1.410   .     A
C1030  C1176   1.401   .     S
C1031  N1051   1.436   .     S
C1031  C1033   1.407   .     A
C1031  C1173   1.401   .     S
C1032  N1054   1.436   .     S
C1032  C1034   1.407   .     A
C1035  H1037   1.081   .     S
C1036  H1038   1.081   .     S
C1036  C176    1.418   1_556 S
C1039  H1041   1.082   .     S
C1039  C171    1.418   1_556 S
C1040  H1042   1.082   .     S
C1043  H1044   1.111   .     S
C1043  H1045   1.109   .     S
C1043  H1046   1.108   .     S
C1047  H1049   1.108   .     S
C1047  H1050   1.109   .     S
C1047  H1048   1.111   .     S
N1051  O1052   1.301   .     A
N1051  O1053   1.301   .     A
N1054  O1056   1.301   .     A
N1054  O1055   1.301   .     A
O1057  C1061   1.290   .     A
O1057  Cu1069  1.955   .     S
O1058  C1062   1.290   .     A
O1058  Cu1070  1.955   .     S
O1059  Cu1070  1.957   .     S
O1059  C1061   1.288   .     A
O1060  C1062   1.288   .     A
O1060  Cu1069  1.957   .     S
C1061  C1082   1.446   .     S
C1062  C1081   1.445   .     S
O1063  Cu1069  1.956   .     S
O1063  C1067   1.287   .     A
O1064  C1068   1.287   .     A
O1064  Cu1070  1.956   .     S
O1065  Cu1070  1.958   .     S
O1065  C1067   1.289   .     A
O1066  C1068   1.289   .     A
O1066  Cu1069  1.958   .     S
C1067  C1073   1.434   .     S
C1068  C1074   1.434   .     S
Cu1069 Cu1070  2.682   .     S
Cu1069 N1071   2.016   .     S
Cu1070 N1072   2.016   .     S
N1071  C1087   1.368   .     A
N1071  C1084   1.367   .     A
N1072  C1083   1.367   .     A
N1072  C1088   1.368   .     A
C1074  C1121   1.335   .     S
C1074  H1124   1.087   .     S
H1075  C1121   1.087   .     S
C1077  C1091   1.517   .     S
C1077  C1082   1.410   .     A
C1078  C1095   1.517   .     S
C1078  C1081   1.410   .     A
C1078  C1224   1.401   .     S
C1079  N1099   1.436   .     S
C1079  C1081   1.407   .     A
C1079  C1221   1.401   .     S
C1080  N1102   1.436   .     S
C1080  C1082   1.407   .     A
C1083  H1085   1.081   .     S
C1084  H1086   1.081   .     S
C1084  C224    1.418   1_556 S
C1087  H1089   1.082   .     S
C1087  C219    1.418   1_556 S
C1088  H1090   1.082   .     S
C1091  H1092   1.111   .     S
C1091  H1093   1.109   .     S
C1091  H1094   1.108   .     S
C1095  H1097   1.108   .     S
C1095  H1098   1.109   .     S
C1095  H1096   1.111   .     S
N1099  O1100   1.301   .     A
N1099  O1101   1.301   .     A
N1102  O1104   1.301   .     A
N1102  O1103   1.301   .     A
O1105  C1109   1.290   .     A
O1105  Cu1117  1.955   .     S
O1106  C1110   1.290   .     A
O1106  Cu1118  1.955   .     S
O1107  Cu1118  1.957   .     S
O1107  C1109   1.288   .     A
O1108  C1110   1.288   .     A
O1108  Cu1117  1.957   .     S
C1109  C1130   1.446   .     S
C1110  C1129   1.445   .     S
O1111  Cu1117  1.956   .     S
O1111  C1115   1.287   .     A
O1112  C1116   1.287   .     A
O1112  Cu1118  1.956   .     S
O1113  Cu1118  1.958   .     S
O1113  C1115   1.289   .     A
O1114  C1116   1.289   .     A
O1114  Cu1117  1.958   .     S
C1115  C1121   1.434   .     S
C1116  C1122   1.434   .     S
Cu1117 Cu1118  2.682   .     S
Cu1117 N1119   2.016   .     S
Cu1118 N1120   2.016   .     S
N1119  C1135   1.368   .     A
N1119  C1132   1.367   .     A
N1120  C1131   1.367   .     A
N1120  C1136   1.368   .     A
C1122  C1025   1.335   1_655 S
C1122  H1028   1.087   1_655 S
H1123  C1025   1.087   1_655 S
C1125  C1139   1.517   .     S
C1125  C1130   1.410   .     A
C1126  C1143   1.517   .     S
C1126  C1129   1.410   .     A
C1126  C1272   1.401   .     S
C1127  N1147   1.436   .     S
C1127  C1129   1.407   .     A
C1127  C1269   1.401   .     S
C1128  N1150   1.436   .     S
C1128  C1130   1.407   .     A
C1131  H1133   1.081   .     S
C1132  H1134   1.081   .     S
C1132  C272    1.418   1_556 S
C1135  H1137   1.082   .     S
C1135  C267    1.418   1_556 S
C1136  H1138   1.082   .     S
C1139  H1140   1.111   .     S
C1139  H1141   1.109   .     S
C1139  H1142   1.108   .     S
C1143  H1145   1.108   .     S
C1143  H1146   1.109   .     S
C1143  H1144   1.111   .     S
N1147  O1148   1.301   .     A
N1147  O1149   1.301   .     A
N1150  O1152   1.301   .     A
N1150  O1151   1.301   .     A
O1153  C1157   1.290   .     A
O1153  Cu1165  1.955   .     S
O1154  C1158   1.290   .     A
O1154  Cu1166  1.955   .     S
O1155  Cu1166  1.957   .     S
O1155  C1157   1.288   .     A
O1156  C1158   1.288   .     A
O1156  Cu1165  1.957   .     S
C1157  C1178   1.446   .     S
C1158  C1177   1.445   .     S
O1159  Cu1165  1.956   .     S
O1159  C1163   1.287   .     A
O1160  C1164   1.287   .     A
O1160  Cu1166  1.956   .     S
O1161  Cu1166  1.958   .     S
O1161  C1163   1.289   .     A
O1162  C1164   1.289   .     A
O1162  Cu1165  1.958   .     S
C1163  C1169   1.434   .     S
C1164  C1170   1.434   .     S
Cu1165 Cu1166  2.682   .     S
Cu1165 N1167   2.016   .     S
Cu1166 N1168   2.016   .     S
N1167  C1183   1.368   .     A
N1167  C1180   1.367   .     A
N1168  C1179   1.367   .     A
N1168  C1184   1.368   .     A
C1169  C1266   1.335   1_455 S
C1169  H1267   1.087   1_455 S
C1170  C1217   1.335   .     S
C1170  H1220   1.087   .     S
H1171  C1217   1.087   .     S
H1172  C1266   1.087   1_455 S
C1173  C1187   1.517   .     S
C1173  C1178   1.410   .     A
C1174  C1191   1.517   .     S
C1174  C1177   1.410   .     A
C1174  C888    1.401   1_565 S
C1175  N1195   1.436   .     S
C1175  C1177   1.407   .     A
C1175  C885    1.401   1_565 S
C1176  N1198   1.436   .     S
C1176  C1178   1.407   .     A
C1179  H1181   1.081   .     S
C1180  H1182   1.081   .     S
C1180  C320    1.418   1_556 S
C1183  H1185   1.082   .     S
C1183  C315    1.418   1_556 S
C1184  H1186   1.082   .     S
C1187  H1188   1.111   .     S
C1187  H1189   1.109   .     S
C1187  H1190   1.108   .     S
C1191  H1193   1.108   .     S
C1191  H1194   1.109   .     S
C1191  H1192   1.111   .     S
N1195  O1196   1.301   .     A
N1195  O1197   1.301   .     A
N1198  O1200   1.301   .     A
N1198  O1199   1.301   .     A
O1201  C1205   1.290   .     A
O1201  Cu1213  1.955   .     S
O1202  C1206   1.290   .     A
O1202  Cu1214  1.955   .     S
O1203  Cu1214  1.957   .     S
O1203  C1205   1.288   .     A
O1204  C1206   1.288   .     A
O1204  Cu1213  1.957   .     S
C1205  C1226   1.446   .     S
C1206  C1225   1.445   .     S
O1207  Cu1213  1.956   .     S
O1207  C1211   1.287   .     A
O1208  C1212   1.287   .     A
O1208  Cu1214  1.956   .     S
O1209  Cu1214  1.958   .     S
O1209  C1211   1.289   .     A
O1210  C1212   1.289   .     A
O1210  Cu1213  1.958   .     S
C1211  C1217   1.434   .     S
C1212  C1218   1.434   .     S
Cu1213 Cu1214  2.682   .     S
Cu1213 N1215   2.016   .     S
Cu1214 N1216   2.016   .     S
N1215  C1231   1.368   .     A
N1215  C1228   1.367   .     A
N1216  C1227   1.367   .     A
N1216  C1232   1.368   .     A
C1218  C1265   1.335   .     S
C1218  H1268   1.087   .     S
H1219  C1265   1.087   .     S
C1221  C1235   1.517   .     S
C1221  C1226   1.410   .     A
C1222  C1239   1.517   .     S
C1222  C1225   1.410   .     A
C1222  C936    1.401   1_565 S
C1223  N1243   1.436   .     S
C1223  C1225   1.407   .     A
C1223  C933    1.401   1_565 S
C1224  N1246   1.436   .     S
C1224  C1226   1.407   .     A
C1227  H1229   1.081   .     S
C1228  H1230   1.081   .     S
C1228  C368    1.418   1_556 S
C1231  H1233   1.082   .     S
C1231  C363    1.418   1_556 S
C1232  H1234   1.082   .     S
C1235  H1236   1.111   .     S
C1235  H1237   1.109   .     S
C1235  H1238   1.108   .     S
C1239  H1241   1.108   .     S
C1239  H1242   1.109   .     S
C1239  H1240   1.111   .     S
N1243  O1244   1.301   .     A
N1243  O1245   1.301   .     A
N1246  O1248   1.301   .     A
N1246  O1247   1.301   .     A
O1249  C1253   1.290   .     A
O1249  Cu1261  1.955   .     S
O1250  C1254   1.290   .     A
O1250  Cu1262  1.955   .     S
O1251  Cu1262  1.957   .     S
O1251  C1253   1.288   .     A
O1252  C1254   1.288   .     A
O1252  Cu1261  1.957   .     S
C1253  C1274   1.446   .     S
C1254  C1273   1.445   .     S
O1255  Cu1261  1.956   .     S
O1255  C1259   1.287   .     A
O1256  C1260   1.287   .     A
O1256  Cu1262  1.956   .     S
O1257  Cu1262  1.958   .     S
O1257  C1259   1.289   .     A
O1258  C1260   1.289   .     A
O1258  Cu1261  1.958   .     S
C1259  C1265   1.434   .     S
C1260  C1266   1.434   .     S
Cu1261 Cu1262  2.682   .     S
Cu1261 N1263   2.016   .     S
Cu1262 N1264   2.016   .     S
N1263  C1279   1.368   .     A
N1263  C1276   1.367   .     A
N1264  C1275   1.367   .     A
N1264  C1280   1.368   .     A
C1266  C1169   1.335   1_655 S
C1266  H1172   1.087   1_655 S
H1267  C1169   1.087   1_655 S
C1269  C1283   1.517   .     S
C1269  C1274   1.410   .     A
C1270  C1287   1.517   .     S
C1270  C1273   1.410   .     A
C1270  C984    1.401   1_565 S
C1271  N1291   1.436   .     S
C1271  C1273   1.407   .     A
C1271  C981    1.401   1_565 S
C1272  N1294   1.436   .     S
C1272  C1274   1.407   .     A
C1275  H1277   1.081   .     S
C1276  H1278   1.081   .     S
C1276  C416    1.418   1_556 S
C1279  H1281   1.082   .     S
C1279  C411    1.418   1_556 S
C1280  H1282   1.082   .     S
C1283  H1284   1.111   .     S
C1283  H1285   1.109   .     S
C1283  H1286   1.108   .     S
C1287  H1289   1.108   .     S
C1287  H1290   1.109   .     S
C1287  H1288   1.111   .     S
N1291  O1292   1.301   .     A
N1291  O1293   1.301   .     A
N1294  O1296   1.301   .     A
N1294  O1295   1.301   .     A
