data_str_m2_o1_o1_pcu_sym.73
_audit_creation_date              2020-01-03
_audit_creation_method            'Materials Studio'
_symmetry_space_group_name_H-M    'P1'
_symmetry_Int_Tables_number       1
_symmetry_cell_setting            triclinic
loop_
_symmetry_equiv_pos_as_xyz
  x,y,z
_cell_length_a                    30.5690
_cell_length_b                    30.7878
_cell_length_c                    28.5316
_cell_angle_alpha                 89.5875
_cell_angle_beta                  89.1043
_cell_angle_gamma                 89.4996
loop_
_atom_site_label
_atom_site_type_symbol
_atom_site_fract_x
_atom_site_fract_y
_atom_site_fract_z
_atom_site_U_iso_or_equiv
_atom_site_adp_type
_atom_site_occupancy
C1     C     0.05947   0.19062   0.16662   0.00000  Uiso   1.00
C2     C     0.48521   0.28529   0.30856   0.00000  Uiso   1.00
C3     C     0.48545   0.28540   0.02475   0.00000  Uiso   1.00
C4     C     0.01455   0.21460   0.30859   0.00000  Uiso   1.00
C5     C     0.26481   0.46472   0.02477   0.00000  Uiso   1.00
C6     C     0.23519   0.03528   0.30856   0.00000  Uiso   1.00
C7     C     0.23542   0.03539   0.02475   0.00000  Uiso   1.00
C8     C     0.26458   0.46461   0.30859   0.00000  Uiso   1.00
C9     C     0.40509   0.12782   0.12888   0.00000  Uiso   1.00
C10    C     0.09490   0.37220   0.20445   0.00000  Uiso   1.00
C11    C     0.11830   0.35165   0.12493   0.00000  Uiso   1.00
C12    C     0.44053   0.30938   0.16671   0.00000  Uiso   1.00
C13    C     0.38171   0.14834   0.20841   0.00000  Uiso   1.00
C14    C     0.08220   0.11517   0.18254   0.00000  Uiso   1.00
C15    C     0.41779   0.38482   0.15075   0.00000  Uiso   1.00
C16    C     0.36442   0.33265   0.18188   0.00000  Uiso   1.00
C17    C     0.13559   0.16736   0.15150   0.00000  Uiso   1.00
C18    C     0.15511   0.37780   0.12889   0.00000  Uiso   1.00
C19    C     0.34490   0.12219   0.20446   0.00000  Uiso   1.00
C20    C     0.36827   0.10168   0.12492   0.00000  Uiso   1.00
C21    C     0.13170   0.39834   0.20840   0.00000  Uiso   1.00
C22    C     0.33221   0.36519   0.18258   0.00000  Uiso   1.00
C23    C     0.44205   0.18895   0.16730   0.00000  Uiso   1.00
C24    C     0.16780   0.13483   0.15079   0.00000  Uiso   1.00
C25    C     0.11441   0.08264   0.18183   0.00000  Uiso   1.00
C26    C     0.38558   0.41735   0.15145   0.00000  Uiso   1.00
C27    C     0.09001   0.34615   0.16445   0.00000  Uiso   1.00
C28    C     0.40998   0.15385   0.16889   0.00000  Uiso   1.00
C29    C     0.40708   0.34284   0.16661   0.00000  Uiso   1.00
C30    C     0.09292   0.15716   0.16673   0.00000  Uiso   1.00
C31    C     0.34001   0.09616   0.16445   0.00000  Uiso   1.00
C32    C     0.15999   0.40385   0.16889   0.00000  Uiso   1.00
C33    C     0.15708   0.09284   0.16661   0.00000  Uiso   1.00
C34    C     0.05795   0.31105   0.16603   0.00000  Uiso   1.00
C35    C     0.34292   0.40716   0.16673   0.00000  Uiso   1.00
C36    C     0.30947   0.44062   0.16662   0.00000  Uiso   1.00
C37    C     0.19053   0.05938   0.16671   0.00000  Uiso   1.00
C38    C     0.19205   0.43895   0.16730   0.00000  Uiso   1.00
C39    C     0.30794   0.06105   0.16603   0.00000  Uiso   1.00
C40    C     0.01479   0.21471   0.02477   0.00000  Uiso   1.00
Cu41   Cu    0.00000   0.25000   0.21355   0.00000  Uiso   1.00
Cu42   Cu    0.00000   0.25000   0.11978   0.00000  Uiso   1.00
Cu43   Cu    0.25000  -0.00000   0.21355   0.00000  Uiso   1.00
Cu44   Cu    0.25000  -0.00000   0.11978   0.00000  Uiso   1.00
H45    H     0.02685   0.18642   0.04322   0.00000  Uiso   1.00
H46    H     0.47315   0.31358   0.29012   0.00000  Uiso   1.00
H47    H     0.47408   0.31400   0.04315   0.00000  Uiso   1.00
H48    H     0.02592   0.18599   0.29018   0.00000  Uiso   1.00
H49    H     0.27688   0.43643   0.04322   0.00000  Uiso   1.00
H50    H     0.22311   0.06357   0.29012   0.00000  Uiso   1.00
H51    H     0.22404   0.06399   0.04315   0.00000  Uiso   1.00
H52    H     0.27596   0.43601   0.29019   0.00000  Uiso   1.00
I53    I     0.45780   0.11985   0.07850   0.00000  Uiso   1.00
I54    I     0.29219   0.13014   0.25484   0.00000  Uiso   1.00
I55    I     0.35474   0.07705   0.05582   0.00000  Uiso   1.00
I56    I     0.14520   0.42303   0.27749   0.00000  Uiso   1.00
I57    I     0.26725   0.35118   0.20742   0.00000  Uiso   1.00
I58    I     0.23277   0.14884   0.12600   0.00000  Uiso   1.00
I59    I     0.09810   0.01726   0.20007   0.00000  Uiso   1.00
I60    I     0.40187   0.48272   0.13311   0.00000  Uiso   1.00
I61    I     0.04218   0.38016   0.25481   0.00000  Uiso   1.00
I62    I     0.10480   0.32697   0.05584   0.00000  Uiso   1.00
I63    I     0.39522   0.17301   0.27749   0.00000  Uiso   1.00
I64    I     0.01723   0.10116   0.20732   0.00000  Uiso   1.00
I65    I     0.48275   0.39882   0.12592   0.00000  Uiso   1.00
I66    I     0.34813   0.26730   0.20017   0.00000  Uiso   1.00
I67    I     0.15191   0.23275   0.13328   0.00000  Uiso   1.00
I68    I     0.20783   0.36984   0.07852   0.00000  Uiso   1.00
N69    N     0.00000   0.25000   0.28402   0.00000  Uiso   1.00
N70    N     0.00000   0.25000   0.04931   0.00000  Uiso   1.00
N71    N     0.25000  -0.00000   0.28402   0.00000  Uiso   1.00
N72    N     0.25000  -0.00000   0.04931   0.00000  Uiso   1.00
O73    O     0.04509   0.20491   0.20625   0.00000  Uiso   1.00
O74    O     0.20492   0.04509   0.12709   0.00000  Uiso   1.00
O75    O     0.20492   0.04509   0.20625   0.00000  Uiso   1.00
O76    O     0.29509   0.45491   0.12709   0.00000  Uiso   1.00
O77    O     0.20492   0.45491   0.12709   0.00000  Uiso   1.00
O78    O     0.29509   0.04509   0.20625   0.00000  Uiso   1.00
O79    O     0.29509   0.04509   0.12709   0.00000  Uiso   1.00
O80    O     0.20492   0.45491   0.20625   0.00000  Uiso   1.00
O81    O     0.45492   0.29509   0.12709   0.00000  Uiso   1.00
O82    O     0.45492   0.29509   0.20625   0.00000  Uiso   1.00
O83    O     0.04509   0.20491   0.12709   0.00000  Uiso   1.00
O84    O     0.45492   0.20491   0.12709   0.00000  Uiso   1.00
O85    O     0.04509   0.29509   0.20625   0.00000  Uiso   1.00
O86    O     0.04509   0.29509   0.12709   0.00000  Uiso   1.00
O87    O     0.45492   0.20491   0.20625   0.00000  Uiso   1.00
O88    O     0.29509   0.45491   0.20625   0.00000  Uiso   1.00
C89    C     0.55947   0.19062   0.16662   0.00000  Uiso   1.00
C90    C     0.98521   0.28529   0.30856   0.00000  Uiso   1.00
C91    C     0.98545   0.28540   0.02475   0.00000  Uiso   1.00
C92    C     0.51455   0.21460   0.30859   0.00000  Uiso   1.00
C93    C     0.76481   0.46472   0.02477   0.00000  Uiso   1.00
C94    C     0.73519   0.03528   0.30856   0.00000  Uiso   1.00
C95    C     0.73542   0.03539   0.02475   0.00000  Uiso   1.00
C96    C     0.76458   0.46461   0.30859   0.00000  Uiso   1.00
C97    C     0.90509   0.12782   0.12888   0.00000  Uiso   1.00
C98    C     0.59490   0.37220   0.20445   0.00000  Uiso   1.00
C99    C     0.61830   0.35165   0.12493   0.00000  Uiso   1.00
C100   C     0.94053   0.30938   0.16671   0.00000  Uiso   1.00
C101   C     0.88171   0.14834   0.20841   0.00000  Uiso   1.00
C102   C     0.58220   0.11517   0.18254   0.00000  Uiso   1.00
C103   C     0.91779   0.38482   0.15075   0.00000  Uiso   1.00
C104   C     0.86442   0.33265   0.18188   0.00000  Uiso   1.00
C105   C     0.63559   0.16736   0.15150   0.00000  Uiso   1.00
C106   C     0.65511   0.37780   0.12889   0.00000  Uiso   1.00
C107   C     0.84490   0.12219   0.20446   0.00000  Uiso   1.00
C108   C     0.86827   0.10168   0.12492   0.00000  Uiso   1.00
C109   C     0.63170   0.39834   0.20840   0.00000  Uiso   1.00
C110   C     0.83221   0.36519   0.18258   0.00000  Uiso   1.00
C111   C     0.94205   0.18895   0.16730   0.00000  Uiso   1.00
C112   C     0.66780   0.13483   0.15079   0.00000  Uiso   1.00
C113   C     0.61441   0.08264   0.18183   0.00000  Uiso   1.00
C114   C     0.88558   0.41735   0.15145   0.00000  Uiso   1.00
C115   C     0.59001   0.34615   0.16445   0.00000  Uiso   1.00
C116   C     0.90998   0.15385   0.16889   0.00000  Uiso   1.00
C117   C     0.90708   0.34284   0.16661   0.00000  Uiso   1.00
C118   C     0.59292   0.15716   0.16673   0.00000  Uiso   1.00
C119   C     0.84001   0.09616   0.16445   0.00000  Uiso   1.00
C120   C     0.65999   0.40385   0.16889   0.00000  Uiso   1.00
C121   C     0.65708   0.09284   0.16661   0.00000  Uiso   1.00
C122   C     0.55795   0.31105   0.16603   0.00000  Uiso   1.00
C123   C     0.84292   0.40716   0.16673   0.00000  Uiso   1.00
C124   C     0.80947   0.44062   0.16662   0.00000  Uiso   1.00
C125   C     0.69053   0.05938   0.16671   0.00000  Uiso   1.00
C126   C     0.69205   0.43895   0.16730   0.00000  Uiso   1.00
C127   C     0.80794   0.06105   0.16603   0.00000  Uiso   1.00
C128   C     0.51479   0.21471   0.02477   0.00000  Uiso   1.00
Cu129  Cu    0.50000   0.25000   0.21355   0.00000  Uiso   1.00
Cu130  Cu    0.50000   0.25000   0.11978   0.00000  Uiso   1.00
Cu131  Cu    0.75000  -0.00000   0.21355   0.00000  Uiso   1.00
Cu132  Cu    0.75000  -0.00000   0.11978   0.00000  Uiso   1.00
H133   H     0.52685   0.18642   0.04322   0.00000  Uiso   1.00
H134   H     0.97315   0.31358   0.29012   0.00000  Uiso   1.00
H135   H     0.97408   0.31400   0.04315   0.00000  Uiso   1.00
H136   H     0.52592   0.18599   0.29018   0.00000  Uiso   1.00
H137   H     0.77688   0.43643   0.04322   0.00000  Uiso   1.00
H138   H     0.72311   0.06357   0.29012   0.00000  Uiso   1.00
H139   H     0.72404   0.06399   0.04315   0.00000  Uiso   1.00
H140   H     0.77596   0.43601   0.29019   0.00000  Uiso   1.00
I141   I     0.95780   0.11985   0.07850   0.00000  Uiso   1.00
I142   I     0.79219   0.13014   0.25484   0.00000  Uiso   1.00
I143   I     0.85474   0.07705   0.05582   0.00000  Uiso   1.00
I144   I     0.64520   0.42303   0.27749   0.00000  Uiso   1.00
I145   I     0.76725   0.35118   0.20742   0.00000  Uiso   1.00
I146   I     0.73277   0.14884   0.12600   0.00000  Uiso   1.00
I147   I     0.59810   0.01726   0.20007   0.00000  Uiso   1.00
I148   I     0.90187   0.48272   0.13311   0.00000  Uiso   1.00
I149   I     0.54218   0.38016   0.25481   0.00000  Uiso   1.00
I150   I     0.60480   0.32697   0.05584   0.00000  Uiso   1.00
I151   I     0.89522   0.17301   0.27749   0.00000  Uiso   1.00
I152   I     0.51723   0.10116   0.20732   0.00000  Uiso   1.00
I153   I     0.98275   0.39882   0.12592   0.00000  Uiso   1.00
I154   I     0.84813   0.26730   0.20017   0.00000  Uiso   1.00
I155   I     0.65191   0.23275   0.13328   0.00000  Uiso   1.00
I156   I     0.70783   0.36984   0.07852   0.00000  Uiso   1.00
N157   N     0.50000   0.25000   0.28402   0.00000  Uiso   1.00
N158   N     0.50000   0.25000   0.04931   0.00000  Uiso   1.00
N159   N     0.75000  -0.00000   0.28402   0.00000  Uiso   1.00
N160   N     0.75000  -0.00000   0.04931   0.00000  Uiso   1.00
O161   O     0.54509   0.20491   0.20625   0.00000  Uiso   1.00
O162   O     0.70492   0.04509   0.12709   0.00000  Uiso   1.00
O163   O     0.70492   0.04509   0.20625   0.00000  Uiso   1.00
O164   O     0.79509   0.45491   0.12709   0.00000  Uiso   1.00
O165   O     0.70492   0.45491   0.12709   0.00000  Uiso   1.00
O166   O     0.79509   0.04509   0.20625   0.00000  Uiso   1.00
O167   O     0.79509   0.04509   0.12709   0.00000  Uiso   1.00
O168   O     0.70492   0.45491   0.20625   0.00000  Uiso   1.00
O169   O     0.95492   0.29509   0.12709   0.00000  Uiso   1.00
O170   O     0.95492   0.29509   0.20625   0.00000  Uiso   1.00
O171   O     0.54509   0.20491   0.12709   0.00000  Uiso   1.00
O172   O     0.95492   0.20491   0.12709   0.00000  Uiso   1.00
O173   O     0.54509   0.29509   0.20625   0.00000  Uiso   1.00
O174   O     0.54509   0.29509   0.12709   0.00000  Uiso   1.00
O175   O     0.95492   0.20491   0.20625   0.00000  Uiso   1.00
O176   O     0.79509   0.45491   0.20625   0.00000  Uiso   1.00
C177   C     0.05947   0.69062   0.16662   0.00000  Uiso   1.00
C178   C     0.48521   0.78529   0.30856   0.00000  Uiso   1.00
C179   C     0.48545   0.78540   0.02475   0.00000  Uiso   1.00
C180   C     0.01455   0.71460   0.30859   0.00000  Uiso   1.00
C181   C     0.26481   0.96472   0.02477   0.00000  Uiso   1.00
C182   C     0.23519   0.53528   0.30856   0.00000  Uiso   1.00
C183   C     0.23542   0.53539   0.02475   0.00000  Uiso   1.00
C184   C     0.26458   0.96461   0.30859   0.00000  Uiso   1.00
C185   C     0.40509   0.62782   0.12888   0.00000  Uiso   1.00
C186   C     0.09490   0.87220   0.20445   0.00000  Uiso   1.00
C187   C     0.11830   0.85165   0.12493   0.00000  Uiso   1.00
C188   C     0.44053   0.80938   0.16671   0.00000  Uiso   1.00
C189   C     0.38171   0.64834   0.20841   0.00000  Uiso   1.00
C190   C     0.08220   0.61517   0.18254   0.00000  Uiso   1.00
C191   C     0.41779   0.88482   0.15075   0.00000  Uiso   1.00
C192   C     0.36442   0.83265   0.18188   0.00000  Uiso   1.00
C193   C     0.13559   0.66736   0.15150   0.00000  Uiso   1.00
C194   C     0.15511   0.87780   0.12889   0.00000  Uiso   1.00
C195   C     0.34490   0.62219   0.20446   0.00000  Uiso   1.00
C196   C     0.36827   0.60168   0.12492   0.00000  Uiso   1.00
C197   C     0.13170   0.89834   0.20840   0.00000  Uiso   1.00
C198   C     0.33221   0.86519   0.18258   0.00000  Uiso   1.00
C199   C     0.44205   0.68895   0.16730   0.00000  Uiso   1.00
C200   C     0.16780   0.63483   0.15079   0.00000  Uiso   1.00
C201   C     0.11441   0.58264   0.18183   0.00000  Uiso   1.00
C202   C     0.38558   0.91735   0.15145   0.00000  Uiso   1.00
C203   C     0.09001   0.84615   0.16445   0.00000  Uiso   1.00
C204   C     0.40998   0.65385   0.16889   0.00000  Uiso   1.00
C205   C     0.40708   0.84284   0.16661   0.00000  Uiso   1.00
C206   C     0.09292   0.65716   0.16673   0.00000  Uiso   1.00
C207   C     0.34001   0.59616   0.16445   0.00000  Uiso   1.00
C208   C     0.15999   0.90385   0.16889   0.00000  Uiso   1.00
C209   C     0.15708   0.59284   0.16661   0.00000  Uiso   1.00
C210   C     0.05795   0.81105   0.16603   0.00000  Uiso   1.00
C211   C     0.34292   0.90716   0.16673   0.00000  Uiso   1.00
C212   C     0.30947   0.94062   0.16662   0.00000  Uiso   1.00
C213   C     0.19053   0.55938   0.16671   0.00000  Uiso   1.00
C214   C     0.19205   0.93895   0.16730   0.00000  Uiso   1.00
C215   C     0.30794   0.56105   0.16603   0.00000  Uiso   1.00
C216   C     0.01479   0.71471   0.02477   0.00000  Uiso   1.00
Cu217  Cu    0.00000   0.75000   0.21355   0.00000  Uiso   1.00
Cu218  Cu    0.00000   0.75000   0.11978   0.00000  Uiso   1.00
Cu219  Cu    0.25000   0.50000   0.21355   0.00000  Uiso   1.00
Cu220  Cu    0.25000   0.50000   0.11978   0.00000  Uiso   1.00
H221   H     0.02685   0.68642   0.04322   0.00000  Uiso   1.00
H222   H     0.47315   0.81358   0.29012   0.00000  Uiso   1.00
H223   H     0.47408   0.81400   0.04315   0.00000  Uiso   1.00
H224   H     0.02592   0.68599   0.29018   0.00000  Uiso   1.00
H225   H     0.27688   0.93643   0.04322   0.00000  Uiso   1.00
H226   H     0.22311   0.56357   0.29012   0.00000  Uiso   1.00
H227   H     0.22404   0.56399   0.04315   0.00000  Uiso   1.00
H228   H     0.27596   0.93601   0.29019   0.00000  Uiso   1.00
I229   I     0.45780   0.61985   0.07850   0.00000  Uiso   1.00
I230   I     0.29219   0.63014   0.25484   0.00000  Uiso   1.00
I231   I     0.35474   0.57705   0.05582   0.00000  Uiso   1.00
I232   I     0.14520   0.92303   0.27749   0.00000  Uiso   1.00
I233   I     0.26725   0.85118   0.20742   0.00000  Uiso   1.00
I234   I     0.23277   0.64884   0.12600   0.00000  Uiso   1.00
I235   I     0.09810   0.51726   0.20007   0.00000  Uiso   1.00
I236   I     0.40187   0.98272   0.13311   0.00000  Uiso   1.00
I237   I     0.04218   0.88016   0.25481   0.00000  Uiso   1.00
I238   I     0.10480   0.82697   0.05584   0.00000  Uiso   1.00
I239   I     0.39522   0.67301   0.27749   0.00000  Uiso   1.00
I240   I     0.01723   0.60116   0.20732   0.00000  Uiso   1.00
I241   I     0.48275   0.89882   0.12592   0.00000  Uiso   1.00
I242   I     0.34813   0.76730   0.20017   0.00000  Uiso   1.00
I243   I     0.15191   0.73275   0.13328   0.00000  Uiso   1.00
I244   I     0.20783   0.86984   0.07852   0.00000  Uiso   1.00
N245   N     0.00000   0.75000   0.28402   0.00000  Uiso   1.00
N246   N     0.00000   0.75000   0.04931   0.00000  Uiso   1.00
N247   N     0.25000   0.50000   0.28402   0.00000  Uiso   1.00
N248   N     0.25000   0.50000   0.04931   0.00000  Uiso   1.00
O249   O     0.04509   0.70491   0.20625   0.00000  Uiso   1.00
O250   O     0.20492   0.54509   0.12709   0.00000  Uiso   1.00
O251   O     0.20492   0.54509   0.20625   0.00000  Uiso   1.00
O252   O     0.29509   0.95491   0.12709   0.00000  Uiso   1.00
O253   O     0.20492   0.95491   0.12709   0.00000  Uiso   1.00
O254   O     0.29509   0.54509   0.20625   0.00000  Uiso   1.00
O255   O     0.29509   0.54509   0.12709   0.00000  Uiso   1.00
O256   O     0.20492   0.95491   0.20625   0.00000  Uiso   1.00
O257   O     0.45492   0.79509   0.12709   0.00000  Uiso   1.00
O258   O     0.45492   0.79509   0.20625   0.00000  Uiso   1.00
O259   O     0.04509   0.70491   0.12709   0.00000  Uiso   1.00
O260   O     0.45492   0.70491   0.12709   0.00000  Uiso   1.00
O261   O     0.04509   0.79509   0.20625   0.00000  Uiso   1.00
O262   O     0.04509   0.79509   0.12709   0.00000  Uiso   1.00
O263   O     0.45492   0.70491   0.20625   0.00000  Uiso   1.00
O264   O     0.29509   0.95491   0.20625   0.00000  Uiso   1.00
C265   C     0.55947   0.69062   0.16662   0.00000  Uiso   1.00
C266   C     0.98521   0.78529   0.30856   0.00000  Uiso   1.00
C267   C     0.98545   0.78540   0.02475   0.00000  Uiso   1.00
C268   C     0.51455   0.71460   0.30859   0.00000  Uiso   1.00
C269   C     0.76481   0.96472   0.02477   0.00000  Uiso   1.00
C270   C     0.73519   0.53528   0.30856   0.00000  Uiso   1.00
C271   C     0.73542   0.53539   0.02475   0.00000  Uiso   1.00
C272   C     0.76458   0.96461   0.30859   0.00000  Uiso   1.00
C273   C     0.90509   0.62782   0.12888   0.00000  Uiso   1.00
C274   C     0.59490   0.87220   0.20445   0.00000  Uiso   1.00
C275   C     0.61830   0.85165   0.12493   0.00000  Uiso   1.00
C276   C     0.94053   0.80938   0.16671   0.00000  Uiso   1.00
C277   C     0.88171   0.64834   0.20841   0.00000  Uiso   1.00
C278   C     0.58220   0.61517   0.18254   0.00000  Uiso   1.00
C279   C     0.91779   0.88482   0.15075   0.00000  Uiso   1.00
C280   C     0.86442   0.83265   0.18188   0.00000  Uiso   1.00
C281   C     0.63559   0.66736   0.15150   0.00000  Uiso   1.00
C282   C     0.65511   0.87780   0.12889   0.00000  Uiso   1.00
C283   C     0.84490   0.62219   0.20446   0.00000  Uiso   1.00
C284   C     0.86827   0.60168   0.12492   0.00000  Uiso   1.00
C285   C     0.63170   0.89834   0.20840   0.00000  Uiso   1.00
C286   C     0.83221   0.86519   0.18258   0.00000  Uiso   1.00
C287   C     0.94205   0.68895   0.16730   0.00000  Uiso   1.00
C288   C     0.66780   0.63483   0.15079   0.00000  Uiso   1.00
C289   C     0.61441   0.58264   0.18183   0.00000  Uiso   1.00
C290   C     0.88558   0.91735   0.15145   0.00000  Uiso   1.00
C291   C     0.59001   0.84615   0.16445   0.00000  Uiso   1.00
C292   C     0.90998   0.65385   0.16889   0.00000  Uiso   1.00
C293   C     0.90708   0.84284   0.16661   0.00000  Uiso   1.00
C294   C     0.59292   0.65716   0.16673   0.00000  Uiso   1.00
C295   C     0.84001   0.59616   0.16445   0.00000  Uiso   1.00
C296   C     0.65999   0.90385   0.16889   0.00000  Uiso   1.00
C297   C     0.65708   0.59284   0.16661   0.00000  Uiso   1.00
C298   C     0.55795   0.81105   0.16603   0.00000  Uiso   1.00
C299   C     0.84292   0.90716   0.16673   0.00000  Uiso   1.00
C300   C     0.80947   0.94062   0.16662   0.00000  Uiso   1.00
C301   C     0.69053   0.55938   0.16671   0.00000  Uiso   1.00
C302   C     0.69205   0.93895   0.16730   0.00000  Uiso   1.00
C303   C     0.80794   0.56105   0.16603   0.00000  Uiso   1.00
C304   C     0.51479   0.71471   0.02477   0.00000  Uiso   1.00
Cu305  Cu    0.50000   0.75000   0.21355   0.00000  Uiso   1.00
Cu306  Cu    0.50000   0.75000   0.11978   0.00000  Uiso   1.00
Cu307  Cu    0.75000   0.50000   0.21355   0.00000  Uiso   1.00
Cu308  Cu    0.75000   0.50000   0.11978   0.00000  Uiso   1.00
H309   H     0.52685   0.68642   0.04322   0.00000  Uiso   1.00
H310   H     0.97315   0.81358   0.29012   0.00000  Uiso   1.00
H311   H     0.97408   0.81400   0.04315   0.00000  Uiso   1.00
H312   H     0.52592   0.68599   0.29018   0.00000  Uiso   1.00
H313   H     0.77688   0.93643   0.04322   0.00000  Uiso   1.00
H314   H     0.72311   0.56357   0.29012   0.00000  Uiso   1.00
H315   H     0.72404   0.56399   0.04315   0.00000  Uiso   1.00
H316   H     0.77596   0.93601   0.29019   0.00000  Uiso   1.00
I317   I     0.95780   0.61985   0.07850   0.00000  Uiso   1.00
I318   I     0.79219   0.63014   0.25484   0.00000  Uiso   1.00
I319   I     0.85474   0.57705   0.05582   0.00000  Uiso   1.00
I320   I     0.64520   0.92303   0.27749   0.00000  Uiso   1.00
I321   I     0.76725   0.85118   0.20742   0.00000  Uiso   1.00
I322   I     0.73277   0.64884   0.12600   0.00000  Uiso   1.00
I323   I     0.59810   0.51726   0.20007   0.00000  Uiso   1.00
I324   I     0.90187   0.98272   0.13311   0.00000  Uiso   1.00
I325   I     0.54218   0.88016   0.25481   0.00000  Uiso   1.00
I326   I     0.60480   0.82697   0.05584   0.00000  Uiso   1.00
I327   I     0.89522   0.67301   0.27749   0.00000  Uiso   1.00
I328   I     0.51723   0.60116   0.20732   0.00000  Uiso   1.00
I329   I     0.98275   0.89882   0.12592   0.00000  Uiso   1.00
I330   I     0.84813   0.76730   0.20017   0.00000  Uiso   1.00
I331   I     0.65191   0.73275   0.13328   0.00000  Uiso   1.00
I332   I     0.70783   0.86984   0.07852   0.00000  Uiso   1.00
N333   N     0.50000   0.75000   0.28402   0.00000  Uiso   1.00
N334   N     0.50000   0.75000   0.04931   0.00000  Uiso   1.00
N335   N     0.75000   0.50000   0.28402   0.00000  Uiso   1.00
N336   N     0.75000   0.50000   0.04931   0.00000  Uiso   1.00
O337   O     0.54509   0.70491   0.20625   0.00000  Uiso   1.00
O338   O     0.70492   0.54509   0.12709   0.00000  Uiso   1.00
O339   O     0.70492   0.54509   0.20625   0.00000  Uiso   1.00
O340   O     0.79509   0.95491   0.12709   0.00000  Uiso   1.00
O341   O     0.70492   0.95491   0.12709   0.00000  Uiso   1.00
O342   O     0.79509   0.54509   0.20625   0.00000  Uiso   1.00
O343   O     0.79509   0.54509   0.12709   0.00000  Uiso   1.00
O344   O     0.70492   0.95491   0.20625   0.00000  Uiso   1.00
O345   O     0.95492   0.79509   0.12709   0.00000  Uiso   1.00
O346   O     0.95492   0.79509   0.20625   0.00000  Uiso   1.00
O347   O     0.54509   0.70491   0.12709   0.00000  Uiso   1.00
O348   O     0.95492   0.70491   0.12709   0.00000  Uiso   1.00
O349   O     0.54509   0.79509   0.20625   0.00000  Uiso   1.00
O350   O     0.54509   0.79509   0.12709   0.00000  Uiso   1.00
O351   O     0.95492   0.70491   0.20625   0.00000  Uiso   1.00
O352   O     0.79509   0.95491   0.20625   0.00000  Uiso   1.00
C353   C     0.05947   0.19062   0.49995   0.00000  Uiso   1.00
C354   C     0.48521   0.28529   0.64189   0.00000  Uiso   1.00
C355   C     0.48545   0.28540   0.35808   0.00000  Uiso   1.00
C356   C     0.01455   0.21460   0.64192   0.00000  Uiso   1.00
C357   C     0.26481   0.46472   0.35811   0.00000  Uiso   1.00
C358   C     0.23519   0.03528   0.64189   0.00000  Uiso   1.00
C359   C     0.23542   0.03539   0.35808   0.00000  Uiso   1.00
C360   C     0.26458   0.46461   0.64192   0.00000  Uiso   1.00
C361   C     0.40509   0.12782   0.46221   0.00000  Uiso   1.00
C362   C     0.09490   0.37220   0.53778   0.00000  Uiso   1.00
C363   C     0.11830   0.35165   0.45826   0.00000  Uiso   1.00
C364   C     0.44053   0.30938   0.50005   0.00000  Uiso   1.00
C365   C     0.38171   0.14834   0.54174   0.00000  Uiso   1.00
C366   C     0.08220   0.11517   0.51587   0.00000  Uiso   1.00
C367   C     0.41779   0.38482   0.48409   0.00000  Uiso   1.00
C368   C     0.36442   0.33265   0.51521   0.00000  Uiso   1.00
C369   C     0.13559   0.16736   0.48483   0.00000  Uiso   1.00
C370   C     0.15511   0.37780   0.46222   0.00000  Uiso   1.00
C371   C     0.34490   0.12219   0.53779   0.00000  Uiso   1.00
C372   C     0.36827   0.10168   0.45826   0.00000  Uiso   1.00
C373   C     0.13170   0.39834   0.54174   0.00000  Uiso   1.00
C374   C     0.33221   0.36519   0.51591   0.00000  Uiso   1.00
C375   C     0.44205   0.18895   0.50064   0.00000  Uiso   1.00
C376   C     0.16780   0.13483   0.48413   0.00000  Uiso   1.00
C377   C     0.11441   0.08264   0.51517   0.00000  Uiso   1.00
C378   C     0.38558   0.41735   0.48478   0.00000  Uiso   1.00
C379   C     0.09001   0.34615   0.49778   0.00000  Uiso   1.00
C380   C     0.40998   0.15385   0.50222   0.00000  Uiso   1.00
C381   C     0.40708   0.34284   0.49994   0.00000  Uiso   1.00
C382   C     0.09292   0.15716   0.50006   0.00000  Uiso   1.00
C383   C     0.34001   0.09616   0.49778   0.00000  Uiso   1.00
C384   C     0.15999   0.40385   0.50222   0.00000  Uiso   1.00
C385   C     0.15708   0.09284   0.49994   0.00000  Uiso   1.00
C386   C     0.05795   0.31105   0.49936   0.00000  Uiso   1.00
C387   C     0.34292   0.40716   0.50006   0.00000  Uiso   1.00
C388   C     0.30947   0.44062   0.49995   0.00000  Uiso   1.00
C389   C     0.19053   0.05938   0.50005   0.00000  Uiso   1.00
C390   C     0.19205   0.43895   0.50064   0.00000  Uiso   1.00
C391   C     0.30794   0.06105   0.49936   0.00000  Uiso   1.00
C392   C     0.01479   0.21471   0.35811   0.00000  Uiso   1.00
Cu393  Cu    0.00000   0.25000   0.54689   0.00000  Uiso   1.00
Cu394  Cu    0.00000   0.25000   0.45311   0.00000  Uiso   1.00
Cu395  Cu    0.25000  -0.00000   0.54689   0.00000  Uiso   1.00
Cu396  Cu    0.25000  -0.00000   0.45311   0.00000  Uiso   1.00
H397   H     0.02685   0.18642   0.37655   0.00000  Uiso   1.00
H398   H     0.47315   0.31358   0.62345   0.00000  Uiso   1.00
H399   H     0.47408   0.31400   0.37648   0.00000  Uiso   1.00
H400   H     0.02592   0.18599   0.62352   0.00000  Uiso   1.00
H401   H     0.27688   0.43643   0.37655   0.00000  Uiso   1.00
H402   H     0.22311   0.06357   0.62345   0.00000  Uiso   1.00
H403   H     0.22404   0.06399   0.37648   0.00000  Uiso   1.00
H404   H     0.27596   0.43601   0.62352   0.00000  Uiso   1.00
I405   I     0.45780   0.11985   0.41183   0.00000  Uiso   1.00
I406   I     0.29219   0.13014   0.58818   0.00000  Uiso   1.00
I407   I     0.35474   0.07705   0.38915   0.00000  Uiso   1.00
I408   I     0.14520   0.42303   0.61082   0.00000  Uiso   1.00
I409   I     0.26725   0.35118   0.54075   0.00000  Uiso   1.00
I410   I     0.23277   0.14884   0.45933   0.00000  Uiso   1.00
I411   I     0.09810   0.01726   0.53340   0.00000  Uiso   1.00
I412   I     0.40187   0.48272   0.46644   0.00000  Uiso   1.00
I413   I     0.04218   0.38016   0.58815   0.00000  Uiso   1.00
I414   I     0.10480   0.32697   0.38918   0.00000  Uiso   1.00
I415   I     0.39522   0.17301   0.61083   0.00000  Uiso   1.00
I416   I     0.01723   0.10116   0.54066   0.00000  Uiso   1.00
I417   I     0.48275   0.39882   0.45925   0.00000  Uiso   1.00
I418   I     0.34813   0.26730   0.53350   0.00000  Uiso   1.00
I419   I     0.15191   0.23275   0.46661   0.00000  Uiso   1.00
I420   I     0.20783   0.36984   0.41186   0.00000  Uiso   1.00
N421   N     0.00000   0.25000   0.61736   0.00000  Uiso   1.00
N422   N     0.00000   0.25000   0.38264   0.00000  Uiso   1.00
N423   N     0.25000  -0.00000   0.61736   0.00000  Uiso   1.00
N424   N     0.25000  -0.00000   0.38264   0.00000  Uiso   1.00
O425   O     0.04509   0.20491   0.53958   0.00000  Uiso   1.00
O426   O     0.20492   0.04509   0.46042   0.00000  Uiso   1.00
O427   O     0.20492   0.04509   0.53958   0.00000  Uiso   1.00
O428   O     0.29509   0.45491   0.46042   0.00000  Uiso   1.00
O429   O     0.20492   0.45491   0.46042   0.00000  Uiso   1.00
O430   O     0.29509   0.04509   0.53958   0.00000  Uiso   1.00
O431   O     0.29509   0.04509   0.46042   0.00000  Uiso   1.00
O432   O     0.20492   0.45491   0.53958   0.00000  Uiso   1.00
O433   O     0.45492   0.29509   0.46042   0.00000  Uiso   1.00
O434   O     0.45492   0.29509   0.53958   0.00000  Uiso   1.00
O435   O     0.04509   0.20491   0.46042   0.00000  Uiso   1.00
O436   O     0.45492   0.20491   0.46042   0.00000  Uiso   1.00
O437   O     0.04509   0.29509   0.53958   0.00000  Uiso   1.00
O438   O     0.04509   0.29509   0.46042   0.00000  Uiso   1.00
O439   O     0.45492   0.20491   0.53958   0.00000  Uiso   1.00
O440   O     0.29509   0.45491   0.53958   0.00000  Uiso   1.00
C441   C     0.55947   0.19062   0.49995   0.00000  Uiso   1.00
C442   C     0.98521   0.28529   0.64189   0.00000  Uiso   1.00
C443   C     0.98545   0.28540   0.35808   0.00000  Uiso   1.00
C444   C     0.51455   0.21460   0.64192   0.00000  Uiso   1.00
C445   C     0.76481   0.46472   0.35811   0.00000  Uiso   1.00
C446   C     0.73519   0.03528   0.64189   0.00000  Uiso   1.00
C447   C     0.73542   0.03539   0.35808   0.00000  Uiso   1.00
C448   C     0.76458   0.46461   0.64192   0.00000  Uiso   1.00
C449   C     0.90509   0.12782   0.46221   0.00000  Uiso   1.00
C450   C     0.59490   0.37220   0.53778   0.00000  Uiso   1.00
C451   C     0.61830   0.35165   0.45826   0.00000  Uiso   1.00
C452   C     0.94053   0.30938   0.50005   0.00000  Uiso   1.00
C453   C     0.88171   0.14834   0.54174   0.00000  Uiso   1.00
C454   C     0.58220   0.11517   0.51587   0.00000  Uiso   1.00
C455   C     0.91779   0.38482   0.48409   0.00000  Uiso   1.00
C456   C     0.86442   0.33265   0.51521   0.00000  Uiso   1.00
C457   C     0.63559   0.16736   0.48483   0.00000  Uiso   1.00
C458   C     0.65511   0.37780   0.46222   0.00000  Uiso   1.00
C459   C     0.84490   0.12219   0.53779   0.00000  Uiso   1.00
C460   C     0.86827   0.10168   0.45826   0.00000  Uiso   1.00
C461   C     0.63170   0.39834   0.54174   0.00000  Uiso   1.00
C462   C     0.83221   0.36519   0.51591   0.00000  Uiso   1.00
C463   C     0.94205   0.18895   0.50064   0.00000  Uiso   1.00
C464   C     0.66780   0.13483   0.48413   0.00000  Uiso   1.00
C465   C     0.61441   0.08264   0.51517   0.00000  Uiso   1.00
C466   C     0.88558   0.41735   0.48478   0.00000  Uiso   1.00
C467   C     0.59001   0.34615   0.49778   0.00000  Uiso   1.00
C468   C     0.90998   0.15385   0.50222   0.00000  Uiso   1.00
C469   C     0.90708   0.34284   0.49994   0.00000  Uiso   1.00
C470   C     0.59292   0.15716   0.50006   0.00000  Uiso   1.00
C471   C     0.84001   0.09616   0.49778   0.00000  Uiso   1.00
C472   C     0.65999   0.40385   0.50222   0.00000  Uiso   1.00
C473   C     0.65708   0.09284   0.49994   0.00000  Uiso   1.00
C474   C     0.55795   0.31105   0.49936   0.00000  Uiso   1.00
C475   C     0.84292   0.40716   0.50006   0.00000  Uiso   1.00
C476   C     0.80947   0.44062   0.49995   0.00000  Uiso   1.00
C477   C     0.69053   0.05938   0.50005   0.00000  Uiso   1.00
C478   C     0.69205   0.43895   0.50064   0.00000  Uiso   1.00
C479   C     0.80794   0.06105   0.49936   0.00000  Uiso   1.00
C480   C     0.51479   0.21471   0.35811   0.00000  Uiso   1.00
Cu481  Cu    0.50000   0.25000   0.54689   0.00000  Uiso   1.00
Cu482  Cu    0.50000   0.25000   0.45311   0.00000  Uiso   1.00
Cu483  Cu    0.75000  -0.00000   0.54689   0.00000  Uiso   1.00
Cu484  Cu    0.75000  -0.00000   0.45311   0.00000  Uiso   1.00
H485   H     0.52685   0.18642   0.37655   0.00000  Uiso   1.00
H486   H     0.97315   0.31358   0.62345   0.00000  Uiso   1.00
H487   H     0.97408   0.31400   0.37648   0.00000  Uiso   1.00
H488   H     0.52592   0.18599   0.62352   0.00000  Uiso   1.00
H489   H     0.77688   0.43643   0.37655   0.00000  Uiso   1.00
H490   H     0.72311   0.06357   0.62345   0.00000  Uiso   1.00
H491   H     0.72404   0.06399   0.37648   0.00000  Uiso   1.00
H492   H     0.77596   0.43601   0.62352   0.00000  Uiso   1.00
I493   I     0.95780   0.11985   0.41183   0.00000  Uiso   1.00
I494   I     0.79219   0.13014   0.58818   0.00000  Uiso   1.00
I495   I     0.85474   0.07705   0.38915   0.00000  Uiso   1.00
I496   I     0.64520   0.42303   0.61082   0.00000  Uiso   1.00
I497   I     0.76725   0.35118   0.54075   0.00000  Uiso   1.00
I498   I     0.73277   0.14884   0.45933   0.00000  Uiso   1.00
I499   I     0.59810   0.01726   0.53340   0.00000  Uiso   1.00
I500   I     0.90187   0.48272   0.46644   0.00000  Uiso   1.00
I501   I     0.54218   0.38016   0.58815   0.00000  Uiso   1.00
I502   I     0.60480   0.32697   0.38918   0.00000  Uiso   1.00
I503   I     0.89522   0.17301   0.61083   0.00000  Uiso   1.00
I504   I     0.51723   0.10116   0.54066   0.00000  Uiso   1.00
I505   I     0.98275   0.39882   0.45925   0.00000  Uiso   1.00
I506   I     0.84813   0.26730   0.53350   0.00000  Uiso   1.00
I507   I     0.65191   0.23275   0.46661   0.00000  Uiso   1.00
I508   I     0.70783   0.36984   0.41186   0.00000  Uiso   1.00
N509   N     0.50000   0.25000   0.61736   0.00000  Uiso   1.00
N510   N     0.50000   0.25000   0.38264   0.00000  Uiso   1.00
N511   N     0.75000  -0.00000   0.61736   0.00000  Uiso   1.00
N512   N     0.75000  -0.00000   0.38264   0.00000  Uiso   1.00
O513   O     0.54509   0.20491   0.53958   0.00000  Uiso   1.00
O514   O     0.70492   0.04509   0.46042   0.00000  Uiso   1.00
O515   O     0.70492   0.04509   0.53958   0.00000  Uiso   1.00
O516   O     0.79509   0.45491   0.46042   0.00000  Uiso   1.00
O517   O     0.70492   0.45491   0.46042   0.00000  Uiso   1.00
O518   O     0.79509   0.04509   0.53958   0.00000  Uiso   1.00
O519   O     0.79509   0.04509   0.46042   0.00000  Uiso   1.00
O520   O     0.70492   0.45491   0.53958   0.00000  Uiso   1.00
O521   O     0.95492   0.29509   0.46042   0.00000  Uiso   1.00
O522   O     0.95492   0.29509   0.53958   0.00000  Uiso   1.00
O523   O     0.54509   0.20491   0.46042   0.00000  Uiso   1.00
O524   O     0.95492   0.20491   0.46042   0.00000  Uiso   1.00
O525   O     0.54509   0.29509   0.53958   0.00000  Uiso   1.00
O526   O     0.54509   0.29509   0.46042   0.00000  Uiso   1.00
O527   O     0.95492   0.20491   0.53958   0.00000  Uiso   1.00
O528   O     0.79509   0.45491   0.53958   0.00000  Uiso   1.00
C529   C     0.05947   0.69062   0.49995   0.00000  Uiso   1.00
C530   C     0.48521   0.78529   0.64189   0.00000  Uiso   1.00
C531   C     0.48545   0.78540   0.35808   0.00000  Uiso   1.00
C532   C     0.01455   0.71460   0.64192   0.00000  Uiso   1.00
C533   C     0.26481   0.96472   0.35811   0.00000  Uiso   1.00
C534   C     0.23519   0.53528   0.64189   0.00000  Uiso   1.00
C535   C     0.23542   0.53539   0.35808   0.00000  Uiso   1.00
C536   C     0.26458   0.96461   0.64192   0.00000  Uiso   1.00
C537   C     0.40509   0.62782   0.46221   0.00000  Uiso   1.00
C538   C     0.09490   0.87220   0.53778   0.00000  Uiso   1.00
C539   C     0.11830   0.85165   0.45826   0.00000  Uiso   1.00
C540   C     0.44053   0.80938   0.50005   0.00000  Uiso   1.00
C541   C     0.38171   0.64834   0.54174   0.00000  Uiso   1.00
C542   C     0.08220   0.61517   0.51587   0.00000  Uiso   1.00
C543   C     0.41779   0.88482   0.48409   0.00000  Uiso   1.00
C544   C     0.36442   0.83265   0.51521   0.00000  Uiso   1.00
C545   C     0.13559   0.66736   0.48483   0.00000  Uiso   1.00
C546   C     0.15511   0.87780   0.46222   0.00000  Uiso   1.00
C547   C     0.34490   0.62219   0.53779   0.00000  Uiso   1.00
C548   C     0.36827   0.60168   0.45826   0.00000  Uiso   1.00
C549   C     0.13170   0.89834   0.54174   0.00000  Uiso   1.00
C550   C     0.33221   0.86519   0.51591   0.00000  Uiso   1.00
C551   C     0.44205   0.68895   0.50064   0.00000  Uiso   1.00
C552   C     0.16780   0.63483   0.48413   0.00000  Uiso   1.00
C553   C     0.11441   0.58264   0.51517   0.00000  Uiso   1.00
C554   C     0.38558   0.91735   0.48478   0.00000  Uiso   1.00
C555   C     0.09001   0.84615   0.49778   0.00000  Uiso   1.00
C556   C     0.40998   0.65385   0.50222   0.00000  Uiso   1.00
C557   C     0.40708   0.84284   0.49994   0.00000  Uiso   1.00
C558   C     0.09292   0.65716   0.50006   0.00000  Uiso   1.00
C559   C     0.34001   0.59616   0.49778   0.00000  Uiso   1.00
C560   C     0.15999   0.90385   0.50222   0.00000  Uiso   1.00
C561   C     0.15708   0.59284   0.49994   0.00000  Uiso   1.00
C562   C     0.05795   0.81105   0.49936   0.00000  Uiso   1.00
C563   C     0.34292   0.90716   0.50006   0.00000  Uiso   1.00
C564   C     0.30947   0.94062   0.49995   0.00000  Uiso   1.00
C565   C     0.19053   0.55938   0.50005   0.00000  Uiso   1.00
C566   C     0.19205   0.93895   0.50064   0.00000  Uiso   1.00
C567   C     0.30794   0.56105   0.49936   0.00000  Uiso   1.00
C568   C     0.01479   0.71471   0.35811   0.00000  Uiso   1.00
Cu569  Cu    0.00000   0.75000   0.54689   0.00000  Uiso   1.00
Cu570  Cu    0.00000   0.75000   0.45311   0.00000  Uiso   1.00
Cu571  Cu    0.25000   0.50000   0.54689   0.00000  Uiso   1.00
Cu572  Cu    0.25000   0.50000   0.45311   0.00000  Uiso   1.00
H573   H     0.02685   0.68642   0.37655   0.00000  Uiso   1.00
H574   H     0.47315   0.81358   0.62345   0.00000  Uiso   1.00
H575   H     0.47408   0.81400   0.37648   0.00000  Uiso   1.00
H576   H     0.02592   0.68599   0.62352   0.00000  Uiso   1.00
H577   H     0.27688   0.93643   0.37655   0.00000  Uiso   1.00
H578   H     0.22311   0.56357   0.62345   0.00000  Uiso   1.00
H579   H     0.22404   0.56399   0.37648   0.00000  Uiso   1.00
H580   H     0.27596   0.93601   0.62352   0.00000  Uiso   1.00
I581   I     0.45780   0.61985   0.41183   0.00000  Uiso   1.00
I582   I     0.29219   0.63014   0.58818   0.00000  Uiso   1.00
I583   I     0.35474   0.57705   0.38915   0.00000  Uiso   1.00
I584   I     0.14520   0.92303   0.61082   0.00000  Uiso   1.00
I585   I     0.26725   0.85118   0.54075   0.00000  Uiso   1.00
I586   I     0.23277   0.64884   0.45933   0.00000  Uiso   1.00
I587   I     0.09810   0.51726   0.53340   0.00000  Uiso   1.00
I588   I     0.40187   0.98272   0.46644   0.00000  Uiso   1.00
I589   I     0.04218   0.88016   0.58815   0.00000  Uiso   1.00
I590   I     0.10480   0.82697   0.38918   0.00000  Uiso   1.00
I591   I     0.39522   0.67301   0.61083   0.00000  Uiso   1.00
I592   I     0.01723   0.60116   0.54066   0.00000  Uiso   1.00
I593   I     0.48275   0.89882   0.45925   0.00000  Uiso   1.00
I594   I     0.34813   0.76730   0.53350   0.00000  Uiso   1.00
I595   I     0.15191   0.73275   0.46661   0.00000  Uiso   1.00
I596   I     0.20783   0.86984   0.41186   0.00000  Uiso   1.00
N597   N     0.00000   0.75000   0.61736   0.00000  Uiso   1.00
N598   N     0.00000   0.75000   0.38264   0.00000  Uiso   1.00
N599   N     0.25000   0.50000   0.61736   0.00000  Uiso   1.00
N600   N     0.25000   0.50000   0.38264   0.00000  Uiso   1.00
O601   O     0.04509   0.70491   0.53958   0.00000  Uiso   1.00
O602   O     0.20492   0.54509   0.46042   0.00000  Uiso   1.00
O603   O     0.20492   0.54509   0.53958   0.00000  Uiso   1.00
O604   O     0.29509   0.95491   0.46042   0.00000  Uiso   1.00
O605   O     0.20492   0.95491   0.46042   0.00000  Uiso   1.00
O606   O     0.29509   0.54509   0.53958   0.00000  Uiso   1.00
O607   O     0.29509   0.54509   0.46042   0.00000  Uiso   1.00
O608   O     0.20492   0.95491   0.53958   0.00000  Uiso   1.00
O609   O     0.45492   0.79509   0.46042   0.00000  Uiso   1.00
O610   O     0.45492   0.79509   0.53958   0.00000  Uiso   1.00
O611   O     0.04509   0.70491   0.46042   0.00000  Uiso   1.00
O612   O     0.45492   0.70491   0.46042   0.00000  Uiso   1.00
O613   O     0.04509   0.79509   0.53958   0.00000  Uiso   1.00
O614   O     0.04509   0.79509   0.46042   0.00000  Uiso   1.00
O615   O     0.45492   0.70491   0.53958   0.00000  Uiso   1.00
O616   O     0.29509   0.95491   0.53958   0.00000  Uiso   1.00
C617   C     0.55947   0.69062   0.49995   0.00000  Uiso   1.00
C618   C     0.98521   0.78529   0.64189   0.00000  Uiso   1.00
C619   C     0.98545   0.78540   0.35808   0.00000  Uiso   1.00
C620   C     0.51455   0.71460   0.64192   0.00000  Uiso   1.00
C621   C     0.76481   0.96472   0.35811   0.00000  Uiso   1.00
C622   C     0.73519   0.53528   0.64189   0.00000  Uiso   1.00
C623   C     0.73542   0.53539   0.35808   0.00000  Uiso   1.00
C624   C     0.76458   0.96461   0.64192   0.00000  Uiso   1.00
C625   C     0.90509   0.62782   0.46221   0.00000  Uiso   1.00
C626   C     0.59490   0.87220   0.53778   0.00000  Uiso   1.00
C627   C     0.61830   0.85165   0.45826   0.00000  Uiso   1.00
C628   C     0.94053   0.80938   0.50005   0.00000  Uiso   1.00
C629   C     0.88171   0.64834   0.54174   0.00000  Uiso   1.00
C630   C     0.58220   0.61517   0.51587   0.00000  Uiso   1.00
C631   C     0.91779   0.88482   0.48409   0.00000  Uiso   1.00
C632   C     0.86442   0.83265   0.51521   0.00000  Uiso   1.00
C633   C     0.63559   0.66736   0.48483   0.00000  Uiso   1.00
C634   C     0.65511   0.87780   0.46222   0.00000  Uiso   1.00
C635   C     0.84490   0.62219   0.53779   0.00000  Uiso   1.00
C636   C     0.86827   0.60168   0.45826   0.00000  Uiso   1.00
C637   C     0.63170   0.89834   0.54174   0.00000  Uiso   1.00
C638   C     0.83221   0.86519   0.51591   0.00000  Uiso   1.00
C639   C     0.94205   0.68895   0.50064   0.00000  Uiso   1.00
C640   C     0.66780   0.63483   0.48413   0.00000  Uiso   1.00
C641   C     0.61441   0.58264   0.51517   0.00000  Uiso   1.00
C642   C     0.88558   0.91735   0.48478   0.00000  Uiso   1.00
C643   C     0.59001   0.84615   0.49778   0.00000  Uiso   1.00
C644   C     0.90998   0.65385   0.50222   0.00000  Uiso   1.00
C645   C     0.90708   0.84284   0.49994   0.00000  Uiso   1.00
C646   C     0.59292   0.65716   0.50006   0.00000  Uiso   1.00
C647   C     0.84001   0.59616   0.49778   0.00000  Uiso   1.00
C648   C     0.65999   0.90385   0.50222   0.00000  Uiso   1.00
C649   C     0.65708   0.59284   0.49994   0.00000  Uiso   1.00
C650   C     0.55795   0.81105   0.49936   0.00000  Uiso   1.00
C651   C     0.84292   0.90716   0.50006   0.00000  Uiso   1.00
C652   C     0.80947   0.94062   0.49995   0.00000  Uiso   1.00
C653   C     0.69053   0.55938   0.50005   0.00000  Uiso   1.00
C654   C     0.69205   0.93895   0.50064   0.00000  Uiso   1.00
C655   C     0.80794   0.56105   0.49936   0.00000  Uiso   1.00
C656   C     0.51479   0.71471   0.35811   0.00000  Uiso   1.00
Cu657  Cu    0.50000   0.75000   0.54689   0.00000  Uiso   1.00
Cu658  Cu    0.50000   0.75000   0.45311   0.00000  Uiso   1.00
Cu659  Cu    0.75000   0.50000   0.54689   0.00000  Uiso   1.00
Cu660  Cu    0.75000   0.50000   0.45311   0.00000  Uiso   1.00
H661   H     0.52685   0.68642   0.37655   0.00000  Uiso   1.00
H662   H     0.97315   0.81358   0.62345   0.00000  Uiso   1.00
H663   H     0.97408   0.81400   0.37648   0.00000  Uiso   1.00
H664   H     0.52592   0.68599   0.62352   0.00000  Uiso   1.00
H665   H     0.77688   0.93643   0.37655   0.00000  Uiso   1.00
H666   H     0.72311   0.56357   0.62345   0.00000  Uiso   1.00
H667   H     0.72404   0.56399   0.37648   0.00000  Uiso   1.00
H668   H     0.77596   0.93601   0.62352   0.00000  Uiso   1.00
I669   I     0.95780   0.61985   0.41183   0.00000  Uiso   1.00
I670   I     0.79219   0.63014   0.58818   0.00000  Uiso   1.00
I671   I     0.85474   0.57705   0.38915   0.00000  Uiso   1.00
I672   I     0.64520   0.92303   0.61082   0.00000  Uiso   1.00
I673   I     0.76725   0.85118   0.54075   0.00000  Uiso   1.00
I674   I     0.73277   0.64884   0.45933   0.00000  Uiso   1.00
I675   I     0.59810   0.51726   0.53340   0.00000  Uiso   1.00
I676   I     0.90187   0.98272   0.46644   0.00000  Uiso   1.00
I677   I     0.54218   0.88016   0.58815   0.00000  Uiso   1.00
I678   I     0.60480   0.82697   0.38918   0.00000  Uiso   1.00
I679   I     0.89522   0.67301   0.61083   0.00000  Uiso   1.00
I680   I     0.51723   0.60116   0.54066   0.00000  Uiso   1.00
I681   I     0.98275   0.89882   0.45925   0.00000  Uiso   1.00
I682   I     0.84813   0.76730   0.53350   0.00000  Uiso   1.00
I683   I     0.65191   0.73275   0.46661   0.00000  Uiso   1.00
I684   I     0.70783   0.86984   0.41186   0.00000  Uiso   1.00
N685   N     0.50000   0.75000   0.61736   0.00000  Uiso   1.00
N686   N     0.50000   0.75000   0.38264   0.00000  Uiso   1.00
N687   N     0.75000   0.50000   0.61736   0.00000  Uiso   1.00
N688   N     0.75000   0.50000   0.38264   0.00000  Uiso   1.00
O689   O     0.54509   0.70491   0.53958   0.00000  Uiso   1.00
O690   O     0.70492   0.54509   0.46042   0.00000  Uiso   1.00
O691   O     0.70492   0.54509   0.53958   0.00000  Uiso   1.00
O692   O     0.79509   0.95491   0.46042   0.00000  Uiso   1.00
O693   O     0.70492   0.95491   0.46042   0.00000  Uiso   1.00
O694   O     0.79509   0.54509   0.53958   0.00000  Uiso   1.00
O695   O     0.79509   0.54509   0.46042   0.00000  Uiso   1.00
O696   O     0.70492   0.95491   0.53958   0.00000  Uiso   1.00
O697   O     0.95492   0.79509   0.46042   0.00000  Uiso   1.00
O698   O     0.95492   0.79509   0.53958   0.00000  Uiso   1.00
O699   O     0.54509   0.70491   0.46042   0.00000  Uiso   1.00
O700   O     0.95492   0.70491   0.46042   0.00000  Uiso   1.00
O701   O     0.54509   0.79509   0.53958   0.00000  Uiso   1.00
O702   O     0.54509   0.79509   0.46042   0.00000  Uiso   1.00
O703   O     0.95492   0.70491   0.53958   0.00000  Uiso   1.00
O704   O     0.79509   0.95491   0.53958   0.00000  Uiso   1.00
C705   C     0.05947   0.19062   0.83329   0.00000  Uiso   1.00
C706   C     0.48521   0.28529   0.97523   0.00000  Uiso   1.00
C707   C     0.48545   0.28540   0.69141   0.00000  Uiso   1.00
C708   C     0.01455   0.21460   0.97525   0.00000  Uiso   1.00
C709   C     0.26481   0.46472   0.69144   0.00000  Uiso   1.00
C710   C     0.23519   0.03528   0.97523   0.00000  Uiso   1.00
C711   C     0.23542   0.03539   0.69141   0.00000  Uiso   1.00
C712   C     0.26458   0.46461   0.97525   0.00000  Uiso   1.00
C713   C     0.40509   0.12782   0.79554   0.00000  Uiso   1.00
C714   C     0.09490   0.37220   0.87111   0.00000  Uiso   1.00
C715   C     0.11830   0.35165   0.79160   0.00000  Uiso   1.00
C716   C     0.44053   0.30938   0.83338   0.00000  Uiso   1.00
C717   C     0.38171   0.14834   0.87507   0.00000  Uiso   1.00
C718   C     0.08220   0.11517   0.84920   0.00000  Uiso   1.00
C719   C     0.41779   0.38482   0.81742   0.00000  Uiso   1.00
C720   C     0.36442   0.33265   0.84854   0.00000  Uiso   1.00
C721   C     0.13559   0.16736   0.81817   0.00000  Uiso   1.00
C722   C     0.15511   0.37780   0.79555   0.00000  Uiso   1.00
C723   C     0.34490   0.12219   0.87112   0.00000  Uiso   1.00
C724   C     0.36827   0.10168   0.79159   0.00000  Uiso   1.00
C725   C     0.13170   0.39834   0.87507   0.00000  Uiso   1.00
C726   C     0.33221   0.36519   0.84925   0.00000  Uiso   1.00
C727   C     0.44205   0.18895   0.83397   0.00000  Uiso   1.00
C728   C     0.16780   0.13483   0.81746   0.00000  Uiso   1.00
C729   C     0.11441   0.08264   0.84850   0.00000  Uiso   1.00
C730   C     0.38558   0.41735   0.81811   0.00000  Uiso   1.00
C731   C     0.09001   0.34615   0.83111   0.00000  Uiso   1.00
C732   C     0.40998   0.15385   0.83555   0.00000  Uiso   1.00
C733   C     0.40708   0.34284   0.83327   0.00000  Uiso   1.00
C734   C     0.09292   0.15716   0.83339   0.00000  Uiso   1.00
C735   C     0.34001   0.09616   0.83111   0.00000  Uiso   1.00
C736   C     0.15999   0.40385   0.83555   0.00000  Uiso   1.00
C737   C     0.15708   0.09284   0.83327   0.00000  Uiso   1.00
C738   C     0.05795   0.31105   0.83270   0.00000  Uiso   1.00
C739   C     0.34292   0.40716   0.83339   0.00000  Uiso   1.00
C740   C     0.30947   0.44062   0.83329   0.00000  Uiso   1.00
C741   C     0.19053   0.05938   0.83338   0.00000  Uiso   1.00
C742   C     0.19205   0.43895   0.83397   0.00000  Uiso   1.00
C743   C     0.30794   0.06105   0.83270   0.00000  Uiso   1.00
C744   C     0.01479   0.21471   0.69144   0.00000  Uiso   1.00
Cu745  Cu    0.00000   0.25000   0.88022   0.00000  Uiso   1.00
Cu746  Cu    0.00000   0.25000   0.78645   0.00000  Uiso   1.00
Cu747  Cu    0.25000  -0.00000   0.88022   0.00000  Uiso   1.00
Cu748  Cu    0.25000  -0.00000   0.78645   0.00000  Uiso   1.00
H749   H     0.02685   0.18642   0.70988   0.00000  Uiso   1.00
H750   H     0.47315   0.31358   0.95678   0.00000  Uiso   1.00
H751   H     0.47408   0.31400   0.70982   0.00000  Uiso   1.00
H752   H     0.02592   0.18599   0.95685   0.00000  Uiso   1.00
H753   H     0.27688   0.43643   0.70988   0.00000  Uiso   1.00
H754   H     0.22311   0.06357   0.95678   0.00000  Uiso   1.00
H755   H     0.22404   0.06399   0.70981   0.00000  Uiso   1.00
H756   H     0.27596   0.43601   0.95685   0.00000  Uiso   1.00
I757   I     0.45780   0.11985   0.74517   0.00000  Uiso   1.00
I758   I     0.29219   0.13014   0.92151   0.00000  Uiso   1.00
I759   I     0.35474   0.07705   0.72249   0.00000  Uiso   1.00
I760   I     0.14520   0.42303   0.94415   0.00000  Uiso   1.00
I761   I     0.26725   0.35118   0.87408   0.00000  Uiso   1.00
I762   I     0.23277   0.14884   0.79266   0.00000  Uiso   1.00
I763   I     0.09810   0.01726   0.86673   0.00000  Uiso   1.00
I764   I     0.40187   0.48272   0.79977   0.00000  Uiso   1.00
I765   I     0.04218   0.38016   0.92148   0.00000  Uiso   1.00
I766   I     0.10480   0.32697   0.72251   0.00000  Uiso   1.00
I767   I     0.39522   0.17301   0.94416   0.00000  Uiso   1.00
I768   I     0.01723   0.10116   0.87399   0.00000  Uiso   1.00
I769   I     0.48275   0.39882   0.79259   0.00000  Uiso   1.00
I770   I     0.34813   0.26730   0.86683   0.00000  Uiso   1.00
I771   I     0.15191   0.23275   0.79994   0.00000  Uiso   1.00
I772   I     0.20783   0.36984   0.74519   0.00000  Uiso   1.00
N773   N     0.00000   0.25000   0.95069   0.00000  Uiso   1.00
N774   N     0.00000   0.25000   0.71598   0.00000  Uiso   1.00
N775   N     0.25000  -0.00000   0.95069   0.00000  Uiso   1.00
N776   N     0.25000  -0.00000   0.71598   0.00000  Uiso   1.00
O777   O     0.04509   0.20491   0.87291   0.00000  Uiso   1.00
O778   O     0.20492   0.04509   0.79375   0.00000  Uiso   1.00
O779   O     0.20492   0.04509   0.87291   0.00000  Uiso   1.00
O780   O     0.29509   0.45491   0.79375   0.00000  Uiso   1.00
O781   O     0.20492   0.45491   0.79375   0.00000  Uiso   1.00
O782   O     0.29509   0.04509   0.87291   0.00000  Uiso   1.00
O783   O     0.29509   0.04509   0.79375   0.00000  Uiso   1.00
O784   O     0.20492   0.45491   0.87291   0.00000  Uiso   1.00
O785   O     0.45492   0.29509   0.79375   0.00000  Uiso   1.00
O786   O     0.45492   0.29509   0.87291   0.00000  Uiso   1.00
O787   O     0.04509   0.20491   0.79375   0.00000  Uiso   1.00
O788   O     0.45492   0.20491   0.79375   0.00000  Uiso   1.00
O789   O     0.04509   0.29509   0.87291   0.00000  Uiso   1.00
O790   O     0.04509   0.29509   0.79375   0.00000  Uiso   1.00
O791   O     0.45492   0.20491   0.87291   0.00000  Uiso   1.00
O792   O     0.29509   0.45491   0.87291   0.00000  Uiso   1.00
C793   C     0.55947   0.19062   0.83329   0.00000  Uiso   1.00
C794   C     0.98521   0.28529   0.97523   0.00000  Uiso   1.00
C795   C     0.98545   0.28540   0.69141   0.00000  Uiso   1.00
C796   C     0.51455   0.21460   0.97525   0.00000  Uiso   1.00
C797   C     0.76481   0.46472   0.69144   0.00000  Uiso   1.00
C798   C     0.73519   0.03528   0.97523   0.00000  Uiso   1.00
C799   C     0.73542   0.03539   0.69141   0.00000  Uiso   1.00
C800   C     0.76458   0.46461   0.97525   0.00000  Uiso   1.00
C801   C     0.90509   0.12782   0.79554   0.00000  Uiso   1.00
C802   C     0.59490   0.37220   0.87111   0.00000  Uiso   1.00
C803   C     0.61830   0.35165   0.79160   0.00000  Uiso   1.00
C804   C     0.94053   0.30938   0.83338   0.00000  Uiso   1.00
C805   C     0.88171   0.14834   0.87507   0.00000  Uiso   1.00
C806   C     0.58220   0.11517   0.84920   0.00000  Uiso   1.00
C807   C     0.91779   0.38482   0.81742   0.00000  Uiso   1.00
C808   C     0.86442   0.33265   0.84854   0.00000  Uiso   1.00
C809   C     0.63559   0.16736   0.81817   0.00000  Uiso   1.00
C810   C     0.65511   0.37780   0.79555   0.00000  Uiso   1.00
C811   C     0.84490   0.12219   0.87112   0.00000  Uiso   1.00
C812   C     0.86827   0.10168   0.79159   0.00000  Uiso   1.00
C813   C     0.63170   0.39834   0.87507   0.00000  Uiso   1.00
C814   C     0.83221   0.36519   0.84925   0.00000  Uiso   1.00
C815   C     0.94205   0.18895   0.83397   0.00000  Uiso   1.00
C816   C     0.66780   0.13483   0.81746   0.00000  Uiso   1.00
C817   C     0.61441   0.08264   0.84850   0.00000  Uiso   1.00
C818   C     0.88558   0.41735   0.81811   0.00000  Uiso   1.00
C819   C     0.59001   0.34615   0.83111   0.00000  Uiso   1.00
C820   C     0.90998   0.15385   0.83555   0.00000  Uiso   1.00
C821   C     0.90708   0.34284   0.83327   0.00000  Uiso   1.00
C822   C     0.59292   0.15716   0.83339   0.00000  Uiso   1.00
C823   C     0.84001   0.09616   0.83111   0.00000  Uiso   1.00
C824   C     0.65999   0.40385   0.83555   0.00000  Uiso   1.00
C825   C     0.65708   0.09284   0.83327   0.00000  Uiso   1.00
C826   C     0.55795   0.31105   0.83270   0.00000  Uiso   1.00
C827   C     0.84292   0.40716   0.83339   0.00000  Uiso   1.00
C828   C     0.80947   0.44062   0.83329   0.00000  Uiso   1.00
C829   C     0.69053   0.05938   0.83338   0.00000  Uiso   1.00
C830   C     0.69205   0.43895   0.83397   0.00000  Uiso   1.00
C831   C     0.80794   0.06105   0.83270   0.00000  Uiso   1.00
C832   C     0.51479   0.21471   0.69144   0.00000  Uiso   1.00
Cu833  Cu    0.50000   0.25000   0.88022   0.00000  Uiso   1.00
Cu834  Cu    0.50000   0.25000   0.78645   0.00000  Uiso   1.00
Cu835  Cu    0.75000  -0.00000   0.88022   0.00000  Uiso   1.00
Cu836  Cu    0.75000  -0.00000   0.78645   0.00000  Uiso   1.00
H837   H     0.52685   0.18642   0.70988   0.00000  Uiso   1.00
H838   H     0.97315   0.31358   0.95678   0.00000  Uiso   1.00
H839   H     0.97408   0.31400   0.70982   0.00000  Uiso   1.00
H840   H     0.52592   0.18599   0.95685   0.00000  Uiso   1.00
H841   H     0.77688   0.43643   0.70988   0.00000  Uiso   1.00
H842   H     0.72311   0.06357   0.95678   0.00000  Uiso   1.00
H843   H     0.72404   0.06399   0.70981   0.00000  Uiso   1.00
H844   H     0.77596   0.43601   0.95685   0.00000  Uiso   1.00
I845   I     0.95780   0.11985   0.74517   0.00000  Uiso   1.00
I846   I     0.79219   0.13014   0.92151   0.00000  Uiso   1.00
I847   I     0.85474   0.07705   0.72249   0.00000  Uiso   1.00
I848   I     0.64520   0.42303   0.94415   0.00000  Uiso   1.00
I849   I     0.76725   0.35118   0.87408   0.00000  Uiso   1.00
I850   I     0.73277   0.14884   0.79266   0.00000  Uiso   1.00
I851   I     0.59810   0.01726   0.86673   0.00000  Uiso   1.00
I852   I     0.90187   0.48272   0.79977   0.00000  Uiso   1.00
I853   I     0.54218   0.38016   0.92148   0.00000  Uiso   1.00
I854   I     0.60480   0.32697   0.72251   0.00000  Uiso   1.00
I855   I     0.89522   0.17301   0.94416   0.00000  Uiso   1.00
I856   I     0.51723   0.10116   0.87399   0.00000  Uiso   1.00
I857   I     0.98275   0.39882   0.79259   0.00000  Uiso   1.00
I858   I     0.84813   0.26730   0.86683   0.00000  Uiso   1.00
I859   I     0.65191   0.23275   0.79994   0.00000  Uiso   1.00
I860   I     0.70783   0.36984   0.74519   0.00000  Uiso   1.00
N861   N     0.50000   0.25000   0.95069   0.00000  Uiso   1.00
N862   N     0.50000   0.25000   0.71598   0.00000  Uiso   1.00
N863   N     0.75000  -0.00000   0.95069   0.00000  Uiso   1.00
N864   N     0.75000  -0.00000   0.71598   0.00000  Uiso   1.00
O865   O     0.54509   0.20491   0.87291   0.00000  Uiso   1.00
O866   O     0.70492   0.04509   0.79375   0.00000  Uiso   1.00
O867   O     0.70492   0.04509   0.87291   0.00000  Uiso   1.00
O868   O     0.79509   0.45491   0.79375   0.00000  Uiso   1.00
O869   O     0.70492   0.45491   0.79375   0.00000  Uiso   1.00
O870   O     0.79509   0.04509   0.87291   0.00000  Uiso   1.00
O871   O     0.79509   0.04509   0.79375   0.00000  Uiso   1.00
O872   O     0.70492   0.45491   0.87291   0.00000  Uiso   1.00
O873   O     0.95492   0.29509   0.79375   0.00000  Uiso   1.00
O874   O     0.95492   0.29509   0.87291   0.00000  Uiso   1.00
O875   O     0.54509   0.20491   0.79375   0.00000  Uiso   1.00
O876   O     0.95492   0.20491   0.79375   0.00000  Uiso   1.00
O877   O     0.54509   0.29509   0.87291   0.00000  Uiso   1.00
O878   O     0.54509   0.29509   0.79375   0.00000  Uiso   1.00
O879   O     0.95492   0.20491   0.87291   0.00000  Uiso   1.00
O880   O     0.79509   0.45491   0.87291   0.00000  Uiso   1.00
C881   C     0.05947   0.69062   0.83329   0.00000  Uiso   1.00
C882   C     0.48521   0.78529   0.97523   0.00000  Uiso   1.00
C883   C     0.48545   0.78540   0.69141   0.00000  Uiso   1.00
C884   C     0.01455   0.71460   0.97525   0.00000  Uiso   1.00
C885   C     0.26481   0.96472   0.69144   0.00000  Uiso   1.00
C886   C     0.23519   0.53528   0.97523   0.00000  Uiso   1.00
C887   C     0.23542   0.53539   0.69141   0.00000  Uiso   1.00
C888   C     0.26458   0.96461   0.97525   0.00000  Uiso   1.00
C889   C     0.40509   0.62782   0.79554   0.00000  Uiso   1.00
C890   C     0.09490   0.87220   0.87111   0.00000  Uiso   1.00
C891   C     0.11830   0.85165   0.79160   0.00000  Uiso   1.00
C892   C     0.44053   0.80938   0.83338   0.00000  Uiso   1.00
C893   C     0.38171   0.64834   0.87507   0.00000  Uiso   1.00
C894   C     0.08220   0.61517   0.84920   0.00000  Uiso   1.00
C895   C     0.41779   0.88482   0.81742   0.00000  Uiso   1.00
C896   C     0.36442   0.83265   0.84854   0.00000  Uiso   1.00
C897   C     0.13559   0.66736   0.81817   0.00000  Uiso   1.00
C898   C     0.15511   0.87780   0.79555   0.00000  Uiso   1.00
C899   C     0.34490   0.62219   0.87112   0.00000  Uiso   1.00
C900   C     0.36827   0.60168   0.79159   0.00000  Uiso   1.00
C901   C     0.13170   0.89834   0.87507   0.00000  Uiso   1.00
C902   C     0.33221   0.86519   0.84925   0.00000  Uiso   1.00
C903   C     0.44205   0.68895   0.83397   0.00000  Uiso   1.00
C904   C     0.16780   0.63483   0.81746   0.00000  Uiso   1.00
C905   C     0.11441   0.58264   0.84850   0.00000  Uiso   1.00
C906   C     0.38558   0.91735   0.81811   0.00000  Uiso   1.00
C907   C     0.09001   0.84615   0.83111   0.00000  Uiso   1.00
C908   C     0.40998   0.65385   0.83555   0.00000  Uiso   1.00
C909   C     0.40708   0.84284   0.83327   0.00000  Uiso   1.00
C910   C     0.09292   0.65716   0.83339   0.00000  Uiso   1.00
C911   C     0.34001   0.59616   0.83111   0.00000  Uiso   1.00
C912   C     0.15999   0.90385   0.83555   0.00000  Uiso   1.00
C913   C     0.15708   0.59284   0.83327   0.00000  Uiso   1.00
C914   C     0.05795   0.81105   0.83270   0.00000  Uiso   1.00
C915   C     0.34292   0.90716   0.83339   0.00000  Uiso   1.00
C916   C     0.30947   0.94062   0.83329   0.00000  Uiso   1.00
C917   C     0.19053   0.55938   0.83338   0.00000  Uiso   1.00
C918   C     0.19205   0.93895   0.83397   0.00000  Uiso   1.00
C919   C     0.30794   0.56105   0.83270   0.00000  Uiso   1.00
C920   C     0.01479   0.71471   0.69144   0.00000  Uiso   1.00
Cu921  Cu    0.00000   0.75000   0.88022   0.00000  Uiso   1.00
Cu922  Cu    0.00000   0.75000   0.78645   0.00000  Uiso   1.00
Cu923  Cu    0.25000   0.50000   0.88022   0.00000  Uiso   1.00
Cu924  Cu    0.25000   0.50000   0.78645   0.00000  Uiso   1.00
H925   H     0.02685   0.68642   0.70988   0.00000  Uiso   1.00
H926   H     0.47315   0.81358   0.95678   0.00000  Uiso   1.00
H927   H     0.47408   0.81400   0.70982   0.00000  Uiso   1.00
H928   H     0.02592   0.68599   0.95685   0.00000  Uiso   1.00
H929   H     0.27688   0.93643   0.70988   0.00000  Uiso   1.00
H930   H     0.22311   0.56357   0.95678   0.00000  Uiso   1.00
H931   H     0.22404   0.56399   0.70981   0.00000  Uiso   1.00
H932   H     0.27596   0.93601   0.95685   0.00000  Uiso   1.00
I933   I     0.45780   0.61985   0.74517   0.00000  Uiso   1.00
I934   I     0.29219   0.63014   0.92151   0.00000  Uiso   1.00
I935   I     0.35474   0.57705   0.72249   0.00000  Uiso   1.00
I936   I     0.14520   0.92303   0.94415   0.00000  Uiso   1.00
I937   I     0.26725   0.85118   0.87408   0.00000  Uiso   1.00
I938   I     0.23277   0.64884   0.79266   0.00000  Uiso   1.00
I939   I     0.09810   0.51726   0.86673   0.00000  Uiso   1.00
I940   I     0.40187   0.98272   0.79977   0.00000  Uiso   1.00
I941   I     0.04218   0.88016   0.92148   0.00000  Uiso   1.00
I942   I     0.10480   0.82697   0.72251   0.00000  Uiso   1.00
I943   I     0.39522   0.67301   0.94416   0.00000  Uiso   1.00
I944   I     0.01723   0.60116   0.87399   0.00000  Uiso   1.00
I945   I     0.48275   0.89882   0.79259   0.00000  Uiso   1.00
I946   I     0.34813   0.76730   0.86683   0.00000  Uiso   1.00
I947   I     0.15191   0.73275   0.79994   0.00000  Uiso   1.00
I948   I     0.20783   0.86984   0.74519   0.00000  Uiso   1.00
N949   N     0.00000   0.75000   0.95069   0.00000  Uiso   1.00
N950   N     0.00000   0.75000   0.71598   0.00000  Uiso   1.00
N951   N     0.25000   0.50000   0.95069   0.00000  Uiso   1.00
N952   N     0.25000   0.50000   0.71598   0.00000  Uiso   1.00
O953   O     0.04509   0.70491   0.87291   0.00000  Uiso   1.00
O954   O     0.20492   0.54509   0.79375   0.00000  Uiso   1.00
O955   O     0.20492   0.54509   0.87291   0.00000  Uiso   1.00
O956   O     0.29509   0.95491   0.79375   0.00000  Uiso   1.00
O957   O     0.20492   0.95491   0.79375   0.00000  Uiso   1.00
O958   O     0.29509   0.54509   0.87291   0.00000  Uiso   1.00
O959   O     0.29509   0.54509   0.79375   0.00000  Uiso   1.00
O960   O     0.20492   0.95491   0.87291   0.00000  Uiso   1.00
O961   O     0.45492   0.79509   0.79375   0.00000  Uiso   1.00
O962   O     0.45492   0.79509   0.87291   0.00000  Uiso   1.00
O963   O     0.04509   0.70491   0.79375   0.00000  Uiso   1.00
O964   O     0.45492   0.70491   0.79375   0.00000  Uiso   1.00
O965   O     0.04509   0.79509   0.87291   0.00000  Uiso   1.00
O966   O     0.04509   0.79509   0.79375   0.00000  Uiso   1.00
O967   O     0.45492   0.70491   0.87291   0.00000  Uiso   1.00
O968   O     0.29509   0.95491   0.87291   0.00000  Uiso   1.00
C969   C     0.55947   0.69062   0.83329   0.00000  Uiso   1.00
C970   C     0.98521   0.78529   0.97523   0.00000  Uiso   1.00
C971   C     0.98545   0.78540   0.69141   0.00000  Uiso   1.00
C972   C     0.51455   0.71460   0.97525   0.00000  Uiso   1.00
C973   C     0.76481   0.96472   0.69144   0.00000  Uiso   1.00
C974   C     0.73519   0.53528   0.97523   0.00000  Uiso   1.00
C975   C     0.73542   0.53539   0.69141   0.00000  Uiso   1.00
C976   C     0.76458   0.96461   0.97525   0.00000  Uiso   1.00
C977   C     0.90509   0.62782   0.79554   0.00000  Uiso   1.00
C978   C     0.59490   0.87220   0.87111   0.00000  Uiso   1.00
C979   C     0.61830   0.85165   0.79160   0.00000  Uiso   1.00
C980   C     0.94053   0.80938   0.83338   0.00000  Uiso   1.00
C981   C     0.88171   0.64834   0.87507   0.00000  Uiso   1.00
C982   C     0.58220   0.61517   0.84920   0.00000  Uiso   1.00
C983   C     0.91779   0.88482   0.81742   0.00000  Uiso   1.00
C984   C     0.86442   0.83265   0.84854   0.00000  Uiso   1.00
C985   C     0.63559   0.66736   0.81817   0.00000  Uiso   1.00
C986   C     0.65511   0.87780   0.79555   0.00000  Uiso   1.00
C987   C     0.84490   0.62219   0.87112   0.00000  Uiso   1.00
C988   C     0.86827   0.60168   0.79159   0.00000  Uiso   1.00
C989   C     0.63170   0.89834   0.87507   0.00000  Uiso   1.00
C990   C     0.83221   0.86519   0.84925   0.00000  Uiso   1.00
C991   C     0.94205   0.68895   0.83397   0.00000  Uiso   1.00
C992   C     0.66780   0.63483   0.81746   0.00000  Uiso   1.00
C993   C     0.61441   0.58264   0.84850   0.00000  Uiso   1.00
C994   C     0.88558   0.91735   0.81811   0.00000  Uiso   1.00
C995   C     0.59001   0.84615   0.83111   0.00000  Uiso   1.00
C996   C     0.90998   0.65385   0.83555   0.00000  Uiso   1.00
C997   C     0.90708   0.84284   0.83327   0.00000  Uiso   1.00
C998   C     0.59292   0.65716   0.83339   0.00000  Uiso   1.00
C999   C     0.84001   0.59616   0.83111   0.00000  Uiso   1.00
C1000  C     0.65999   0.90385   0.83555   0.00000  Uiso   1.00
C1001  C     0.65708   0.59284   0.83327   0.00000  Uiso   1.00
C1002  C     0.55795   0.81105   0.83270   0.00000  Uiso   1.00
C1003  C     0.84292   0.90716   0.83339   0.00000  Uiso   1.00
C1004  C     0.80947   0.94062   0.83329   0.00000  Uiso   1.00
C1005  C     0.69053   0.55938   0.83338   0.00000  Uiso   1.00
C1006  C     0.69205   0.93895   0.83397   0.00000  Uiso   1.00
C1007  C     0.80794   0.56105   0.83270   0.00000  Uiso   1.00
C1008  C     0.51479   0.71471   0.69144   0.00000  Uiso   1.00
Cu1009 Cu    0.50000   0.75000   0.88022   0.00000  Uiso   1.00
Cu1010 Cu    0.50000   0.75000   0.78645   0.00000  Uiso   1.00
Cu1011 Cu    0.75000   0.50000   0.88022   0.00000  Uiso   1.00
Cu1012 Cu    0.75000   0.50000   0.78645   0.00000  Uiso   1.00
H1013  H     0.52685   0.68642   0.70988   0.00000  Uiso   1.00
H1014  H     0.97315   0.81358   0.95678   0.00000  Uiso   1.00
H1015  H     0.97408   0.81400   0.70982   0.00000  Uiso   1.00
H1016  H     0.52592   0.68599   0.95685   0.00000  Uiso   1.00
H1017  H     0.77688   0.93643   0.70988   0.00000  Uiso   1.00
H1018  H     0.72311   0.56357   0.95678   0.00000  Uiso   1.00
H1019  H     0.72404   0.56399   0.70981   0.00000  Uiso   1.00
H1020  H     0.77596   0.93601   0.95685   0.00000  Uiso   1.00
I1021  I     0.95780   0.61985   0.74517   0.00000  Uiso   1.00
I1022  I     0.79219   0.63014   0.92151   0.00000  Uiso   1.00
I1023  I     0.85474   0.57705   0.72249   0.00000  Uiso   1.00
I1024  I     0.64520   0.92303   0.94415   0.00000  Uiso   1.00
I1025  I     0.76725   0.85118   0.87408   0.00000  Uiso   1.00
I1026  I     0.73277   0.64884   0.79266   0.00000  Uiso   1.00
I1027  I     0.59810   0.51726   0.86673   0.00000  Uiso   1.00
I1028  I     0.90187   0.98272   0.79977   0.00000  Uiso   1.00
I1029  I     0.54218   0.88016   0.92148   0.00000  Uiso   1.00
I1030  I     0.60480   0.82697   0.72251   0.00000  Uiso   1.00
I1031  I     0.89522   0.67301   0.94416   0.00000  Uiso   1.00
I1032  I     0.51723   0.60116   0.87399   0.00000  Uiso   1.00
I1033  I     0.98275   0.89882   0.79259   0.00000  Uiso   1.00
I1034  I     0.84813   0.76730   0.86683   0.00000  Uiso   1.00
I1035  I     0.65191   0.73275   0.79994   0.00000  Uiso   1.00
I1036  I     0.70783   0.86984   0.74519   0.00000  Uiso   1.00
N1037  N     0.50000   0.75000   0.95069   0.00000  Uiso   1.00
N1038  N     0.50000   0.75000   0.71598   0.00000  Uiso   1.00
N1039  N     0.75000   0.50000   0.95069   0.00000  Uiso   1.00
N1040  N     0.75000   0.50000   0.71598   0.00000  Uiso   1.00
O1041  O     0.54509   0.70491   0.87291   0.00000  Uiso   1.00
O1042  O     0.70492   0.54509   0.79375   0.00000  Uiso   1.00
O1043  O     0.70492   0.54509   0.87291   0.00000  Uiso   1.00
O1044  O     0.79509   0.95491   0.79375   0.00000  Uiso   1.00
O1045  O     0.70492   0.95491   0.79375   0.00000  Uiso   1.00
O1046  O     0.79509   0.54509   0.87291   0.00000  Uiso   1.00
O1047  O     0.79509   0.54509   0.79375   0.00000  Uiso   1.00
O1048  O     0.70492   0.95491   0.87291   0.00000  Uiso   1.00
O1049  O     0.95492   0.79509   0.79375   0.00000  Uiso   1.00
O1050  O     0.95492   0.79509   0.87291   0.00000  Uiso   1.00
O1051  O     0.54509   0.70491   0.79375   0.00000  Uiso   1.00
O1052  O     0.95492   0.70491   0.79375   0.00000  Uiso   1.00
O1053  O     0.54509   0.79509   0.87291   0.00000  Uiso   1.00
O1054  O     0.54509   0.79509   0.79375   0.00000  Uiso   1.00
O1055  O     0.95492   0.70491   0.87291   0.00000  Uiso   1.00
O1056  O     0.79509   0.95491   0.87291   0.00000  Uiso   1.00
loop_
_geom_bond_atom_site_label_1
_geom_bond_atom_site_label_2
_geom_bond_distance
_geom_bond_site_symmetry_2
_ccdc_geom_bond_type
C1     O83     1.290   .     A
C1     O73     1.286   .     A
C1     C30     1.445   .     S
C2     H46     1.080   .     S
C2     C355    1.413   .     S
C2     N157    1.367   .     S
C3     H47     1.080   .     S
C3     C706    1.413   1_554 S
C3     N158    1.367   .     S
C4     N69     1.367   .     A
C4     H48     1.080   .     S
C4     C392    1.413   .     S
C5     H49     1.080   .     S
C5     C712    1.413   1_554 S
C5     N248    1.366   .     S
C6     H50     1.080   .     S
C6     C359    1.413   .     S
C6     N71     1.366   .     S
C7     N72     1.367   .     A
C7     H51     1.080   .     S
C7     C710    1.413   1_554 S
C8     H52     1.080   .     S
C8     N247    1.367   .     A
C8     C357    1.413   .     S
C9     C20     1.396   .     A
C9     I53     2.156   .     S
C9     C28     1.410   .     A
C10    C27     1.410   .     A
C10    C21     1.396   .     A
C10    I61     2.156   .     S
C11    C18     1.396   .     A
C11    I62     2.165   .     S
C11    C27     1.420   .     A
C12    C29     1.445   .     S
C12    O82     1.290   .     A
C12    O81     1.286   .     A
C13    C28     1.420   .     A
C13    C19     1.396   .     A
C13    I63     2.165   .     S
C14    C30     1.406   .     A
C14    I64     2.144   .     S
C14    C25     1.398   .     A
C15    I65     2.144   .     S
C15    C29     1.406   .     A
C15    C26     1.398   .     A
C16    I66     2.136   .     S
C16    C22     1.398   .     A
C16    C29     1.406   .     A
C17    C30     1.406   .     A
C17    I67     2.137   .     S
C17    C24     1.398   .     A
C18    C32     1.410   .     A
C18    I68     2.156   .     S
C19    C31     1.410   .     A
C19    I54     2.156   .     S
C20    I55     2.165   .     S
C20    C31     1.420   .     A
C21    C32     1.420   .     A
C21    I56     2.165   .     S
C22    I57     2.144   .     S
C22    C35     1.406   .     A
C23    O87     1.287   .     A
C23    O84     1.301   .     A
C23    C28     1.465   .     S
C24    C33     1.406   .     A
C24    I58     2.144   .     S
C25    I59     2.137   .     S
C25    C33     1.406   .     A
C26    C35     1.406   .     A
C26    I60     2.137   .     S
C27    C34     1.465   .     S
C31    C39     1.465   .     S
C32    C38     1.465   .     S
C33    C37     1.445   .     S
C34    O86     1.287   .     A
C34    O85     1.301   .     A
C35    C36     1.445   .     S
C36    O76     1.290   .     A
C36    O88     1.286   .     A
C37    O74     1.286   .     A
C37    O75     1.290   .     A
C38    O77     1.301   .     A
C38    O80     1.287   .     A
C39    O78     1.301   .     A
C39    O79     1.287   .     A
C40    N70     1.367   .     A
C40    H45     1.080   .     S
C40    C708    1.413   1_554 S
Cu41   Cu42    2.676   .     S
Cu41   O175    1.979   1_455 S
Cu41   O170    1.960   1_455 S
Cu41   N69     2.011   .     S
Cu41   O73     1.958   .     S
Cu41   O85     1.972   .     S
Cu42   O169    1.958   1_455 S
Cu42   O172    1.972   1_455 S
Cu42   N70     2.011   .     S
Cu42   O83     1.960   .     S
Cu42   O86     1.979   .     S
Cu43   O264    1.958   1_545 S
Cu43   N71     2.011   .     S
Cu43   O256    1.979   1_545 S
Cu43   Cu44    2.676   .     S
Cu43   O75     1.960   .     S
Cu43   O78     1.972   .     S
Cu44   O253    1.972   1_545 S
Cu44   O252    1.960   1_545 S
Cu44   N72     2.011   .     S
Cu44   O74     1.958   .     S
Cu44   O79     1.979   .     S
N69    C90     1.367   1_455 S
N70    C91     1.367   1_455 S
N71    C184    1.367   1_545 A
N72    C181    1.366   1_545 S
O76    Cu220   1.960   .     S
O77    Cu220   1.972   .     S
O80    Cu219   1.979   .     S
O81    Cu130   1.958   .     S
O82    Cu129   1.960   .     S
O84    Cu130   1.972   .     S
O87    Cu129   1.979   .     S
O88    Cu219   1.958   .     S
C89    O171    1.290   .     A
C89    O161    1.286   .     A
C89    C118    1.445   .     S
C90    H134    1.080   .     S
C90    C443    1.413   .     S
C90    N69     1.367   1_655 S
C91    H135    1.080   .     S
C91    C794    1.413   1_554 S
C91    N70     1.367   1_655 S
C92    N157    1.367   .     A
C92    H136    1.080   .     S
C92    C480    1.413   .     S
C93    H137    1.080   .     S
C93    C800    1.413   1_554 S
C93    N336    1.366   .     S
C94    H138    1.080   .     S
C94    C447    1.413   .     S
C94    N159    1.366   .     S
C95    N160    1.367   .     A
C95    H139    1.080   .     S
C95    C798    1.413   1_554 S
C96    H140    1.080   .     S
C96    N335    1.367   .     A
C96    C445    1.413   .     S
C97    C108    1.396   .     A
C97    I141    2.156   .     S
C97    C116    1.410   .     A
C98    C115    1.410   .     A
C98    C109    1.396   .     A
C98    I149    2.156   .     S
C99    C106    1.396   .     A
C99    I150    2.165   .     S
C99    C115    1.420   .     A
C100   C117    1.445   .     S
C100   O170    1.290   .     A
C100   O169    1.286   .     A
C101   C116    1.420   .     A
C101   C107    1.396   .     A
C101   I151    2.165   .     S
C102   C118    1.406   .     A
C102   I152    2.144   .     S
C102   C113    1.398   .     A
C103   I153    2.144   .     S
C103   C117    1.406   .     A
C103   C114    1.398   .     A
C104   I154    2.136   .     S
C104   C110    1.398   .     A
C104   C117    1.406   .     A
C105   C118    1.406   .     A
C105   I155    2.137   .     S
C105   C112    1.398   .     A
C106   C120    1.410   .     A
C106   I156    2.156   .     S
C107   C119    1.410   .     A
C107   I142    2.156   .     S
C108   I143    2.165   .     S
C108   C119    1.420   .     A
C109   C120    1.420   .     A
C109   I144    2.165   .     S
C110   I145    2.144   .     S
C110   C123    1.406   .     A
C111   O175    1.287   .     A
C111   O172    1.301   .     A
C111   C116    1.465   .     S
C112   C121    1.406   .     A
C112   I146    2.144   .     S
C113   I147    2.137   .     S
C113   C121    1.406   .     A
C114   C123    1.406   .     A
C114   I148    2.137   .     S
C115   C122    1.465   .     S
C119   C127    1.465   .     S
C120   C126    1.465   .     S
C121   C125    1.445   .     S
C122   O174    1.287   .     A
C122   O173    1.301   .     A
C123   C124    1.445   .     S
C124   O164    1.290   .     A
C124   O176    1.286   .     A
C125   O162    1.286   .     A
C125   O163    1.290   .     A
C126   O165    1.301   .     A
C126   O168    1.287   .     A
C127   O166    1.301   .     A
C127   O167    1.287   .     A
C128   N158    1.367   .     A
C128   H133    1.080   .     S
C128   C796    1.413   1_554 S
Cu129  Cu130   2.676   .     S
Cu129  N157    2.011   .     S
Cu129  O161    1.958   .     S
Cu129  O173    1.972   .     S
Cu130  N158    2.011   .     S
Cu130  O171    1.960   .     S
Cu130  O174    1.979   .     S
Cu131  O352    1.958   1_545 S
Cu131  N159    2.011   .     S
Cu131  O344    1.979   1_545 S
Cu131  Cu132   2.676   .     S
Cu131  O163    1.960   .     S
Cu131  O166    1.972   .     S
Cu132  O341    1.972   1_545 S
Cu132  O340    1.960   1_545 S
Cu132  N160    2.011   .     S
Cu132  O162    1.958   .     S
Cu132  O167    1.979   .     S
N159   C272    1.367   1_545 A
N160   C269    1.366   1_545 S
O164   Cu308   1.960   .     S
O165   Cu308   1.972   .     S
O168   Cu307   1.979   .     S
O169   Cu42    1.958   1_655 S
O170   Cu41    1.960   1_655 S
O172   Cu42    1.972   1_655 S
O175   Cu41    1.979   1_655 S
O176   Cu307   1.958   .     S
C177   O259    1.290   .     A
C177   O249    1.286   .     A
C177   C206    1.445   .     S
C178   H222    1.080   .     S
C178   C531    1.413   .     S
C178   N333    1.367   .     S
C179   H223    1.080   .     S
C179   C882    1.413   1_554 S
C179   N334    1.367   .     S
C180   N245    1.367   .     A
C180   H224    1.080   .     S
C180   C568    1.413   .     S
C181   H225    1.080   .     S
C181   C888    1.413   1_554 S
C181   N72     1.366   1_565 S
C182   H226    1.080   .     S
C182   C535    1.413   .     S
C182   N247    1.366   .     S
C183   N248    1.367   .     A
C183   H227    1.080   .     S
C183   C886    1.413   1_554 S
C184   H228    1.080   .     S
C184   N71     1.367   1_565 A
C184   C533    1.413   .     S
C185   C196    1.396   .     A
C185   I229    2.156   .     S
C185   C204    1.410   .     A
C186   C203    1.410   .     A
C186   C197    1.396   .     A
C186   I237    2.156   .     S
C187   C194    1.396   .     A
C187   I238    2.165   .     S
C187   C203    1.420   .     A
C188   C205    1.445   .     S
C188   O258    1.290   .     A
C188   O257    1.286   .     A
C189   C204    1.420   .     A
C189   C195    1.396   .     A
C189   I239    2.165   .     S
C190   C206    1.406   .     A
C190   I240    2.144   .     S
C190   C201    1.398   .     A
C191   I241    2.144   .     S
C191   C205    1.406   .     A
C191   C202    1.398   .     A
C192   I242    2.136   .     S
C192   C198    1.398   .     A
C192   C205    1.406   .     A
C193   C206    1.406   .     A
C193   I243    2.137   .     S
C193   C200    1.398   .     A
C194   C208    1.410   .     A
C194   I244    2.156   .     S
C195   C207    1.410   .     A
C195   I230    2.156   .     S
C196   I231    2.165   .     S
C196   C207    1.420   .     A
C197   C208    1.420   .     A
C197   I232    2.165   .     S
C198   I233    2.144   .     S
C198   C211    1.406   .     A
C199   O263    1.287   .     A
C199   O260    1.301   .     A
C199   C204    1.465   .     S
C200   C209    1.406   .     A
C200   I234    2.144   .     S
C201   I235    2.137   .     S
C201   C209    1.406   .     A
C202   C211    1.406   .     A
C202   I236    2.137   .     S
C203   C210    1.465   .     S
C207   C215    1.465   .     S
C208   C214    1.465   .     S
C209   C213    1.445   .     S
C210   O262    1.287   .     A
C210   O261    1.301   .     A
C211   C212    1.445   .     S
C212   O252    1.290   .     A
C212   O264    1.286   .     A
C213   O250    1.286   .     A
C213   O251    1.290   .     A
C214   O253    1.301   .     A
C214   O256    1.287   .     A
C215   O254    1.301   .     A
C215   O255    1.287   .     A
C216   N246    1.367   .     A
C216   H221    1.080   .     S
C216   C884    1.413   1_554 S
Cu217  Cu218   2.676   .     S
Cu217  O351    1.979   1_455 S
Cu217  O346    1.960   1_455 S
Cu217  N245    2.011   .     S
Cu217  O249    1.958   .     S
Cu217  O261    1.972   .     S
Cu218  O345    1.958   1_455 S
Cu218  O348    1.972   1_455 S
Cu218  N246    2.011   .     S
Cu218  O259    1.960   .     S
Cu218  O262    1.979   .     S
Cu219  N247    2.011   .     S
Cu219  Cu220   2.676   .     S
Cu219  O251    1.960   .     S
Cu219  O254    1.972   .     S
Cu220  N248    2.011   .     S
Cu220  O250    1.958   .     S
Cu220  O255    1.979   .     S
N245   C266    1.367   1_455 S
N246   C267    1.367   1_455 S
O252   Cu44    1.960   1_565 S
O253   Cu44    1.972   1_565 S
O256   Cu43    1.979   1_565 S
O257   Cu306   1.958   .     S
O258   Cu305   1.960   .     S
O260   Cu306   1.972   .     S
O263   Cu305   1.979   .     S
O264   Cu43    1.958   1_565 S
C265   O347    1.290   .     A
C265   O337    1.286   .     A
C265   C294    1.445   .     S
C266   H310    1.080   .     S
C266   C619    1.413   .     S
C266   N245    1.367   1_655 S
C267   H311    1.080   .     S
C267   C970    1.413   1_554 S
C267   N246    1.367   1_655 S
C268   N333    1.367   .     A
C268   H312    1.080   .     S
C268   C656    1.413   .     S
C269   H313    1.080   .     S
C269   C976    1.413   1_554 S
C269   N160    1.366   1_565 S
C270   H314    1.080   .     S
C270   C623    1.413   .     S
C270   N335    1.366   .     S
C271   N336    1.367   .     A
C271   H315    1.080   .     S
C271   C974    1.413   1_554 S
C272   H316    1.080   .     S
C272   N159    1.367   1_565 A
C272   C621    1.413   .     S
C273   C284    1.396   .     A
C273   I317    2.156   .     S
C273   C292    1.410   .     A
C274   C291    1.410   .     A
C274   C285    1.396   .     A
C274   I325    2.156   .     S
C275   C282    1.396   .     A
C275   I326    2.165   .     S
C275   C291    1.420   .     A
C276   C293    1.445   .     S
C276   O346    1.290   .     A
C276   O345    1.286   .     A
C277   C292    1.420   .     A
C277   C283    1.396   .     A
C277   I327    2.165   .     S
C278   C294    1.406   .     A
C278   I328    2.144   .     S
C278   C289    1.398   .     A
C279   I329    2.144   .     S
C279   C293    1.406   .     A
C279   C290    1.398   .     A
C280   I330    2.136   .     S
C280   C286    1.398   .     A
C280   C293    1.406   .     A
C281   C294    1.406   .     A
C281   I331    2.137   .     S
C281   C288    1.398   .     A
C282   C296    1.410   .     A
C282   I332    2.156   .     S
C283   C295    1.410   .     A
C283   I318    2.156   .     S
C284   I319    2.165   .     S
C284   C295    1.420   .     A
C285   C296    1.420   .     A
C285   I320    2.165   .     S
C286   I321    2.144   .     S
C286   C299    1.406   .     A
C287   O351    1.287   .     A
C287   O348    1.301   .     A
C287   C292    1.465   .     S
C288   C297    1.406   .     A
C288   I322    2.144   .     S
C289   I323    2.137   .     S
C289   C297    1.406   .     A
C290   C299    1.406   .     A
C290   I324    2.137   .     S
C291   C298    1.465   .     S
C295   C303    1.465   .     S
C296   C302    1.465   .     S
C297   C301    1.445   .     S
C298   O350    1.287   .     A
C298   O349    1.301   .     A
C299   C300    1.445   .     S
C300   O340    1.290   .     A
C300   O352    1.286   .     A
C301   O338    1.286   .     A
C301   O339    1.290   .     A
C302   O341    1.301   .     A
C302   O344    1.287   .     A
C303   O342    1.301   .     A
C303   O343    1.287   .     A
C304   N334    1.367   .     A
C304   H309    1.080   .     S
C304   C972    1.413   1_554 S
Cu305  Cu306   2.676   .     S
Cu305  N333    2.011   .     S
Cu305  O337    1.958   .     S
Cu305  O349    1.972   .     S
Cu306  N334    2.011   .     S
Cu306  O347    1.960   .     S
Cu306  O350    1.979   .     S
Cu307  N335    2.011   .     S
Cu307  Cu308   2.676   .     S
Cu307  O339    1.960   .     S
Cu307  O342    1.972   .     S
Cu308  N336    2.011   .     S
Cu308  O338    1.958   .     S
Cu308  O343    1.979   .     S
O340   Cu132   1.960   1_565 S
O341   Cu132   1.972   1_565 S
O344   Cu131   1.979   1_565 S
O345   Cu218   1.958   1_655 S
O346   Cu217   1.960   1_655 S
O348   Cu218   1.972   1_655 S
O351   Cu217   1.979   1_655 S
O352   Cu131   1.958   1_565 S
C353   O435    1.290   .     A
C353   O425    1.286   .     A
C353   C382    1.445   .     S
C354   H398    1.080   .     S
C354   C707    1.413   .     S
C354   N509    1.367   .     S
C355   H399    1.080   .     S
C355   N510    1.367   .     S
C356   N421    1.367   .     A
C356   H400    1.080   .     S
C356   C744    1.413   .     S
C357   H401    1.080   .     S
C357   N600    1.366   .     S
C358   H402    1.080   .     S
C358   C711    1.413   .     S
C358   N423    1.366   .     S
C359   N424    1.367   .     A
C359   H403    1.080   .     S
C360   H404    1.080   .     S
C360   N599    1.367   .     A
C360   C709    1.413   .     S
C361   C372    1.396   .     A
C361   I405    2.156   .     S
C361   C380    1.410   .     A
C362   C379    1.410   .     A
C362   C373    1.396   .     A
C362   I413    2.156   .     S
C363   C370    1.396   .     A
C363   I414    2.165   .     S
C363   C379    1.420   .     A
C364   C381    1.445   .     S
C364   O434    1.290   .     A
C364   O433    1.286   .     A
C365   C380    1.420   .     A
C365   C371    1.396   .     A
C365   I415    2.165   .     S
C366   C382    1.406   .     A
C366   I416    2.144   .     S
C366   C377    1.398   .     A
C367   I417    2.144   .     S
C367   C381    1.406   .     A
C367   C378    1.398   .     A
C368   I418    2.136   .     S
C368   C374    1.398   .     A
C368   C381    1.406   .     A
C369   C382    1.406   .     A
C369   I419    2.137   .     S
C369   C376    1.398   .     A
C370   C384    1.410   .     A
C370   I420    2.156   .     S
C371   C383    1.410   .     A
C371   I406    2.156   .     S
C372   I407    2.165   .     S
C372   C383    1.420   .     A
C373   C384    1.420   .     A
C373   I408    2.165   .     S
C374   I409    2.144   .     S
C374   C387    1.406   .     A
C375   O439    1.287   .     A
C375   O436    1.301   .     A
C375   C380    1.465   .     S
C376   C385    1.406   .     A
C376   I410    2.144   .     S
C377   I411    2.137   .     S
C377   C385    1.406   .     A
C378   C387    1.406   .     A
C378   I412    2.137   .     S
C379   C386    1.465   .     S
C383   C391    1.465   .     S
C384   C390    1.465   .     S
C385   C389    1.445   .     S
C386   O438    1.287   .     A
C386   O437    1.301   .     A
C387   C388    1.445   .     S
C388   O428    1.290   .     A
C388   O440    1.286   .     A
C389   O426    1.286   .     A
C389   O427    1.290   .     A
C390   O429    1.301   .     A
C390   O432    1.287   .     A
C391   O430    1.301   .     A
C391   O431    1.287   .     A
C392   N422    1.367   .     A
C392   H397    1.080   .     S
Cu393  Cu394   2.676   .     S
Cu393  O527    1.979   1_455 S
Cu393  O522    1.960   1_455 S
Cu393  N421    2.011   .     S
Cu393  O425    1.958   .     S
Cu393  O437    1.972   .     S
Cu394  O521    1.958   1_455 S
Cu394  O524    1.972   1_455 S
Cu394  N422    2.011   .     S
Cu394  O435    1.960   .     S
Cu394  O438    1.979   .     S
Cu395  O616    1.958   1_545 S
Cu395  N423    2.011   .     S
Cu395  O608    1.979   1_545 S
Cu395  Cu396   2.676   .     S
Cu395  O427    1.960   .     S
Cu395  O430    1.972   .     S
Cu396  O605    1.972   1_545 S
Cu396  O604    1.960   1_545 S
Cu396  N424    2.011   .     S
Cu396  O426    1.958   .     S
Cu396  O431    1.979   .     S
N421   C442    1.367   1_455 S
N422   C443    1.367   1_455 S
N423   C536    1.367   1_545 A
N424   C533    1.366   1_545 S
O428   Cu572   1.960   .     S
O429   Cu572   1.972   .     S
O432   Cu571   1.979   .     S
O433   Cu482   1.958   .     S
O434   Cu481   1.960   .     S
O436   Cu482   1.972   .     S
O439   Cu481   1.979   .     S
O440   Cu571   1.958   .     S
C441   O523    1.290   .     A
C441   O513    1.286   .     A
C441   C470    1.445   .     S
C442   H486    1.080   .     S
C442   C795    1.413   .     S
C442   N421    1.367   1_655 S
C443   H487    1.080   .     S
C443   N422    1.367   1_655 S
C444   N509    1.367   .     A
C444   H488    1.080   .     S
C444   C832    1.413   .     S
C445   H489    1.080   .     S
C445   N688    1.366   .     S
C446   H490    1.080   .     S
C446   C799    1.413   .     S
C446   N511    1.366   .     S
C447   N512    1.367   .     A
C447   H491    1.080   .     S
C448   H492    1.080   .     S
C448   N687    1.367   .     A
C448   C797    1.413   .     S
C449   C460    1.396   .     A
C449   I493    2.156   .     S
C449   C468    1.410   .     A
C450   C467    1.410   .     A
C450   C461    1.396   .     A
C450   I501    2.156   .     S
C451   C458    1.396   .     A
C451   I502    2.165   .     S
C451   C467    1.420   .     A
C452   C469    1.445   .     S
C452   O522    1.290   .     A
C452   O521    1.286   .     A
C453   C468    1.420   .     A
C453   C459    1.396   .     A
C453   I503    2.165   .     S
C454   C470    1.406   .     A
C454   I504    2.144   .     S
C454   C465    1.398   .     A
C455   I505    2.144   .     S
C455   C469    1.406   .     A
C455   C466    1.398   .     A
C456   I506    2.136   .     S
C456   C462    1.398   .     A
C456   C469    1.406   .     A
C457   C470    1.406   .     A
C457   I507    2.137   .     S
C457   C464    1.398   .     A
C458   C472    1.410   .     A
C458   I508    2.156   .     S
C459   C471    1.410   .     A
C459   I494    2.156   .     S
C460   I495    2.165   .     S
C460   C471    1.420   .     A
C461   C472    1.420   .     A
C461   I496    2.165   .     S
C462   I497    2.144   .     S
C462   C475    1.406   .     A
C463   O527    1.287   .     A
C463   O524    1.301   .     A
C463   C468    1.465   .     S
C464   C473    1.406   .     A
C464   I498    2.144   .     S
C465   I499    2.137   .     S
C465   C473    1.406   .     A
C466   C475    1.406   .     A
C466   I500    2.137   .     S
C467   C474    1.465   .     S
C471   C479    1.465   .     S
C472   C478    1.465   .     S
C473   C477    1.445   .     S
C474   O526    1.287   .     A
C474   O525    1.301   .     A
C475   C476    1.445   .     S
C476   O516    1.290   .     A
C476   O528    1.286   .     A
C477   O514    1.286   .     A
C477   O515    1.290   .     A
C478   O517    1.301   .     A
C478   O520    1.287   .     A
C479   O518    1.301   .     A
C479   O519    1.287   .     A
C480   N510    1.367   .     A
C480   H485    1.080   .     S
Cu481  Cu482   2.676   .     S
Cu481  N509    2.011   .     S
Cu481  O513    1.958   .     S
Cu481  O525    1.972   .     S
Cu482  N510    2.011   .     S
Cu482  O523    1.960   .     S
Cu482  O526    1.979   .     S
Cu483  O704    1.958   1_545 S
Cu483  N511    2.011   .     S
Cu483  O696    1.979   1_545 S
Cu483  Cu484   2.676   .     S
Cu483  O515    1.960   .     S
Cu483  O518    1.972   .     S
Cu484  O693    1.972   1_545 S
Cu484  O692    1.960   1_545 S
Cu484  N512    2.011   .     S
Cu484  O514    1.958   .     S
Cu484  O519    1.979   .     S
N511   C624    1.367   1_545 A
N512   C621    1.366   1_545 S
O516   Cu660   1.960   .     S
O517   Cu660   1.972   .     S
O520   Cu659   1.979   .     S
O521   Cu394   1.958   1_655 S
O522   Cu393   1.960   1_655 S
O524   Cu394   1.972   1_655 S
O527   Cu393   1.979   1_655 S
O528   Cu659   1.958   .     S
C529   O611    1.290   .     A
C529   O601    1.286   .     A
C529   C558    1.445   .     S
C530   H574    1.080   .     S
C530   C883    1.413   .     S
C530   N685    1.367   .     S
C531   H575    1.080   .     S
C531   N686    1.367   .     S
C532   N597    1.367   .     A
C532   H576    1.080   .     S
C532   C920    1.413   .     S
C533   H577    1.080   .     S
C533   N424    1.366   1_565 S
C534   H578    1.080   .     S
C534   C887    1.413   .     S
C534   N599    1.366   .     S
C535   N600    1.367   .     A
C535   H579    1.080   .     S
C536   H580    1.080   .     S
C536   N423    1.367   1_565 A
C536   C885    1.413   .     S
C537   C548    1.396   .     A
C537   I581    2.156   .     S
C537   C556    1.410   .     A
C538   C555    1.410   .     A
C538   C549    1.396   .     A
C538   I589    2.156   .     S
C539   C546    1.396   .     A
C539   I590    2.165   .     S
C539   C555    1.420   .     A
C540   C557    1.445   .     S
C540   O610    1.290   .     A
C540   O609    1.286   .     A
C541   C556    1.420   .     A
C541   C547    1.396   .     A
C541   I591    2.165   .     S
C542   C558    1.406   .     A
C542   I592    2.144   .     S
C542   C553    1.398   .     A
C543   I593    2.144   .     S
C543   C557    1.406   .     A
C543   C554    1.398   .     A
C544   I594    2.136   .     S
C544   C550    1.398   .     A
C544   C557    1.406   .     A
C545   C558    1.406   .     A
C545   I595    2.137   .     S
C545   C552    1.398   .     A
C546   C560    1.410   .     A
C546   I596    2.156   .     S
C547   C559    1.410   .     A
C547   I582    2.156   .     S
C548   I583    2.165   .     S
C548   C559    1.420   .     A
C549   C560    1.420   .     A
C549   I584    2.165   .     S
C550   I585    2.144   .     S
C550   C563    1.406   .     A
C551   O615    1.287   .     A
C551   O612    1.301   .     A
C551   C556    1.465   .     S
C552   C561    1.406   .     A
C552   I586    2.144   .     S
C553   I587    2.137   .     S
C553   C561    1.406   .     A
C554   C563    1.406   .     A
C554   I588    2.137   .     S
C555   C562    1.465   .     S
C559   C567    1.465   .     S
C560   C566    1.465   .     S
C561   C565    1.445   .     S
C562   O614    1.287   .     A
C562   O613    1.301   .     A
C563   C564    1.445   .     S
C564   O604    1.290   .     A
C564   O616    1.286   .     A
C565   O602    1.286   .     A
C565   O603    1.290   .     A
C566   O605    1.301   .     A
C566   O608    1.287   .     A
C567   O606    1.301   .     A
C567   O607    1.287   .     A
C568   N598    1.367   .     A
C568   H573    1.080   .     S
Cu569  Cu570   2.676   .     S
Cu569  O703    1.979   1_455 S
Cu569  O698    1.960   1_455 S
Cu569  N597    2.011   .     S
Cu569  O601    1.958   .     S
Cu569  O613    1.972   .     S
Cu570  O697    1.958   1_455 S
Cu570  O700    1.972   1_455 S
Cu570  N598    2.011   .     S
Cu570  O611    1.960   .     S
Cu570  O614    1.979   .     S
Cu571  N599    2.011   .     S
Cu571  Cu572   2.676   .     S
Cu571  O603    1.960   .     S
Cu571  O606    1.972   .     S
Cu572  N600    2.011   .     S
Cu572  O602    1.958   .     S
Cu572  O607    1.979   .     S
N597   C618    1.367   1_455 S
N598   C619    1.367   1_455 S
O604   Cu396   1.960   1_565 S
O605   Cu396   1.972   1_565 S
O608   Cu395   1.979   1_565 S
O609   Cu658   1.958   .     S
O610   Cu657   1.960   .     S
O612   Cu658   1.972   .     S
O615   Cu657   1.979   .     S
O616   Cu395   1.958   1_565 S
C617   O699    1.290   .     A
C617   O689    1.286   .     A
C617   C646    1.445   .     S
C618   H662    1.080   .     S
C618   C971    1.413   .     S
C618   N597    1.367   1_655 S
C619   H663    1.080   .     S
C619   N598    1.367   1_655 S
C620   N685    1.367   .     A
C620   H664    1.080   .     S
C620   C1008   1.413   .     S
C621   H665    1.080   .     S
C621   N512    1.366   1_565 S
C622   H666    1.080   .     S
C622   C975    1.413   .     S
C622   N687    1.366   .     S
C623   N688    1.367   .     A
C623   H667    1.080   .     S
C624   H668    1.080   .     S
C624   N511    1.367   1_565 A
C624   C973    1.413   .     S
C625   C636    1.396   .     A
C625   I669    2.156   .     S
C625   C644    1.410   .     A
C626   C643    1.410   .     A
C626   C637    1.396   .     A
C626   I677    2.156   .     S
C627   C634    1.396   .     A
C627   I678    2.165   .     S
C627   C643    1.420   .     A
C628   C645    1.445   .     S
C628   O698    1.290   .     A
C628   O697    1.286   .     A
C629   C644    1.420   .     A
C629   C635    1.396   .     A
C629   I679    2.165   .     S
C630   C646    1.406   .     A
C630   I680    2.144   .     S
C630   C641    1.398   .     A
C631   I681    2.144   .     S
C631   C645    1.406   .     A
C631   C642    1.398   .     A
C632   I682    2.136   .     S
C632   C638    1.398   .     A
C632   C645    1.406   .     A
C633   C646    1.406   .     A
C633   I683    2.137   .     S
C633   C640    1.398   .     A
C634   C648    1.410   .     A
C634   I684    2.156   .     S
C635   C647    1.410   .     A
C635   I670    2.156   .     S
C636   I671    2.165   .     S
C636   C647    1.420   .     A
C637   C648    1.420   .     A
C637   I672    2.165   .     S
C638   I673    2.144   .     S
C638   C651    1.406   .     A
C639   O703    1.287   .     A
C639   O700    1.301   .     A
C639   C644    1.465   .     S
C640   C649    1.406   .     A
C640   I674    2.144   .     S
C641   I675    2.137   .     S
C641   C649    1.406   .     A
C642   C651    1.406   .     A
C642   I676    2.137   .     S
C643   C650    1.465   .     S
C647   C655    1.465   .     S
C648   C654    1.465   .     S
C649   C653    1.445   .     S
C650   O702    1.287   .     A
C650   O701    1.301   .     A
C651   C652    1.445   .     S
C652   O692    1.290   .     A
C652   O704    1.286   .     A
C653   O690    1.286   .     A
C653   O691    1.290   .     A
C654   O693    1.301   .     A
C654   O696    1.287   .     A
C655   O694    1.301   .     A
C655   O695    1.287   .     A
C656   N686    1.367   .     A
C656   H661    1.080   .     S
Cu657  Cu658   2.676   .     S
Cu657  N685    2.011   .     S
Cu657  O689    1.958   .     S
Cu657  O701    1.972   .     S
Cu658  N686    2.011   .     S
Cu658  O699    1.960   .     S
Cu658  O702    1.979   .     S
Cu659  N687    2.011   .     S
Cu659  Cu660   2.676   .     S
Cu659  O691    1.960   .     S
Cu659  O694    1.972   .     S
Cu660  N688    2.011   .     S
Cu660  O690    1.958   .     S
Cu660  O695    1.979   .     S
O692   Cu484   1.960   1_565 S
O693   Cu484   1.972   1_565 S
O696   Cu483   1.979   1_565 S
O697   Cu570   1.958   1_655 S
O698   Cu569   1.960   1_655 S
O700   Cu570   1.972   1_655 S
O703   Cu569   1.979   1_655 S
O704   Cu483   1.958   1_565 S
C705   O787    1.290   .     A
C705   O777    1.286   .     A
C705   C734    1.445   .     S
C706   H750    1.080   .     S
C706   C3      1.413   1_556 S
C706   N861    1.367   .     S
C707   H751    1.080   .     S
C707   N862    1.367   .     S
C708   N773    1.367   .     A
C708   H752    1.080   .     S
C708   C40     1.413   1_556 S
C709   H753    1.080   .     S
C709   N952    1.366   .     S
C710   H754    1.080   .     S
C710   C7      1.413   1_556 S
C710   N775    1.366   .     S
C711   N776    1.367   .     A
C711   H755    1.080   .     S
C712   H756    1.080   .     S
C712   N951    1.367   .     A
C712   C5      1.413   1_556 S
C713   C724    1.396   .     A
C713   I757    2.156   .     S
C713   C732    1.410   .     A
C714   C731    1.410   .     A
C714   C725    1.396   .     A
C714   I765    2.156   .     S
C715   C722    1.396   .     A
C715   I766    2.165   .     S
C715   C731    1.420   .     A
C716   C733    1.445   .     S
C716   O786    1.290   .     A
C716   O785    1.286   .     A
C717   C732    1.420   .     A
C717   C723    1.396   .     A
C717   I767    2.165   .     S
C718   C734    1.406   .     A
C718   I768    2.144   .     S
C718   C729    1.398   .     A
C719   I769    2.144   .     S
C719   C733    1.406   .     A
C719   C730    1.398   .     A
C720   I770    2.136   .     S
C720   C726    1.398   .     A
C720   C733    1.406   .     A
C721   C734    1.406   .     A
C721   I771    2.137   .     S
C721   C728    1.398   .     A
C722   C736    1.410   .     A
C722   I772    2.156   .     S
C723   C735    1.410   .     A
C723   I758    2.156   .     S
C724   I759    2.165   .     S
C724   C735    1.420   .     A
C725   C736    1.420   .     A
C725   I760    2.165   .     S
C726   I761    2.144   .     S
C726   C739    1.406   .     A
C727   O791    1.287   .     A
C727   O788    1.301   .     A
C727   C732    1.465   .     S
C728   C737    1.406   .     A
C728   I762    2.144   .     S
C729   I763    2.137   .     S
C729   C737    1.406   .     A
C730   C739    1.406   .     A
C730   I764    2.137   .     S
C731   C738    1.465   .     S
C735   C743    1.465   .     S
C736   C742    1.465   .     S
C737   C741    1.445   .     S
C738   O790    1.287   .     A
C738   O789    1.301   .     A
C739   C740    1.445   .     S
C740   O780    1.290   .     A
C740   O792    1.286   .     A
C741   O778    1.286   .     A
C741   O779    1.290   .     A
C742   O781    1.301   .     A
C742   O784    1.287   .     A
C743   O782    1.301   .     A
C743   O783    1.287   .     A
C744   N774    1.367   .     A
C744   H749    1.080   .     S
Cu745  Cu746   2.676   .     S
Cu745  O879    1.979   1_455 S
Cu745  O874    1.960   1_455 S
Cu745  N773    2.011   .     S
Cu745  O777    1.958   .     S
Cu745  O789    1.972   .     S
Cu746  O873    1.958   1_455 S
Cu746  O876    1.972   1_455 S
Cu746  N774    2.011   .     S
Cu746  O787    1.960   .     S
Cu746  O790    1.979   .     S
Cu747  O968    1.958   1_545 S
Cu747  N775    2.011   .     S
Cu747  O960    1.979   1_545 S
Cu747  Cu748   2.676   .     S
Cu747  O779    1.960   .     S
Cu747  O782    1.972   .     S
Cu748  O957    1.972   1_545 S
Cu748  O956    1.960   1_545 S
Cu748  N776    2.011   .     S
Cu748  O778    1.958   .     S
Cu748  O783    1.979   .     S
N773   C794    1.367   1_455 S
N774   C795    1.367   1_455 S
N775   C888    1.367   1_545 A
N776   C885    1.366   1_545 S
O780   Cu924   1.960   .     S
O781   Cu924   1.972   .     S
O784   Cu923   1.979   .     S
O785   Cu834   1.958   .     S
O786   Cu833   1.960   .     S
O788   Cu834   1.972   .     S
O791   Cu833   1.979   .     S
O792   Cu923   1.958   .     S
C793   O875    1.290   .     A
C793   O865    1.286   .     A
C793   C822    1.445   .     S
C794   H838    1.080   .     S
C794   C91     1.413   1_556 S
C794   N773    1.367   1_655 S
C795   H839    1.080   .     S
C795   N774    1.367   1_655 S
C796   N861    1.367   .     A
C796   H840    1.080   .     S
C796   C128    1.413   1_556 S
C797   H841    1.080   .     S
C797   N1040   1.366   .     S
C798   H842    1.080   .     S
C798   C95     1.413   1_556 S
C798   N863    1.366   .     S
C799   N864    1.367   .     A
C799   H843    1.080   .     S
C800   H844    1.080   .     S
C800   N1039   1.367   .     A
C800   C93     1.413   1_556 S
C801   C812    1.396   .     A
C801   I845    2.156   .     S
C801   C820    1.410   .     A
C802   C819    1.410   .     A
C802   C813    1.396   .     A
C802   I853    2.156   .     S
C803   C810    1.396   .     A
C803   I854    2.165   .     S
C803   C819    1.420   .     A
C804   C821    1.445   .     S
C804   O874    1.290   .     A
C804   O873    1.286   .     A
C805   C820    1.420   .     A
C805   C811    1.396   .     A
C805   I855    2.165   .     S
C806   C822    1.406   .     A
C806   I856    2.144   .     S
C806   C817    1.398   .     A
C807   I857    2.144   .     S
C807   C821    1.406   .     A
C807   C818    1.398   .     A
C808   I858    2.136   .     S
C808   C814    1.398   .     A
C808   C821    1.406   .     A
C809   C822    1.406   .     A
C809   I859    2.137   .     S
C809   C816    1.398   .     A
C810   C824    1.410   .     A
C810   I860    2.156   .     S
C811   C823    1.410   .     A
C811   I846    2.156   .     S
C812   I847    2.165   .     S
C812   C823    1.420   .     A
C813   C824    1.420   .     A
C813   I848    2.165   .     S
C814   I849    2.144   .     S
C814   C827    1.406   .     A
C815   O879    1.287   .     A
C815   O876    1.301   .     A
C815   C820    1.465   .     S
C816   C825    1.406   .     A
C816   I850    2.144   .     S
C817   I851    2.137   .     S
C817   C825    1.406   .     A
C818   C827    1.406   .     A
C818   I852    2.137   .     S
C819   C826    1.465   .     S
C823   C831    1.465   .     S
C824   C830    1.465   .     S
C825   C829    1.445   .     S
C826   O878    1.287   .     A
C826   O877    1.301   .     A
C827   C828    1.445   .     S
C828   O868    1.290   .     A
C828   O880    1.286   .     A
C829   O866    1.286   .     A
C829   O867    1.290   .     A
C830   O869    1.301   .     A
C830   O872    1.287   .     A
C831   O870    1.301   .     A
C831   O871    1.287   .     A
C832   N862    1.367   .     A
C832   H837    1.080   .     S
Cu833  Cu834   2.676   .     S
Cu833  N861    2.011   .     S
Cu833  O865    1.958   .     S
Cu833  O877    1.972   .     S
Cu834  N862    2.011   .     S
Cu834  O875    1.960   .     S
Cu834  O878    1.979   .     S
Cu835  O1056   1.958   1_545 S
Cu835  N863    2.011   .     S
Cu835  O1048   1.979   1_545 S
Cu835  Cu836   2.676   .     S
Cu835  O867    1.960   .     S
Cu835  O870    1.972   .     S
Cu836  O1045   1.972   1_545 S
Cu836  O1044   1.960   1_545 S
Cu836  N864    2.011   .     S
Cu836  O866    1.958   .     S
Cu836  O871    1.979   .     S
N863   C976    1.367   1_545 A
N864   C973    1.366   1_545 S
O868   Cu1012  1.960   .     S
O869   Cu1012  1.972   .     S
O872   Cu1011  1.979   .     S
O873   Cu746   1.958   1_655 S
O874   Cu745   1.960   1_655 S
O876   Cu746   1.972   1_655 S
O879   Cu745   1.979   1_655 S
O880   Cu1011  1.958   .     S
C881   O963    1.290   .     A
C881   O953    1.286   .     A
C881   C910    1.445   .     S
C882   H926    1.080   .     S
C882   C179    1.413   1_556 S
C882   N1037   1.367   .     S
C883   H927    1.080   .     S
C883   N1038   1.367   .     S
C884   N949    1.367   .     A
C884   H928    1.080   .     S
C884   C216    1.413   1_556 S
C885   H929    1.080   .     S
C885   N776    1.366   1_565 S
C886   H930    1.080   .     S
C886   C183    1.413   1_556 S
C886   N951    1.366   .     S
C887   N952    1.367   .     A
C887   H931    1.080   .     S
C888   H932    1.080   .     S
C888   N775    1.367   1_565 A
C888   C181    1.413   1_556 S
C889   C900    1.396   .     A
C889   I933    2.156   .     S
C889   C908    1.410   .     A
C890   C907    1.410   .     A
C890   C901    1.396   .     A
C890   I941    2.156   .     S
C891   C898    1.396   .     A
C891   I942    2.165   .     S
C891   C907    1.420   .     A
C892   C909    1.445   .     S
C892   O962    1.290   .     A
C892   O961    1.286   .     A
C893   C908    1.420   .     A
C893   C899    1.396   .     A
C893   I943    2.165   .     S
C894   C910    1.406   .     A
C894   I944    2.144   .     S
C894   C905    1.398   .     A
C895   I945    2.144   .     S
C895   C909    1.406   .     A
C895   C906    1.398   .     A
C896   I946    2.136   .     S
C896   C902    1.398   .     A
C896   C909    1.406   .     A
C897   C910    1.406   .     A
C897   I947    2.137   .     S
C897   C904    1.398   .     A
C898   C912    1.410   .     A
C898   I948    2.156   .     S
C899   C911    1.410   .     A
C899   I934    2.156   .     S
C900   I935    2.165   .     S
C900   C911    1.420   .     A
C901   C912    1.420   .     A
C901   I936    2.165   .     S
C902   I937    2.144   .     S
C902   C915    1.406   .     A
C903   O967    1.287   .     A
C903   O964    1.301   .     A
C903   C908    1.465   .     S
C904   C913    1.406   .     A
C904   I938    2.144   .     S
C905   I939    2.137   .     S
C905   C913    1.406   .     A
C906   C915    1.406   .     A
C906   I940    2.137   .     S
C907   C914    1.465   .     S
C911   C919    1.465   .     S
C912   C918    1.465   .     S
C913   C917    1.445   .     S
C914   O966    1.287   .     A
C914   O965    1.301   .     A
C915   C916    1.445   .     S
C916   O956    1.290   .     A
C916   O968    1.286   .     A
C917   O954    1.286   .     A
C917   O955    1.290   .     A
C918   O957    1.301   .     A
C918   O960    1.287   .     A
C919   O958    1.301   .     A
C919   O959    1.287   .     A
C920   N950    1.367   .     A
C920   H925    1.080   .     S
Cu921  Cu922   2.676   .     S
Cu921  O1055   1.979   1_455 S
Cu921  O1050   1.960   1_455 S
Cu921  N949    2.011   .     S
Cu921  O953    1.958   .     S
Cu921  O965    1.972   .     S
Cu922  O1049   1.958   1_455 S
Cu922  O1052   1.972   1_455 S
Cu922  N950    2.011   .     S
Cu922  O963    1.960   .     S
Cu922  O966    1.979   .     S
Cu923  N951    2.011   .     S
Cu923  Cu924   2.676   .     S
Cu923  O955    1.960   .     S
Cu923  O958    1.972   .     S
Cu924  N952    2.011   .     S
Cu924  O954    1.958   .     S
Cu924  O959    1.979   .     S
N949   C970    1.367   1_455 S
N950   C971    1.367   1_455 S
O956   Cu748   1.960   1_565 S
O957   Cu748   1.972   1_565 S
O960   Cu747   1.979   1_565 S
O961   Cu1010  1.958   .     S
O962   Cu1009  1.960   .     S
O964   Cu1010  1.972   .     S
O967   Cu1009  1.979   .     S
O968   Cu747   1.958   1_565 S
C969   O1051   1.290   .     A
C969   O1041   1.286   .     A
C969   C998    1.445   .     S
C970   H1014   1.080   .     S
C970   C267    1.413   1_556 S
C970   N949    1.367   1_655 S
C971   H1015   1.080   .     S
C971   N950    1.367   1_655 S
C972   N1037   1.367   .     A
C972   H1016   1.080   .     S
C972   C304    1.413   1_556 S
C973   H1017   1.080   .     S
C973   N864    1.366   1_565 S
C974   H1018   1.080   .     S
C974   C271    1.413   1_556 S
C974   N1039   1.366   .     S
C975   N1040   1.367   .     A
C975   H1019   1.080   .     S
C976   H1020   1.080   .     S
C976   N863    1.367   1_565 A
C976   C269    1.413   1_556 S
C977   C988    1.396   .     A
C977   I1021   2.156   .     S
C977   C996    1.410   .     A
C978   C995    1.410   .     A
C978   C989    1.396   .     A
C978   I1029   2.156   .     S
C979   C986    1.396   .     A
C979   I1030   2.165   .     S
C979   C995    1.420   .     A
C980   C997    1.445   .     S
C980   O1050   1.290   .     A
C980   O1049   1.286   .     A
C981   C996    1.420   .     A
C981   C987    1.396   .     A
C981   I1031   2.165   .     S
C982   C998    1.406   .     A
C982   I1032   2.144   .     S
C982   C993    1.398   .     A
C983   I1033   2.144   .     S
C983   C997    1.406   .     A
C983   C994    1.398   .     A
C984   I1034   2.136   .     S
C984   C990    1.398   .     A
C984   C997    1.406   .     A
C985   C998    1.406   .     A
C985   I1035   2.137   .     S
C985   C992    1.398   .     A
C986   C1000   1.410   .     A
C986   I1036   2.156   .     S
C987   C999    1.410   .     A
C987   I1022   2.156   .     S
C988   I1023   2.165   .     S
C988   C999    1.420   .     A
C989   C1000   1.420   .     A
C989   I1024   2.165   .     S
C990   I1025   2.144   .     S
C990   C1003   1.406   .     A
C991   O1055   1.287   .     A
C991   O1052   1.301   .     A
C991   C996    1.465   .     S
C992   C1001   1.406   .     A
C992   I1026   2.144   .     S
C993   I1027   2.137   .     S
C993   C1001   1.406   .     A
C994   C1003   1.406   .     A
C994   I1028   2.137   .     S
C995   C1002   1.465   .     S
C999   C1007   1.465   .     S
C1000  C1006   1.465   .     S
C1001  C1005   1.445   .     S
C1002  O1054   1.287   .     A
C1002  O1053   1.301   .     A
C1003  C1004   1.445   .     S
C1004  O1044   1.290   .     A
C1004  O1056   1.286   .     A
C1005  O1042   1.286   .     A
C1005  O1043   1.290   .     A
C1006  O1045   1.301   .     A
C1006  O1048   1.287   .     A
C1007  O1046   1.301   .     A
C1007  O1047   1.287   .     A
C1008  N1038   1.367   .     A
C1008  H1013   1.080   .     S
Cu1009 Cu1010  2.676   .     S
Cu1009 N1037   2.011   .     S
Cu1009 O1041   1.958   .     S
Cu1009 O1053   1.972   .     S
Cu1010 N1038   2.011   .     S
Cu1010 O1051   1.960   .     S
Cu1010 O1054   1.979   .     S
Cu1011 N1039   2.011   .     S
Cu1011 Cu1012  2.676   .     S
Cu1011 O1043   1.960   .     S
Cu1011 O1046   1.972   .     S
Cu1012 N1040   2.011   .     S
Cu1012 O1042   1.958   .     S
Cu1012 O1047   1.979   .     S
O1044  Cu836   1.960   1_565 S
O1045  Cu836   1.972   1_565 S
O1048  Cu835   1.979   1_565 S
O1049  Cu922   1.958   1_655 S
O1050  Cu921   1.960   1_655 S
O1052  Cu922   1.972   1_655 S
O1055  Cu921   1.979   1_655 S
O1056  Cu835   1.958   1_565 S
