data_str_m2_o1_o10_pcu_sym.115
_audit_creation_date              2020-01-03
_audit_creation_method            'Materials Studio'
_symmetry_space_group_name_H-M    'P1'
_symmetry_Int_Tables_number       1
_symmetry_cell_setting            triclinic
loop_
_symmetry_equiv_pos_as_xyz
  x,y,z
_cell_length_a                    26.5122
_cell_length_b                    32.8842
_cell_length_c                    29.2477
_cell_angle_alpha                 88.4926
_cell_angle_beta                  95.9180
_cell_angle_gamma                 93.3688
loop_
_atom_site_label
_atom_site_type_symbol
_atom_site_fract_x
_atom_site_fract_y
_atom_site_fract_z
_atom_site_U_iso_or_equiv
_atom_site_adp_type
_atom_site_occupancy
O1     O     0.16666   0.10655   0.20625   0.00000  Uiso   1.00
O2     O     0.16667   0.22678   0.12709   0.00000  Uiso   1.00
O3     O     0.16666   0.10654   0.12706   0.00000  Uiso   1.00
O4     O     0.16667   0.22679   0.20628   0.00000  Uiso   1.00
C5     C     0.16736   0.08762   0.16712   0.00000  Uiso   1.00
C6     C     0.16359   0.24563   0.16610   0.00000  Uiso   1.00
O7     O     0.09161   0.16667   0.19712   0.00000  Uiso   1.00
O8     O     0.24172   0.16666   0.13621   0.00000  Uiso   1.00
O9     O     0.09161   0.16666   0.11793   0.00000  Uiso   1.00
O10    O     0.24172   0.16667   0.21540   0.00000  Uiso   1.00
C11    C     0.06851   0.16787   0.15526   0.00000  Uiso   1.00
C12    C     0.26481   0.16542   0.17803   0.00000  Uiso   1.00
Cu13   Cu    0.16667   0.16667   0.21355   0.00000  Uiso   1.00
Cu14   Cu    0.16667   0.16666   0.11978   0.00000  Uiso   1.00
N15    N     0.16668   0.16668   0.28403   0.00000  Uiso   1.00
N16    N     0.16665   0.16666   0.04931   0.00000  Uiso   1.00
C17    C     0.01410   0.17211   0.14964   0.00000  Uiso   1.00
C18    C     0.31915   0.16096   0.18336   0.00000  Uiso   1.00
C19    C     0.15411   0.02251   0.12622   0.00000  Uiso   1.00
C20    C     0.16652   0.31097   0.20746   0.00000  Uiso   1.00
H21    H     0.14793   0.03954   0.09449   0.00000  Uiso   1.00
H22    H     0.16688   0.29462   0.23960   0.00000  Uiso   1.00
C23    C     0.15014   0.31353   0.12516   0.00000  Uiso   1.00
C24    C     0.17629   0.01964   0.20816   0.00000  Uiso   1.00
C25    C     0.15901   0.29036   0.16586   0.00000  Uiso   1.00
C26    C     0.16679   0.04279   0.16745   0.00000  Uiso   1.00
C27    C     0.12948   0.14471   0.02042   0.00000  Uiso   1.00
C28    C     0.20531   0.18677   0.31263   0.00000  Uiso   1.00
C29    C     0.13012   0.14530   0.30503   0.00000  Uiso   1.00
C30    C     0.20438   0.18688   0.02817   0.00000  Uiso   1.00
H31    H     0.33036   0.18454   0.11725   0.00000  Uiso   1.00
H32    H     0.00285   0.14772   0.21519   0.00000  Uiso   1.00
C33    C     0.13542   0.29454   0.08116   0.00000  Uiso   1.00
C34    C     0.17038   0.29532   0.04876   0.00000  Uiso   1.00
C35    C     0.15805   0.27507   0.00794   0.00000  Uiso   1.00
C36    C     0.11145   0.25342   0.33270   0.00000  Uiso   1.00
C37    C     0.07611   0.25283   0.03179   0.00000  Uiso   1.00
C38    C     0.08806   0.27339   0.07280   0.00000  Uiso   1.00
H39    H     0.20754   0.31075   0.05559   0.00000  Uiso   1.00
H40    H     0.18522   0.27611   0.31687   0.00000  Uiso   1.00
H41    H     0.10387   0.23669   0.30138   0.00000  Uiso   1.00
H42    H     0.03977   0.23634   0.02588   0.00000  Uiso   1.00
H43    H     0.06102   0.27237   0.09824   0.00000  Uiso   1.00
C44    C     0.20379   0.03750   0.24964   0.00000  Uiso   1.00
C45    C     0.24999   0.06018   0.24636   0.00000  Uiso   1.00
C46    C     0.27328   0.08109   0.28426   0.00000  Uiso   1.00
C47    C     0.25116   0.07830   0.32550   0.00000  Uiso   1.00
C48    C     0.20940   0.05190   0.33046   0.00000  Uiso   1.00
C49    C     0.18443   0.03232   0.29223   0.00000  Uiso   1.00
H50    H     0.26653   0.06318   0.21398   0.00000  Uiso   1.00
H51    H     0.30761   0.09999   0.28125   0.00000  Uiso   1.00
H52    H     0.26484   0.09705   0.02035   0.00000  Uiso   1.00
H53    H     0.19577   0.04814   0.03054   0.00000  Uiso   1.00
H54    H     0.14931   0.01448   0.29531   0.00000  Uiso   1.00
C55    C     0.08882   0.11674   0.03725   0.00000  Uiso   1.00
C56    C     0.08962   0.07454   0.03155   0.00000  Uiso   1.00
C57    C     0.05279   0.04765   0.04841   0.00000  Uiso   1.00
C58    C     0.01431   0.06286   0.07082   0.00000  Uiso   1.00
C59    C     0.00969   0.10486   0.07133   0.00000  Uiso   1.00
C60    C     0.04381   0.13123   0.04991   0.00000  Uiso   1.00
H61    H     0.11787   0.06236   0.01331   0.00000  Uiso   1.00
H62    H     0.05431   0.01522   0.04426   0.00000  Uiso   1.00
H63    H     0.31982   0.04227   0.08529   0.00000  Uiso   1.00
H64    H     0.31118   0.11668   0.08597   0.00000  Uiso   1.00
H65    H     0.03764   0.16347   0.04745   0.00000  Uiso   1.00
C66    C     0.25305   0.20408   0.29545   0.00000  Uiso   1.00
C67    C     0.25569   0.24049   0.26969   0.00000  Uiso   1.00
C68    C     0.29977   0.25399   0.25036   0.00000  Uiso   1.00
C69    C     0.00918   0.23125   0.25720   0.00000  Uiso   1.00
C70    C     0.00828   0.19623   0.28525   0.00000  Uiso   1.00
C71    C     0.29754   0.18330   0.30503   0.00000  Uiso   1.00
H72    H     0.22387   0.25809   0.26338   0.00000  Uiso   1.00
H73    H     0.30034   0.28162   0.22939   0.00000  Uiso   1.00
H74    H     0.04274   0.24073   0.24067   0.00000  Uiso   1.00
H75    H     0.04149   0.17882   0.29130   0.00000  Uiso   1.00
H76    H     0.29750   0.15648   0.32670   0.00000  Uiso   1.00
H77    H     0.10126   0.12771   0.28380   0.00000  Uiso   1.00
H78    H     0.23493   0.20271   0.04928   0.00000  Uiso   1.00
O79    O     0.50000   0.10655   0.20625   0.00000  Uiso   1.00
O80    O     0.50000   0.22678   0.12709   0.00000  Uiso   1.00
O81    O     0.50000   0.10654   0.12706   0.00000  Uiso   1.00
O82    O     0.50000   0.22679   0.20628   0.00000  Uiso   1.00
C83    C     0.50070   0.08762   0.16712   0.00000  Uiso   1.00
C84    C     0.49692   0.24563   0.16610   0.00000  Uiso   1.00
O85    O     0.42495   0.16667   0.19712   0.00000  Uiso   1.00
O86    O     0.57505   0.16666   0.13621   0.00000  Uiso   1.00
O87    O     0.42494   0.16666   0.11793   0.00000  Uiso   1.00
O88    O     0.57506   0.16667   0.21540   0.00000  Uiso   1.00
C89    C     0.40184   0.16787   0.15526   0.00000  Uiso   1.00
C90    C     0.59814   0.16542   0.17803   0.00000  Uiso   1.00
Cu91   Cu    0.50000   0.16667   0.21355   0.00000  Uiso   1.00
Cu92   Cu    0.50000   0.16666   0.11978   0.00000  Uiso   1.00
N93    N     0.50001   0.16668   0.28403   0.00000  Uiso   1.00
N94    N     0.49999   0.16666   0.04931   0.00000  Uiso   1.00
C95    C     0.34743   0.17211   0.14964   0.00000  Uiso   1.00
C96    C     0.65249   0.16096   0.18336   0.00000  Uiso   1.00
C97    C     0.48745   0.02251   0.12622   0.00000  Uiso   1.00
C98    C     0.49985   0.31097   0.20746   0.00000  Uiso   1.00
H99    H     0.48127   0.03954   0.09449   0.00000  Uiso   1.00
H100   H     0.50022   0.29462   0.23960   0.00000  Uiso   1.00
C101   C     0.48347   0.31353   0.12516   0.00000  Uiso   1.00
C102   C     0.50962   0.01964   0.20816   0.00000  Uiso   1.00
C103   C     0.49234   0.29036   0.16586   0.00000  Uiso   1.00
C104   C     0.50012   0.04279   0.16745   0.00000  Uiso   1.00
C105   C     0.46281   0.14471   0.02042   0.00000  Uiso   1.00
C106   C     0.53864   0.18677   0.31263   0.00000  Uiso   1.00
C107   C     0.46345   0.14530   0.30503   0.00000  Uiso   1.00
C108   C     0.53771   0.18688   0.02817   0.00000  Uiso   1.00
H109   H     0.66369   0.18454   0.11725   0.00000  Uiso   1.00
H110   H     0.33618   0.14772   0.21519   0.00000  Uiso   1.00
C111   C     0.46876   0.29454   0.08116   0.00000  Uiso   1.00
C112   C     0.50372   0.29532   0.04876   0.00000  Uiso   1.00
C113   C     0.49138   0.27507   0.00794   0.00000  Uiso   1.00
C114   C     0.44478   0.25342   0.33270   0.00000  Uiso   1.00
C115   C     0.40944   0.25283   0.03179   0.00000  Uiso   1.00
C116   C     0.42139   0.27339   0.07280   0.00000  Uiso   1.00
H117   H     0.54088   0.31075   0.05559   0.00000  Uiso   1.00
H118   H     0.51855   0.27611   0.31687   0.00000  Uiso   1.00
H119   H     0.43720   0.23669   0.30138   0.00000  Uiso   1.00
H120   H     0.37310   0.23634   0.02588   0.00000  Uiso   1.00
H121   H     0.39436   0.27237   0.09824   0.00000  Uiso   1.00
C122   C     0.53712   0.03750   0.24964   0.00000  Uiso   1.00
C123   C     0.58332   0.06018   0.24636   0.00000  Uiso   1.00
C124   C     0.60662   0.08109   0.28426   0.00000  Uiso   1.00
C125   C     0.58449   0.07830   0.32550   0.00000  Uiso   1.00
C126   C     0.54273   0.05190   0.33046   0.00000  Uiso   1.00
C127   C     0.51776   0.03232   0.29223   0.00000  Uiso   1.00
H128   H     0.59986   0.06318   0.21398   0.00000  Uiso   1.00
H129   H     0.64094   0.09999   0.28125   0.00000  Uiso   1.00
H130   H     0.59818   0.09705   0.02035   0.00000  Uiso   1.00
H131   H     0.52910   0.04814   0.03054   0.00000  Uiso   1.00
H132   H     0.48264   0.01448   0.29531   0.00000  Uiso   1.00
C133   C     0.42216   0.11674   0.03725   0.00000  Uiso   1.00
C134   C     0.42295   0.07454   0.03155   0.00000  Uiso   1.00
C135   C     0.38612   0.04765   0.04841   0.00000  Uiso   1.00
C136   C     0.34764   0.06286   0.07082   0.00000  Uiso   1.00
C137   C     0.34302   0.10486   0.07133   0.00000  Uiso   1.00
C138   C     0.37715   0.13123   0.04991   0.00000  Uiso   1.00
H139   H     0.45121   0.06236   0.01331   0.00000  Uiso   1.00
H140   H     0.38764   0.01522   0.04426   0.00000  Uiso   1.00
H141   H     0.65315   0.04227   0.08529   0.00000  Uiso   1.00
H142   H     0.64451   0.11668   0.08597   0.00000  Uiso   1.00
H143   H     0.37097   0.16347   0.04745   0.00000  Uiso   1.00
C144   C     0.58638   0.20408   0.29545   0.00000  Uiso   1.00
C145   C     0.58902   0.24049   0.26969   0.00000  Uiso   1.00
C146   C     0.63310   0.25399   0.25036   0.00000  Uiso   1.00
C147   C     0.34251   0.23125   0.25720   0.00000  Uiso   1.00
C148   C     0.34162   0.19623   0.28525   0.00000  Uiso   1.00
C149   C     0.63087   0.18330   0.30503   0.00000  Uiso   1.00
H150   H     0.55721   0.25809   0.26338   0.00000  Uiso   1.00
H151   H     0.63367   0.28162   0.22939   0.00000  Uiso   1.00
H152   H     0.37607   0.24073   0.24067   0.00000  Uiso   1.00
H153   H     0.37482   0.17882   0.29130   0.00000  Uiso   1.00
H154   H     0.63083   0.15648   0.32670   0.00000  Uiso   1.00
H155   H     0.43459   0.12771   0.28380   0.00000  Uiso   1.00
H156   H     0.56826   0.20271   0.04928   0.00000  Uiso   1.00
O157   O     0.83333   0.10655   0.20625   0.00000  Uiso   1.00
O158   O     0.83334   0.22678   0.12709   0.00000  Uiso   1.00
O159   O     0.83333   0.10654   0.12706   0.00000  Uiso   1.00
O160   O     0.83334   0.22679   0.20628   0.00000  Uiso   1.00
C161   C     0.83403   0.08762   0.16712   0.00000  Uiso   1.00
C162   C     0.83026   0.24563   0.16610   0.00000  Uiso   1.00
O163   O     0.75828   0.16667   0.19712   0.00000  Uiso   1.00
O164   O     0.90839   0.16666   0.13621   0.00000  Uiso   1.00
O165   O     0.75828   0.16666   0.11793   0.00000  Uiso   1.00
O166   O     0.90839   0.16667   0.21540   0.00000  Uiso   1.00
C167   C     0.73518   0.16787   0.15526   0.00000  Uiso   1.00
C168   C     0.93148   0.16542   0.17803   0.00000  Uiso   1.00
Cu169  Cu    0.83333   0.16667   0.21355   0.00000  Uiso   1.00
Cu170  Cu    0.83333   0.16666   0.11978   0.00000  Uiso   1.00
N171   N     0.83335   0.16668   0.28403   0.00000  Uiso   1.00
N172   N     0.83332   0.16666   0.04931   0.00000  Uiso   1.00
C173   C     0.68076   0.17211   0.14964   0.00000  Uiso   1.00
C174   C     0.98582   0.16096   0.18336   0.00000  Uiso   1.00
C175   C     0.82078   0.02251   0.12622   0.00000  Uiso   1.00
C176   C     0.83319   0.31097   0.20746   0.00000  Uiso   1.00
H177   H     0.81460   0.03954   0.09449   0.00000  Uiso   1.00
H178   H     0.83355   0.29462   0.23960   0.00000  Uiso   1.00
C179   C     0.81681   0.31353   0.12516   0.00000  Uiso   1.00
C180   C     0.84296   0.01964   0.20816   0.00000  Uiso   1.00
C181   C     0.82567   0.29036   0.16586   0.00000  Uiso   1.00
C182   C     0.83346   0.04279   0.16745   0.00000  Uiso   1.00
C183   C     0.79615   0.14471   0.02042   0.00000  Uiso   1.00
C184   C     0.87198   0.18677   0.31263   0.00000  Uiso   1.00
C185   C     0.79678   0.14530   0.30503   0.00000  Uiso   1.00
C186   C     0.87104   0.18688   0.02817   0.00000  Uiso   1.00
H187   H     0.99703   0.18454   0.11725   0.00000  Uiso   1.00
H188   H     0.66951   0.14772   0.21519   0.00000  Uiso   1.00
C189   C     0.80209   0.29454   0.08116   0.00000  Uiso   1.00
C190   C     0.83705   0.29532   0.04876   0.00000  Uiso   1.00
C191   C     0.82472   0.27507   0.00794   0.00000  Uiso   1.00
C192   C     0.77812   0.25342   0.33270   0.00000  Uiso   1.00
C193   C     0.74277   0.25283   0.03179   0.00000  Uiso   1.00
C194   C     0.75473   0.27339   0.07280   0.00000  Uiso   1.00
H195   H     0.87421   0.31075   0.05559   0.00000  Uiso   1.00
H196   H     0.85188   0.27611   0.31687   0.00000  Uiso   1.00
H197   H     0.77054   0.23669   0.30138   0.00000  Uiso   1.00
H198   H     0.70644   0.23634   0.02588   0.00000  Uiso   1.00
H199   H     0.72769   0.27237   0.09824   0.00000  Uiso   1.00
C200   C     0.87046   0.03750   0.24964   0.00000  Uiso   1.00
C201   C     0.91665   0.06018   0.24636   0.00000  Uiso   1.00
C202   C     0.93995   0.08109   0.28426   0.00000  Uiso   1.00
C203   C     0.91783   0.07830   0.32550   0.00000  Uiso   1.00
C204   C     0.87606   0.05190   0.33046   0.00000  Uiso   1.00
C205   C     0.85110   0.03232   0.29223   0.00000  Uiso   1.00
H206   H     0.93320   0.06318   0.21398   0.00000  Uiso   1.00
H207   H     0.97427   0.09999   0.28125   0.00000  Uiso   1.00
H208   H     0.93151   0.09705   0.02035   0.00000  Uiso   1.00
H209   H     0.86244   0.04814   0.03054   0.00000  Uiso   1.00
H210   H     0.81598   0.01448   0.29531   0.00000  Uiso   1.00
C211   C     0.75549   0.11674   0.03725   0.00000  Uiso   1.00
C212   C     0.75629   0.07454   0.03155   0.00000  Uiso   1.00
C213   C     0.71946   0.04765   0.04841   0.00000  Uiso   1.00
C214   C     0.68098   0.06286   0.07082   0.00000  Uiso   1.00
C215   C     0.67635   0.10486   0.07133   0.00000  Uiso   1.00
C216   C     0.71048   0.13123   0.04991   0.00000  Uiso   1.00
H217   H     0.78454   0.06236   0.01331   0.00000  Uiso   1.00
H218   H     0.72097   0.01522   0.04426   0.00000  Uiso   1.00
H219   H     0.98649   0.04227   0.08529   0.00000  Uiso   1.00
H220   H     0.97784   0.11668   0.08597   0.00000  Uiso   1.00
H221   H     0.70430   0.16347   0.04745   0.00000  Uiso   1.00
C222   C     0.91972   0.20408   0.29545   0.00000  Uiso   1.00
C223   C     0.92236   0.24049   0.26969   0.00000  Uiso   1.00
C224   C     0.96643   0.25399   0.25036   0.00000  Uiso   1.00
C225   C     0.67584   0.23125   0.25720   0.00000  Uiso   1.00
C226   C     0.67495   0.19623   0.28525   0.00000  Uiso   1.00
C227   C     0.96421   0.18330   0.30503   0.00000  Uiso   1.00
H228   H     0.89054   0.25809   0.26338   0.00000  Uiso   1.00
H229   H     0.96701   0.28162   0.22939   0.00000  Uiso   1.00
H230   H     0.70940   0.24073   0.24067   0.00000  Uiso   1.00
H231   H     0.70815   0.17882   0.29130   0.00000  Uiso   1.00
H232   H     0.96416   0.15648   0.32670   0.00000  Uiso   1.00
H233   H     0.76792   0.12771   0.28380   0.00000  Uiso   1.00
H234   H     0.90160   0.20271   0.04928   0.00000  Uiso   1.00
O235   O     0.16666   0.43989   0.20625   0.00000  Uiso   1.00
O236   O     0.16667   0.56011   0.12709   0.00000  Uiso   1.00
O237   O     0.16666   0.43988   0.12706   0.00000  Uiso   1.00
O238   O     0.16667   0.56012   0.20628   0.00000  Uiso   1.00
C239   C     0.16736   0.42095   0.16712   0.00000  Uiso   1.00
C240   C     0.16359   0.57896   0.16610   0.00000  Uiso   1.00
O241   O     0.09161   0.50000   0.19712   0.00000  Uiso   1.00
O242   O     0.24172   0.50000   0.13621   0.00000  Uiso   1.00
O243   O     0.09161   0.49999   0.11793   0.00000  Uiso   1.00
O244   O     0.24172   0.50001   0.21540   0.00000  Uiso   1.00
C245   C     0.06851   0.50120   0.15526   0.00000  Uiso   1.00
C246   C     0.26481   0.49875   0.17803   0.00000  Uiso   1.00
Cu247  Cu    0.16667   0.50001   0.21355   0.00000  Uiso   1.00
Cu248  Cu    0.16667   0.49999   0.11978   0.00000  Uiso   1.00
N249   N     0.16668   0.50001   0.28403   0.00000  Uiso   1.00
N250   N     0.16665   0.49999   0.04931   0.00000  Uiso   1.00
C251   C     0.01410   0.50545   0.14964   0.00000  Uiso   1.00
C252   C     0.31915   0.49430   0.18336   0.00000  Uiso   1.00
C253   C     0.15411   0.35584   0.12622   0.00000  Uiso   1.00
C254   C     0.16652   0.64430   0.20746   0.00000  Uiso   1.00
H255   H     0.14793   0.37287   0.09449   0.00000  Uiso   1.00
H256   H     0.16688   0.62796   0.23960   0.00000  Uiso   1.00
C257   C     0.15014   0.64687   0.12516   0.00000  Uiso   1.00
C258   C     0.17629   0.35297   0.20816   0.00000  Uiso   1.00
C259   C     0.15901   0.62369   0.16586   0.00000  Uiso   1.00
C260   C     0.16679   0.37612   0.16745   0.00000  Uiso   1.00
C261   C     0.12948   0.47804   0.02042   0.00000  Uiso   1.00
C262   C     0.20531   0.52010   0.31263   0.00000  Uiso   1.00
C263   C     0.13012   0.47863   0.30503   0.00000  Uiso   1.00
C264   C     0.20438   0.52021   0.02817   0.00000  Uiso   1.00
H265   H     0.33036   0.51787   0.11725   0.00000  Uiso   1.00
H266   H     0.00285   0.48105   0.21519   0.00000  Uiso   1.00
C267   C     0.13542   0.62788   0.08116   0.00000  Uiso   1.00
C268   C     0.17038   0.62866   0.04876   0.00000  Uiso   1.00
C269   C     0.15805   0.60840   0.00794   0.00000  Uiso   1.00
C270   C     0.11145   0.58675   0.33270   0.00000  Uiso   1.00
C271   C     0.07611   0.58616   0.03179   0.00000  Uiso   1.00
C272   C     0.08806   0.60673   0.07280   0.00000  Uiso   1.00
H273   H     0.20754   0.64408   0.05559   0.00000  Uiso   1.00
H274   H     0.18522   0.60944   0.31687   0.00000  Uiso   1.00
H275   H     0.10387   0.57003   0.30138   0.00000  Uiso   1.00
H276   H     0.03977   0.56968   0.02588   0.00000  Uiso   1.00
H277   H     0.06102   0.60570   0.09824   0.00000  Uiso   1.00
C278   C     0.20379   0.37083   0.24964   0.00000  Uiso   1.00
C279   C     0.24999   0.39352   0.24636   0.00000  Uiso   1.00
C280   C     0.27328   0.41442   0.28426   0.00000  Uiso   1.00
C281   C     0.25116   0.41163   0.32550   0.00000  Uiso   1.00
C282   C     0.20940   0.38523   0.33046   0.00000  Uiso   1.00
C283   C     0.18443   0.36566   0.29223   0.00000  Uiso   1.00
H284   H     0.26653   0.39651   0.21398   0.00000  Uiso   1.00
H285   H     0.30761   0.43332   0.28125   0.00000  Uiso   1.00
H286   H     0.26484   0.43038   0.02035   0.00000  Uiso   1.00
H287   H     0.19577   0.38147   0.03054   0.00000  Uiso   1.00
H288   H     0.14931   0.34781   0.29531   0.00000  Uiso   1.00
C289   C     0.08882   0.45008   0.03725   0.00000  Uiso   1.00
C290   C     0.08962   0.40788   0.03155   0.00000  Uiso   1.00
C291   C     0.05279   0.38099   0.04841   0.00000  Uiso   1.00
C292   C     0.01431   0.39619   0.07082   0.00000  Uiso   1.00
C293   C     0.00969   0.43819   0.07133   0.00000  Uiso   1.00
C294   C     0.04381   0.46456   0.04991   0.00000  Uiso   1.00
H295   H     0.11787   0.39570   0.01331   0.00000  Uiso   1.00
H296   H     0.05431   0.34855   0.04426   0.00000  Uiso   1.00
H297   H     0.31982   0.37560   0.08529   0.00000  Uiso   1.00
H298   H     0.31118   0.45001   0.08597   0.00000  Uiso   1.00
H299   H     0.03764   0.49680   0.04745   0.00000  Uiso   1.00
C300   C     0.25305   0.53741   0.29545   0.00000  Uiso   1.00
C301   C     0.25569   0.57383   0.26969   0.00000  Uiso   1.00
C302   C     0.29977   0.58733   0.25036   0.00000  Uiso   1.00
C303   C     0.00918   0.56458   0.25720   0.00000  Uiso   1.00
C304   C     0.00828   0.52956   0.28525   0.00000  Uiso   1.00
C305   C     0.29754   0.51663   0.30503   0.00000  Uiso   1.00
H306   H     0.22387   0.59143   0.26338   0.00000  Uiso   1.00
H307   H     0.30034   0.61495   0.22939   0.00000  Uiso   1.00
H308   H     0.04274   0.57407   0.24067   0.00000  Uiso   1.00
H309   H     0.04149   0.51215   0.29130   0.00000  Uiso   1.00
H310   H     0.29750   0.48981   0.32670   0.00000  Uiso   1.00
H311   H     0.10126   0.46104   0.28380   0.00000  Uiso   1.00
H312   H     0.23493   0.53605   0.04928   0.00000  Uiso   1.00
O313   O     0.50000   0.43989   0.20625   0.00000  Uiso   1.00
O314   O     0.50000   0.56011   0.12709   0.00000  Uiso   1.00
O315   O     0.50000   0.43988   0.12706   0.00000  Uiso   1.00
O316   O     0.50000   0.56012   0.20628   0.00000  Uiso   1.00
C317   C     0.50070   0.42095   0.16712   0.00000  Uiso   1.00
C318   C     0.49692   0.57896   0.16610   0.00000  Uiso   1.00
O319   O     0.42495   0.50000   0.19712   0.00000  Uiso   1.00
O320   O     0.57505   0.50000   0.13621   0.00000  Uiso   1.00
O321   O     0.42494   0.49999   0.11793   0.00000  Uiso   1.00
O322   O     0.57506   0.50001   0.21540   0.00000  Uiso   1.00
C323   C     0.40184   0.50120   0.15526   0.00000  Uiso   1.00
C324   C     0.59814   0.49875   0.17803   0.00000  Uiso   1.00
Cu325  Cu    0.50000   0.50001   0.21355   0.00000  Uiso   1.00
Cu326  Cu    0.50000   0.49999   0.11978   0.00000  Uiso   1.00
N327   N     0.50001   0.50001   0.28403   0.00000  Uiso   1.00
N328   N     0.49999   0.49999   0.04931   0.00000  Uiso   1.00
C329   C     0.34743   0.50545   0.14964   0.00000  Uiso   1.00
C330   C     0.65249   0.49430   0.18336   0.00000  Uiso   1.00
C331   C     0.48745   0.35584   0.12622   0.00000  Uiso   1.00
C332   C     0.49985   0.64430   0.20746   0.00000  Uiso   1.00
H333   H     0.48127   0.37287   0.09449   0.00000  Uiso   1.00
H334   H     0.50022   0.62796   0.23960   0.00000  Uiso   1.00
C335   C     0.48347   0.64687   0.12516   0.00000  Uiso   1.00
C336   C     0.50962   0.35297   0.20816   0.00000  Uiso   1.00
C337   C     0.49234   0.62369   0.16586   0.00000  Uiso   1.00
C338   C     0.50012   0.37612   0.16745   0.00000  Uiso   1.00
C339   C     0.46281   0.47804   0.02042   0.00000  Uiso   1.00
C340   C     0.53864   0.52010   0.31263   0.00000  Uiso   1.00
C341   C     0.46345   0.47863   0.30503   0.00000  Uiso   1.00
C342   C     0.53771   0.52021   0.02817   0.00000  Uiso   1.00
H343   H     0.66369   0.51787   0.11725   0.00000  Uiso   1.00
H344   H     0.33618   0.48105   0.21519   0.00000  Uiso   1.00
C345   C     0.46876   0.62788   0.08116   0.00000  Uiso   1.00
C346   C     0.50372   0.62866   0.04876   0.00000  Uiso   1.00
C347   C     0.49138   0.60840   0.00794   0.00000  Uiso   1.00
C348   C     0.44478   0.58675   0.33270   0.00000  Uiso   1.00
C349   C     0.40944   0.58616   0.03179   0.00000  Uiso   1.00
C350   C     0.42139   0.60673   0.07280   0.00000  Uiso   1.00
H351   H     0.54088   0.64408   0.05559   0.00000  Uiso   1.00
H352   H     0.51855   0.60944   0.31687   0.00000  Uiso   1.00
H353   H     0.43720   0.57003   0.30138   0.00000  Uiso   1.00
H354   H     0.37310   0.56968   0.02588   0.00000  Uiso   1.00
H355   H     0.39436   0.60570   0.09824   0.00000  Uiso   1.00
C356   C     0.53712   0.37083   0.24964   0.00000  Uiso   1.00
C357   C     0.58332   0.39352   0.24636   0.00000  Uiso   1.00
C358   C     0.60662   0.41442   0.28426   0.00000  Uiso   1.00
C359   C     0.58449   0.41163   0.32550   0.00000  Uiso   1.00
C360   C     0.54273   0.38523   0.33046   0.00000  Uiso   1.00
C361   C     0.51776   0.36566   0.29223   0.00000  Uiso   1.00
H362   H     0.59986   0.39651   0.21398   0.00000  Uiso   1.00
H363   H     0.64094   0.43332   0.28125   0.00000  Uiso   1.00
H364   H     0.59818   0.43038   0.02035   0.00000  Uiso   1.00
H365   H     0.52910   0.38147   0.03054   0.00000  Uiso   1.00
H366   H     0.48264   0.34781   0.29531   0.00000  Uiso   1.00
C367   C     0.42216   0.45008   0.03725   0.00000  Uiso   1.00
C368   C     0.42295   0.40788   0.03155   0.00000  Uiso   1.00
C369   C     0.38612   0.38099   0.04841   0.00000  Uiso   1.00
C370   C     0.34764   0.39619   0.07082   0.00000  Uiso   1.00
C371   C     0.34302   0.43819   0.07133   0.00000  Uiso   1.00
C372   C     0.37715   0.46456   0.04991   0.00000  Uiso   1.00
H373   H     0.45121   0.39570   0.01331   0.00000  Uiso   1.00
H374   H     0.38764   0.34855   0.04426   0.00000  Uiso   1.00
H375   H     0.65315   0.37560   0.08529   0.00000  Uiso   1.00
H376   H     0.64451   0.45001   0.08597   0.00000  Uiso   1.00
H377   H     0.37097   0.49680   0.04745   0.00000  Uiso   1.00
C378   C     0.58638   0.53741   0.29545   0.00000  Uiso   1.00
C379   C     0.58902   0.57383   0.26969   0.00000  Uiso   1.00
C380   C     0.63310   0.58733   0.25036   0.00000  Uiso   1.00
C381   C     0.34251   0.56458   0.25720   0.00000  Uiso   1.00
C382   C     0.34162   0.52956   0.28525   0.00000  Uiso   1.00
C383   C     0.63087   0.51663   0.30503   0.00000  Uiso   1.00
H384   H     0.55721   0.59143   0.26338   0.00000  Uiso   1.00
H385   H     0.63367   0.61495   0.22939   0.00000  Uiso   1.00
H386   H     0.37607   0.57407   0.24067   0.00000  Uiso   1.00
H387   H     0.37482   0.51215   0.29130   0.00000  Uiso   1.00
H388   H     0.63083   0.48981   0.32670   0.00000  Uiso   1.00
H389   H     0.43459   0.46104   0.28380   0.00000  Uiso   1.00
H390   H     0.56826   0.53605   0.04928   0.00000  Uiso   1.00
O391   O     0.83333   0.43989   0.20625   0.00000  Uiso   1.00
O392   O     0.83334   0.56011   0.12709   0.00000  Uiso   1.00
O393   O     0.83333   0.43988   0.12706   0.00000  Uiso   1.00
O394   O     0.83334   0.56012   0.20628   0.00000  Uiso   1.00
C395   C     0.83403   0.42095   0.16712   0.00000  Uiso   1.00
C396   C     0.83026   0.57896   0.16610   0.00000  Uiso   1.00
O397   O     0.75828   0.50000   0.19712   0.00000  Uiso   1.00
O398   O     0.90839   0.50000   0.13621   0.00000  Uiso   1.00
O399   O     0.75828   0.49999   0.11793   0.00000  Uiso   1.00
O400   O     0.90839   0.50001   0.21540   0.00000  Uiso   1.00
C401   C     0.73518   0.50120   0.15526   0.00000  Uiso   1.00
C402   C     0.93148   0.49875   0.17803   0.00000  Uiso   1.00
Cu403  Cu    0.83333   0.50001   0.21355   0.00000  Uiso   1.00
Cu404  Cu    0.83333   0.49999   0.11978   0.00000  Uiso   1.00
N405   N     0.83335   0.50001   0.28403   0.00000  Uiso   1.00
N406   N     0.83332   0.49999   0.04931   0.00000  Uiso   1.00
C407   C     0.68076   0.50545   0.14964   0.00000  Uiso   1.00
C408   C     0.98582   0.49430   0.18336   0.00000  Uiso   1.00
C409   C     0.82078   0.35584   0.12622   0.00000  Uiso   1.00
C410   C     0.83319   0.64430   0.20746   0.00000  Uiso   1.00
H411   H     0.81460   0.37287   0.09449   0.00000  Uiso   1.00
H412   H     0.83355   0.62796   0.23960   0.00000  Uiso   1.00
C413   C     0.81681   0.64687   0.12516   0.00000  Uiso   1.00
C414   C     0.84296   0.35297   0.20816   0.00000  Uiso   1.00
C415   C     0.82567   0.62369   0.16586   0.00000  Uiso   1.00
C416   C     0.83346   0.37612   0.16745   0.00000  Uiso   1.00
C417   C     0.79615   0.47804   0.02042   0.00000  Uiso   1.00
C418   C     0.87198   0.52010   0.31263   0.00000  Uiso   1.00
C419   C     0.79678   0.47863   0.30503   0.00000  Uiso   1.00
C420   C     0.87104   0.52021   0.02817   0.00000  Uiso   1.00
H421   H     0.99703   0.51787   0.11725   0.00000  Uiso   1.00
H422   H     0.66951   0.48105   0.21519   0.00000  Uiso   1.00
C423   C     0.80209   0.62788   0.08116   0.00000  Uiso   1.00
C424   C     0.83705   0.62866   0.04876   0.00000  Uiso   1.00
C425   C     0.82472   0.60840   0.00794   0.00000  Uiso   1.00
C426   C     0.77812   0.58675   0.33270   0.00000  Uiso   1.00
C427   C     0.74277   0.58616   0.03179   0.00000  Uiso   1.00
C428   C     0.75473   0.60673   0.07280   0.00000  Uiso   1.00
H429   H     0.87421   0.64408   0.05559   0.00000  Uiso   1.00
H430   H     0.85188   0.60944   0.31687   0.00000  Uiso   1.00
H431   H     0.77054   0.57003   0.30138   0.00000  Uiso   1.00
H432   H     0.70644   0.56968   0.02588   0.00000  Uiso   1.00
H433   H     0.72769   0.60570   0.09824   0.00000  Uiso   1.00
C434   C     0.87046   0.37083   0.24964   0.00000  Uiso   1.00
C435   C     0.91665   0.39352   0.24636   0.00000  Uiso   1.00
C436   C     0.93995   0.41442   0.28426   0.00000  Uiso   1.00
C437   C     0.91783   0.41163   0.32550   0.00000  Uiso   1.00
C438   C     0.87606   0.38523   0.33046   0.00000  Uiso   1.00
C439   C     0.85110   0.36566   0.29223   0.00000  Uiso   1.00
H440   H     0.93320   0.39651   0.21398   0.00000  Uiso   1.00
H441   H     0.97427   0.43332   0.28125   0.00000  Uiso   1.00
H442   H     0.93151   0.43038   0.02035   0.00000  Uiso   1.00
H443   H     0.86244   0.38147   0.03054   0.00000  Uiso   1.00
H444   H     0.81598   0.34781   0.29531   0.00000  Uiso   1.00
C445   C     0.75549   0.45008   0.03725   0.00000  Uiso   1.00
C446   C     0.75629   0.40788   0.03155   0.00000  Uiso   1.00
C447   C     0.71946   0.38099   0.04841   0.00000  Uiso   1.00
C448   C     0.68098   0.39619   0.07082   0.00000  Uiso   1.00
C449   C     0.67635   0.43819   0.07133   0.00000  Uiso   1.00
C450   C     0.71048   0.46456   0.04991   0.00000  Uiso   1.00
H451   H     0.78454   0.39570   0.01331   0.00000  Uiso   1.00
H452   H     0.72097   0.34855   0.04426   0.00000  Uiso   1.00
H453   H     0.98649   0.37560   0.08529   0.00000  Uiso   1.00
H454   H     0.97784   0.45001   0.08597   0.00000  Uiso   1.00
H455   H     0.70430   0.49680   0.04745   0.00000  Uiso   1.00
C456   C     0.91972   0.53741   0.29545   0.00000  Uiso   1.00
C457   C     0.92236   0.57383   0.26969   0.00000  Uiso   1.00
C458   C     0.96643   0.58733   0.25036   0.00000  Uiso   1.00
C459   C     0.67584   0.56458   0.25720   0.00000  Uiso   1.00
C460   C     0.67495   0.52956   0.28525   0.00000  Uiso   1.00
C461   C     0.96421   0.51663   0.30503   0.00000  Uiso   1.00
H462   H     0.89054   0.59143   0.26338   0.00000  Uiso   1.00
H463   H     0.96701   0.61495   0.22939   0.00000  Uiso   1.00
H464   H     0.70940   0.57407   0.24067   0.00000  Uiso   1.00
H465   H     0.70815   0.51215   0.29130   0.00000  Uiso   1.00
H466   H     0.96416   0.48981   0.32670   0.00000  Uiso   1.00
H467   H     0.76792   0.46104   0.28380   0.00000  Uiso   1.00
H468   H     0.90160   0.53605   0.04928   0.00000  Uiso   1.00
O469   O     0.16666   0.77322   0.20625   0.00000  Uiso   1.00
O470   O     0.16667   0.89345   0.12709   0.00000  Uiso   1.00
O471   O     0.16666   0.77321   0.12706   0.00000  Uiso   1.00
O472   O     0.16667   0.89346   0.20628   0.00000  Uiso   1.00
C473   C     0.16736   0.75428   0.16712   0.00000  Uiso   1.00
C474   C     0.16359   0.91230   0.16610   0.00000  Uiso   1.00
O475   O     0.09161   0.83334   0.19712   0.00000  Uiso   1.00
O476   O     0.24172   0.83333   0.13621   0.00000  Uiso   1.00
O477   O     0.09161   0.83333   0.11793   0.00000  Uiso   1.00
O478   O     0.24172   0.83334   0.21540   0.00000  Uiso   1.00
C479   C     0.06851   0.83453   0.15526   0.00000  Uiso   1.00
C480   C     0.26481   0.83209   0.17803   0.00000  Uiso   1.00
Cu481  Cu    0.16667   0.83334   0.21355   0.00000  Uiso   1.00
Cu482  Cu    0.16667   0.83333   0.11978   0.00000  Uiso   1.00
N483   N     0.16668   0.83334   0.28403   0.00000  Uiso   1.00
N484   N     0.16665   0.83332   0.04931   0.00000  Uiso   1.00
C485   C     0.01410   0.83878   0.14964   0.00000  Uiso   1.00
C486   C     0.31915   0.82763   0.18336   0.00000  Uiso   1.00
C487   C     0.15411   0.68918   0.12622   0.00000  Uiso   1.00
C488   C     0.16652   0.97763   0.20746   0.00000  Uiso   1.00
H489   H     0.14793   0.70620   0.09449   0.00000  Uiso   1.00
H490   H     0.16688   0.96129   0.23960   0.00000  Uiso   1.00
C491   C     0.15014   0.98020   0.12516   0.00000  Uiso   1.00
C492   C     0.17629   0.68630   0.20816   0.00000  Uiso   1.00
C493   C     0.15901   0.95703   0.16586   0.00000  Uiso   1.00
C494   C     0.16679   0.70945   0.16745   0.00000  Uiso   1.00
C495   C     0.12948   0.81137   0.02042   0.00000  Uiso   1.00
C496   C     0.20531   0.85344   0.31263   0.00000  Uiso   1.00
C497   C     0.13012   0.81196   0.30503   0.00000  Uiso   1.00
C498   C     0.20438   0.85354   0.02817   0.00000  Uiso   1.00
H499   H     0.33036   0.85120   0.11725   0.00000  Uiso   1.00
H500   H     0.00285   0.81438   0.21519   0.00000  Uiso   1.00
C501   C     0.13542   0.96121   0.08116   0.00000  Uiso   1.00
C502   C     0.17038   0.96199   0.04876   0.00000  Uiso   1.00
C503   C     0.15805   0.94174   0.00794   0.00000  Uiso   1.00
C504   C     0.11145   0.92009   0.33270   0.00000  Uiso   1.00
C505   C     0.07611   0.91949   0.03179   0.00000  Uiso   1.00
C506   C     0.08806   0.94006   0.07280   0.00000  Uiso   1.00
H507   H     0.20754   0.97741   0.05559   0.00000  Uiso   1.00
H508   H     0.18522   0.94277   0.31687   0.00000  Uiso   1.00
H509   H     0.10387   0.90336   0.30138   0.00000  Uiso   1.00
H510   H     0.03977   0.90301   0.02588   0.00000  Uiso   1.00
H511   H     0.06102   0.93903   0.09824   0.00000  Uiso   1.00
C512   C     0.20379   0.70416   0.24964   0.00000  Uiso   1.00
C513   C     0.24999   0.72685   0.24636   0.00000  Uiso   1.00
C514   C     0.27328   0.74776   0.28426   0.00000  Uiso   1.00
C515   C     0.25116   0.74496   0.32550   0.00000  Uiso   1.00
C516   C     0.20940   0.71856   0.33046   0.00000  Uiso   1.00
C517   C     0.18443   0.69899   0.29223   0.00000  Uiso   1.00
H518   H     0.26653   0.72985   0.21398   0.00000  Uiso   1.00
H519   H     0.30761   0.76666   0.28125   0.00000  Uiso   1.00
H520   H     0.26484   0.76372   0.02035   0.00000  Uiso   1.00
H521   H     0.19577   0.71481   0.03054   0.00000  Uiso   1.00
H522   H     0.14931   0.68114   0.29531   0.00000  Uiso   1.00
C523   C     0.08882   0.78341   0.03725   0.00000  Uiso   1.00
C524   C     0.08962   0.74121   0.03155   0.00000  Uiso   1.00
C525   C     0.05279   0.71432   0.04841   0.00000  Uiso   1.00
C526   C     0.01431   0.72952   0.07082   0.00000  Uiso   1.00
C527   C     0.00969   0.77152   0.07133   0.00000  Uiso   1.00
C528   C     0.04381   0.79790   0.04991   0.00000  Uiso   1.00
H529   H     0.11787   0.72903   0.01331   0.00000  Uiso   1.00
H530   H     0.05431   0.68188   0.04426   0.00000  Uiso   1.00
H531   H     0.31982   0.70894   0.08529   0.00000  Uiso   1.00
H532   H     0.31118   0.78335   0.08597   0.00000  Uiso   1.00
H533   H     0.03764   0.83014   0.04745   0.00000  Uiso   1.00
C534   C     0.25305   0.87075   0.29545   0.00000  Uiso   1.00
C535   C     0.25569   0.90716   0.26969   0.00000  Uiso   1.00
C536   C     0.29977   0.92066   0.25036   0.00000  Uiso   1.00
C537   C     0.00918   0.89792   0.25720   0.00000  Uiso   1.00
C538   C     0.00828   0.86289   0.28525   0.00000  Uiso   1.00
C539   C     0.29754   0.84996   0.30503   0.00000  Uiso   1.00
H540   H     0.22387   0.92476   0.26338   0.00000  Uiso   1.00
H541   H     0.30034   0.94828   0.22939   0.00000  Uiso   1.00
H542   H     0.04274   0.90740   0.24067   0.00000  Uiso   1.00
H543   H     0.04149   0.84548   0.29130   0.00000  Uiso   1.00
H544   H     0.29750   0.82315   0.32670   0.00000  Uiso   1.00
H545   H     0.10126   0.79438   0.28380   0.00000  Uiso   1.00
H546   H     0.23493   0.86938   0.04928   0.00000  Uiso   1.00
O547   O     0.50000   0.77322   0.20625   0.00000  Uiso   1.00
O548   O     0.50000   0.89345   0.12709   0.00000  Uiso   1.00
O549   O     0.50000   0.77321   0.12706   0.00000  Uiso   1.00
O550   O     0.50000   0.89346   0.20628   0.00000  Uiso   1.00
C551   C     0.50070   0.75428   0.16712   0.00000  Uiso   1.00
C552   C     0.49692   0.91230   0.16610   0.00000  Uiso   1.00
O553   O     0.42495   0.83334   0.19712   0.00000  Uiso   1.00
O554   O     0.57505   0.83333   0.13621   0.00000  Uiso   1.00
O555   O     0.42494   0.83333   0.11793   0.00000  Uiso   1.00
O556   O     0.57506   0.83334   0.21540   0.00000  Uiso   1.00
C557   C     0.40184   0.83453   0.15526   0.00000  Uiso   1.00
C558   C     0.59814   0.83209   0.17803   0.00000  Uiso   1.00
Cu559  Cu    0.50000   0.83334   0.21355   0.00000  Uiso   1.00
Cu560  Cu    0.50000   0.83333   0.11978   0.00000  Uiso   1.00
N561   N     0.50001   0.83334   0.28403   0.00000  Uiso   1.00
N562   N     0.49999   0.83332   0.04931   0.00000  Uiso   1.00
C563   C     0.34743   0.83878   0.14964   0.00000  Uiso   1.00
C564   C     0.65249   0.82763   0.18336   0.00000  Uiso   1.00
C565   C     0.48745   0.68918   0.12622   0.00000  Uiso   1.00
C566   C     0.49985   0.97763   0.20746   0.00000  Uiso   1.00
H567   H     0.48127   0.70620   0.09449   0.00000  Uiso   1.00
H568   H     0.50022   0.96129   0.23960   0.00000  Uiso   1.00
C569   C     0.48347   0.98020   0.12516   0.00000  Uiso   1.00
C570   C     0.50962   0.68630   0.20816   0.00000  Uiso   1.00
C571   C     0.49234   0.95703   0.16586   0.00000  Uiso   1.00
C572   C     0.50012   0.70945   0.16745   0.00000  Uiso   1.00
C573   C     0.46281   0.81137   0.02042   0.00000  Uiso   1.00
C574   C     0.53864   0.85344   0.31263   0.00000  Uiso   1.00
C575   C     0.46345   0.81196   0.30503   0.00000  Uiso   1.00
C576   C     0.53771   0.85354   0.02817   0.00000  Uiso   1.00
H577   H     0.66369   0.85120   0.11725   0.00000  Uiso   1.00
H578   H     0.33618   0.81438   0.21519   0.00000  Uiso   1.00
C579   C     0.46876   0.96121   0.08116   0.00000  Uiso   1.00
C580   C     0.50372   0.96199   0.04876   0.00000  Uiso   1.00
C581   C     0.49138   0.94174   0.00794   0.00000  Uiso   1.00
C582   C     0.44478   0.92009   0.33270   0.00000  Uiso   1.00
C583   C     0.40944   0.91949   0.03179   0.00000  Uiso   1.00
C584   C     0.42139   0.94006   0.07280   0.00000  Uiso   1.00
H585   H     0.54088   0.97741   0.05559   0.00000  Uiso   1.00
H586   H     0.51855   0.94277   0.31687   0.00000  Uiso   1.00
H587   H     0.43720   0.90336   0.30138   0.00000  Uiso   1.00
H588   H     0.37310   0.90301   0.02588   0.00000  Uiso   1.00
H589   H     0.39436   0.93903   0.09824   0.00000  Uiso   1.00
C590   C     0.53712   0.70416   0.24964   0.00000  Uiso   1.00
C591   C     0.58332   0.72685   0.24636   0.00000  Uiso   1.00
C592   C     0.60662   0.74776   0.28426   0.00000  Uiso   1.00
C593   C     0.58449   0.74496   0.32550   0.00000  Uiso   1.00
C594   C     0.54273   0.71856   0.33046   0.00000  Uiso   1.00
C595   C     0.51776   0.69899   0.29223   0.00000  Uiso   1.00
H596   H     0.59986   0.72985   0.21398   0.00000  Uiso   1.00
H597   H     0.64094   0.76666   0.28125   0.00000  Uiso   1.00
H598   H     0.59818   0.76372   0.02035   0.00000  Uiso   1.00
H599   H     0.52910   0.71481   0.03054   0.00000  Uiso   1.00
H600   H     0.48264   0.68114   0.29531   0.00000  Uiso   1.00
C601   C     0.42216   0.78341   0.03725   0.00000  Uiso   1.00
C602   C     0.42295   0.74121   0.03155   0.00000  Uiso   1.00
C603   C     0.38612   0.71432   0.04841   0.00000  Uiso   1.00
C604   C     0.34764   0.72952   0.07082   0.00000  Uiso   1.00
C605   C     0.34302   0.77152   0.07133   0.00000  Uiso   1.00
C606   C     0.37715   0.79790   0.04991   0.00000  Uiso   1.00
H607   H     0.45121   0.72903   0.01331   0.00000  Uiso   1.00
H608   H     0.38764   0.68188   0.04426   0.00000  Uiso   1.00
H609   H     0.65315   0.70894   0.08529   0.00000  Uiso   1.00
H610   H     0.64451   0.78335   0.08597   0.00000  Uiso   1.00
H611   H     0.37097   0.83014   0.04745   0.00000  Uiso   1.00
C612   C     0.58638   0.87075   0.29545   0.00000  Uiso   1.00
C613   C     0.58902   0.90716   0.26969   0.00000  Uiso   1.00
C614   C     0.63310   0.92066   0.25036   0.00000  Uiso   1.00
C615   C     0.34251   0.89792   0.25720   0.00000  Uiso   1.00
C616   C     0.34162   0.86289   0.28525   0.00000  Uiso   1.00
C617   C     0.63087   0.84996   0.30503   0.00000  Uiso   1.00
H618   H     0.55721   0.92476   0.26338   0.00000  Uiso   1.00
H619   H     0.63367   0.94828   0.22939   0.00000  Uiso   1.00
H620   H     0.37607   0.90740   0.24067   0.00000  Uiso   1.00
H621   H     0.37482   0.84548   0.29130   0.00000  Uiso   1.00
H622   H     0.63083   0.82315   0.32670   0.00000  Uiso   1.00
H623   H     0.43459   0.79438   0.28380   0.00000  Uiso   1.00
H624   H     0.56826   0.86938   0.04928   0.00000  Uiso   1.00
O625   O     0.83333   0.77322   0.20625   0.00000  Uiso   1.00
O626   O     0.83334   0.89345   0.12709   0.00000  Uiso   1.00
O627   O     0.83333   0.77321   0.12706   0.00000  Uiso   1.00
O628   O     0.83334   0.89346   0.20628   0.00000  Uiso   1.00
C629   C     0.83403   0.75428   0.16712   0.00000  Uiso   1.00
C630   C     0.83026   0.91230   0.16610   0.00000  Uiso   1.00
O631   O     0.75828   0.83334   0.19712   0.00000  Uiso   1.00
O632   O     0.90839   0.83333   0.13621   0.00000  Uiso   1.00
O633   O     0.75828   0.83333   0.11793   0.00000  Uiso   1.00
O634   O     0.90839   0.83334   0.21540   0.00000  Uiso   1.00
C635   C     0.73518   0.83453   0.15526   0.00000  Uiso   1.00
C636   C     0.93148   0.83209   0.17803   0.00000  Uiso   1.00
Cu637  Cu    0.83333   0.83334   0.21355   0.00000  Uiso   1.00
Cu638  Cu    0.83333   0.83333   0.11978   0.00000  Uiso   1.00
N639   N     0.83335   0.83334   0.28403   0.00000  Uiso   1.00
N640   N     0.83332   0.83332   0.04931   0.00000  Uiso   1.00
C641   C     0.68076   0.83878   0.14964   0.00000  Uiso   1.00
C642   C     0.98582   0.82763   0.18336   0.00000  Uiso   1.00
C643   C     0.82078   0.68918   0.12622   0.00000  Uiso   1.00
C644   C     0.83319   0.97763   0.20746   0.00000  Uiso   1.00
H645   H     0.81460   0.70620   0.09449   0.00000  Uiso   1.00
H646   H     0.83355   0.96129   0.23960   0.00000  Uiso   1.00
C647   C     0.81681   0.98020   0.12516   0.00000  Uiso   1.00
C648   C     0.84296   0.68630   0.20816   0.00000  Uiso   1.00
C649   C     0.82567   0.95703   0.16586   0.00000  Uiso   1.00
C650   C     0.83346   0.70945   0.16745   0.00000  Uiso   1.00
C651   C     0.79615   0.81137   0.02042   0.00000  Uiso   1.00
C652   C     0.87198   0.85344   0.31263   0.00000  Uiso   1.00
C653   C     0.79678   0.81196   0.30503   0.00000  Uiso   1.00
C654   C     0.87104   0.85354   0.02817   0.00000  Uiso   1.00
H655   H     0.99703   0.85120   0.11725   0.00000  Uiso   1.00
H656   H     0.66951   0.81438   0.21519   0.00000  Uiso   1.00
C657   C     0.80209   0.96121   0.08116   0.00000  Uiso   1.00
C658   C     0.83705   0.96199   0.04876   0.00000  Uiso   1.00
C659   C     0.82472   0.94174   0.00794   0.00000  Uiso   1.00
C660   C     0.77812   0.92009   0.33270   0.00000  Uiso   1.00
C661   C     0.74277   0.91949   0.03179   0.00000  Uiso   1.00
C662   C     0.75473   0.94006   0.07280   0.00000  Uiso   1.00
H663   H     0.87421   0.97741   0.05559   0.00000  Uiso   1.00
H664   H     0.85188   0.94277   0.31687   0.00000  Uiso   1.00
H665   H     0.77054   0.90336   0.30138   0.00000  Uiso   1.00
H666   H     0.70644   0.90301   0.02588   0.00000  Uiso   1.00
H667   H     0.72769   0.93903   0.09824   0.00000  Uiso   1.00
C668   C     0.87046   0.70416   0.24964   0.00000  Uiso   1.00
C669   C     0.91665   0.72685   0.24636   0.00000  Uiso   1.00
C670   C     0.93995   0.74776   0.28426   0.00000  Uiso   1.00
C671   C     0.91783   0.74496   0.32550   0.00000  Uiso   1.00
C672   C     0.87606   0.71856   0.33046   0.00000  Uiso   1.00
C673   C     0.85110   0.69899   0.29223   0.00000  Uiso   1.00
H674   H     0.93320   0.72985   0.21398   0.00000  Uiso   1.00
H675   H     0.97427   0.76666   0.28125   0.00000  Uiso   1.00
H676   H     0.93151   0.76372   0.02035   0.00000  Uiso   1.00
H677   H     0.86244   0.71481   0.03054   0.00000  Uiso   1.00
H678   H     0.81598   0.68114   0.29531   0.00000  Uiso   1.00
C679   C     0.75549   0.78341   0.03725   0.00000  Uiso   1.00
C680   C     0.75629   0.74121   0.03155   0.00000  Uiso   1.00
C681   C     0.71946   0.71432   0.04841   0.00000  Uiso   1.00
C682   C     0.68098   0.72952   0.07082   0.00000  Uiso   1.00
C683   C     0.67635   0.77152   0.07133   0.00000  Uiso   1.00
C684   C     0.71048   0.79790   0.04991   0.00000  Uiso   1.00
H685   H     0.78454   0.72903   0.01331   0.00000  Uiso   1.00
H686   H     0.72097   0.68188   0.04426   0.00000  Uiso   1.00
H687   H     0.98649   0.70894   0.08529   0.00000  Uiso   1.00
H688   H     0.97784   0.78335   0.08597   0.00000  Uiso   1.00
H689   H     0.70430   0.83014   0.04745   0.00000  Uiso   1.00
C690   C     0.91972   0.87075   0.29545   0.00000  Uiso   1.00
C691   C     0.92236   0.90716   0.26969   0.00000  Uiso   1.00
C692   C     0.96643   0.92066   0.25036   0.00000  Uiso   1.00
C693   C     0.67584   0.89792   0.25720   0.00000  Uiso   1.00
C694   C     0.67495   0.86289   0.28525   0.00000  Uiso   1.00
C695   C     0.96421   0.84996   0.30503   0.00000  Uiso   1.00
H696   H     0.89054   0.92476   0.26338   0.00000  Uiso   1.00
H697   H     0.96701   0.94828   0.22939   0.00000  Uiso   1.00
H698   H     0.70940   0.90740   0.24067   0.00000  Uiso   1.00
H699   H     0.70815   0.84548   0.29130   0.00000  Uiso   1.00
H700   H     0.96416   0.82315   0.32670   0.00000  Uiso   1.00
H701   H     0.76792   0.79438   0.28380   0.00000  Uiso   1.00
H702   H     0.90160   0.86938   0.04928   0.00000  Uiso   1.00
O703   O     0.16666   0.10655   0.53958   0.00000  Uiso   1.00
O704   O     0.16667   0.22678   0.46042   0.00000  Uiso   1.00
O705   O     0.16666   0.10654   0.46039   0.00000  Uiso   1.00
O706   O     0.16667   0.22679   0.53961   0.00000  Uiso   1.00
C707   C     0.16736   0.08762   0.50045   0.00000  Uiso   1.00
C708   C     0.16359   0.24563   0.49943   0.00000  Uiso   1.00
O709   O     0.09161   0.16667   0.53046   0.00000  Uiso   1.00
O710   O     0.24172   0.16666   0.46954   0.00000  Uiso   1.00
O711   O     0.09161   0.16666   0.45127   0.00000  Uiso   1.00
O712   O     0.24172   0.16667   0.54873   0.00000  Uiso   1.00
C713   C     0.06851   0.16787   0.48859   0.00000  Uiso   1.00
C714   C     0.26481   0.16542   0.51136   0.00000  Uiso   1.00
Cu715  Cu    0.16667   0.16667   0.54689   0.00000  Uiso   1.00
Cu716  Cu    0.16667   0.16666   0.45311   0.00000  Uiso   1.00
N717   N     0.16668   0.16668   0.61736   0.00000  Uiso   1.00
N718   N     0.16665   0.16666   0.38264   0.00000  Uiso   1.00
C719   C     0.01410   0.17211   0.48297   0.00000  Uiso   1.00
C720   C     0.31915   0.16096   0.51669   0.00000  Uiso   1.00
C721   C     0.15411   0.02251   0.45956   0.00000  Uiso   1.00
C722   C     0.16652   0.31097   0.54080   0.00000  Uiso   1.00
H723   H     0.14793   0.03954   0.42782   0.00000  Uiso   1.00
H724   H     0.16688   0.29462   0.57293   0.00000  Uiso   1.00
C725   C     0.15014   0.31353   0.45849   0.00000  Uiso   1.00
C726   C     0.17629   0.01964   0.54149   0.00000  Uiso   1.00
C727   C     0.15901   0.29036   0.49920   0.00000  Uiso   1.00
C728   C     0.16679   0.04279   0.50079   0.00000  Uiso   1.00
C729   C     0.12948   0.14471   0.35376   0.00000  Uiso   1.00
C730   C     0.20531   0.18677   0.64597   0.00000  Uiso   1.00
C731   C     0.13012   0.14530   0.63836   0.00000  Uiso   1.00
C732   C     0.20438   0.18688   0.36150   0.00000  Uiso   1.00
H733   H     0.33036   0.18454   0.45059   0.00000  Uiso   1.00
H734   H     0.00285   0.14772   0.54853   0.00000  Uiso   1.00
C735   C     0.13542   0.29454   0.41450   0.00000  Uiso   1.00
C736   C     0.17038   0.29532   0.38209   0.00000  Uiso   1.00
C737   C     0.15805   0.27507   0.34128   0.00000  Uiso   1.00
C738   C     0.11145   0.25342   0.66603   0.00000  Uiso   1.00
C739   C     0.07611   0.25283   0.36512   0.00000  Uiso   1.00
C740   C     0.08806   0.27339   0.40613   0.00000  Uiso   1.00
H741   H     0.20754   0.31075   0.38892   0.00000  Uiso   1.00
H742   H     0.18522   0.27611   0.65020   0.00000  Uiso   1.00
H743   H     0.10387   0.23669   0.63471   0.00000  Uiso   1.00
H744   H     0.03977   0.23634   0.35921   0.00000  Uiso   1.00
H745   H     0.06102   0.27237   0.43157   0.00000  Uiso   1.00
C746   C     0.20379   0.03750   0.58297   0.00000  Uiso   1.00
C747   C     0.24999   0.06018   0.57969   0.00000  Uiso   1.00
C748   C     0.27328   0.08109   0.61759   0.00000  Uiso   1.00
C749   C     0.25116   0.07830   0.65884   0.00000  Uiso   1.00
C750   C     0.20940   0.05190   0.66380   0.00000  Uiso   1.00
C751   C     0.18443   0.03232   0.62556   0.00000  Uiso   1.00
H752   H     0.26653   0.06318   0.54732   0.00000  Uiso   1.00
H753   H     0.30761   0.09999   0.61458   0.00000  Uiso   1.00
H754   H     0.26484   0.09705   0.35368   0.00000  Uiso   1.00
H755   H     0.19577   0.04814   0.36387   0.00000  Uiso   1.00
H756   H     0.14931   0.01448   0.62864   0.00000  Uiso   1.00
C757   C     0.08882   0.11674   0.37058   0.00000  Uiso   1.00
C758   C     0.08962   0.07454   0.36489   0.00000  Uiso   1.00
C759   C     0.05279   0.04765   0.38174   0.00000  Uiso   1.00
C760   C     0.01431   0.06286   0.40415   0.00000  Uiso   1.00
C761   C     0.00969   0.10486   0.40466   0.00000  Uiso   1.00
C762   C     0.04381   0.13123   0.38324   0.00000  Uiso   1.00
H763   H     0.11787   0.06236   0.34664   0.00000  Uiso   1.00
H764   H     0.05431   0.01522   0.37759   0.00000  Uiso   1.00
H765   H     0.31982   0.04227   0.41862   0.00000  Uiso   1.00
H766   H     0.31118   0.11668   0.41931   0.00000  Uiso   1.00
H767   H     0.03764   0.16347   0.38079   0.00000  Uiso   1.00
C768   C     0.25305   0.20408   0.62878   0.00000  Uiso   1.00
C769   C     0.25569   0.24049   0.60302   0.00000  Uiso   1.00
C770   C     0.29977   0.25399   0.58369   0.00000  Uiso   1.00
C771   C     0.00918   0.23125   0.59053   0.00000  Uiso   1.00
C772   C     0.00828   0.19623   0.61858   0.00000  Uiso   1.00
C773   C     0.29754   0.18330   0.63837   0.00000  Uiso   1.00
H774   H     0.22387   0.25809   0.59671   0.00000  Uiso   1.00
H775   H     0.30034   0.28162   0.56272   0.00000  Uiso   1.00
H776   H     0.04274   0.24073   0.57400   0.00000  Uiso   1.00
H777   H     0.04149   0.17882   0.62463   0.00000  Uiso   1.00
H778   H     0.29750   0.15648   0.66003   0.00000  Uiso   1.00
H779   H     0.10126   0.12771   0.61714   0.00000  Uiso   1.00
H780   H     0.23493   0.20271   0.38262   0.00000  Uiso   1.00
O781   O     0.50000   0.10655   0.53958   0.00000  Uiso   1.00
O782   O     0.50000   0.22678   0.46042   0.00000  Uiso   1.00
O783   O     0.50000   0.10654   0.46039   0.00000  Uiso   1.00
O784   O     0.50000   0.22679   0.53961   0.00000  Uiso   1.00
C785   C     0.50070   0.08762   0.50045   0.00000  Uiso   1.00
C786   C     0.49692   0.24563   0.49943   0.00000  Uiso   1.00
O787   O     0.42495   0.16667   0.53046   0.00000  Uiso   1.00
O788   O     0.57505   0.16666   0.46954   0.00000  Uiso   1.00
O789   O     0.42494   0.16666   0.45127   0.00000  Uiso   1.00
O790   O     0.57506   0.16667   0.54873   0.00000  Uiso   1.00
C791   C     0.40184   0.16787   0.48859   0.00000  Uiso   1.00
C792   C     0.59814   0.16542   0.51136   0.00000  Uiso   1.00
Cu793  Cu    0.50000   0.16667   0.54689   0.00000  Uiso   1.00
Cu794  Cu    0.50000   0.16666   0.45311   0.00000  Uiso   1.00
N795   N     0.50001   0.16668   0.61736   0.00000  Uiso   1.00
N796   N     0.49999   0.16666   0.38264   0.00000  Uiso   1.00
C797   C     0.34743   0.17211   0.48297   0.00000  Uiso   1.00
C798   C     0.65249   0.16096   0.51669   0.00000  Uiso   1.00
C799   C     0.48745   0.02251   0.45956   0.00000  Uiso   1.00
C800   C     0.49985   0.31097   0.54080   0.00000  Uiso   1.00
H801   H     0.48127   0.03954   0.42782   0.00000  Uiso   1.00
H802   H     0.50022   0.29462   0.57293   0.00000  Uiso   1.00
C803   C     0.48347   0.31353   0.45849   0.00000  Uiso   1.00
C804   C     0.50962   0.01964   0.54149   0.00000  Uiso   1.00
C805   C     0.49234   0.29036   0.49920   0.00000  Uiso   1.00
C806   C     0.50012   0.04279   0.50079   0.00000  Uiso   1.00
C807   C     0.46281   0.14471   0.35376   0.00000  Uiso   1.00
C808   C     0.53864   0.18677   0.64597   0.00000  Uiso   1.00
C809   C     0.46345   0.14530   0.63836   0.00000  Uiso   1.00
C810   C     0.53771   0.18688   0.36150   0.00000  Uiso   1.00
H811   H     0.66369   0.18454   0.45059   0.00000  Uiso   1.00
H812   H     0.33618   0.14772   0.54853   0.00000  Uiso   1.00
C813   C     0.46876   0.29454   0.41450   0.00000  Uiso   1.00
C814   C     0.50372   0.29532   0.38209   0.00000  Uiso   1.00
C815   C     0.49138   0.27507   0.34128   0.00000  Uiso   1.00
C816   C     0.44478   0.25342   0.66603   0.00000  Uiso   1.00
C817   C     0.40944   0.25283   0.36512   0.00000  Uiso   1.00
C818   C     0.42139   0.27339   0.40613   0.00000  Uiso   1.00
H819   H     0.54088   0.31075   0.38892   0.00000  Uiso   1.00
H820   H     0.51855   0.27611   0.65020   0.00000  Uiso   1.00
H821   H     0.43720   0.23669   0.63471   0.00000  Uiso   1.00
H822   H     0.37310   0.23634   0.35921   0.00000  Uiso   1.00
H823   H     0.39436   0.27237   0.43157   0.00000  Uiso   1.00
C824   C     0.53712   0.03750   0.58297   0.00000  Uiso   1.00
C825   C     0.58332   0.06018   0.57969   0.00000  Uiso   1.00
C826   C     0.60662   0.08109   0.61759   0.00000  Uiso   1.00
C827   C     0.58449   0.07830   0.65884   0.00000  Uiso   1.00
C828   C     0.54273   0.05190   0.66380   0.00000  Uiso   1.00
C829   C     0.51776   0.03232   0.62556   0.00000  Uiso   1.00
H830   H     0.59986   0.06318   0.54732   0.00000  Uiso   1.00
H831   H     0.64094   0.09999   0.61458   0.00000  Uiso   1.00
H832   H     0.59818   0.09705   0.35368   0.00000  Uiso   1.00
H833   H     0.52910   0.04814   0.36387   0.00000  Uiso   1.00
H834   H     0.48264   0.01448   0.62864   0.00000  Uiso   1.00
C835   C     0.42216   0.11674   0.37058   0.00000  Uiso   1.00
C836   C     0.42295   0.07454   0.36489   0.00000  Uiso   1.00
C837   C     0.38612   0.04765   0.38174   0.00000  Uiso   1.00
C838   C     0.34764   0.06286   0.40415   0.00000  Uiso   1.00
C839   C     0.34302   0.10486   0.40466   0.00000  Uiso   1.00
C840   C     0.37715   0.13123   0.38324   0.00000  Uiso   1.00
H841   H     0.45121   0.06236   0.34664   0.00000  Uiso   1.00
H842   H     0.38764   0.01522   0.37759   0.00000  Uiso   1.00
H843   H     0.65315   0.04227   0.41862   0.00000  Uiso   1.00
H844   H     0.64451   0.11668   0.41931   0.00000  Uiso   1.00
H845   H     0.37097   0.16347   0.38079   0.00000  Uiso   1.00
C846   C     0.58638   0.20408   0.62878   0.00000  Uiso   1.00
C847   C     0.58902   0.24049   0.60302   0.00000  Uiso   1.00
C848   C     0.63310   0.25399   0.58369   0.00000  Uiso   1.00
C849   C     0.34251   0.23125   0.59053   0.00000  Uiso   1.00
C850   C     0.34162   0.19623   0.61858   0.00000  Uiso   1.00
C851   C     0.63087   0.18330   0.63837   0.00000  Uiso   1.00
H852   H     0.55721   0.25809   0.59671   0.00000  Uiso   1.00
H853   H     0.63367   0.28162   0.56272   0.00000  Uiso   1.00
H854   H     0.37607   0.24073   0.57400   0.00000  Uiso   1.00
H855   H     0.37482   0.17882   0.62463   0.00000  Uiso   1.00
H856   H     0.63083   0.15648   0.66003   0.00000  Uiso   1.00
H857   H     0.43459   0.12771   0.61714   0.00000  Uiso   1.00
H858   H     0.56826   0.20271   0.38262   0.00000  Uiso   1.00
O859   O     0.83333   0.10655   0.53958   0.00000  Uiso   1.00
O860   O     0.83334   0.22678   0.46042   0.00000  Uiso   1.00
O861   O     0.83333   0.10654   0.46039   0.00000  Uiso   1.00
O862   O     0.83334   0.22679   0.53961   0.00000  Uiso   1.00
C863   C     0.83403   0.08762   0.50045   0.00000  Uiso   1.00
C864   C     0.83026   0.24563   0.49943   0.00000  Uiso   1.00
O865   O     0.75828   0.16667   0.53046   0.00000  Uiso   1.00
O866   O     0.90839   0.16666   0.46954   0.00000  Uiso   1.00
O867   O     0.75828   0.16666   0.45127   0.00000  Uiso   1.00
O868   O     0.90839   0.16667   0.54873   0.00000  Uiso   1.00
C869   C     0.73518   0.16787   0.48859   0.00000  Uiso   1.00
C870   C     0.93148   0.16542   0.51136   0.00000  Uiso   1.00
Cu871  Cu    0.83333   0.16667   0.54689   0.00000  Uiso   1.00
Cu872  Cu    0.83333   0.16666   0.45311   0.00000  Uiso   1.00
N873   N     0.83335   0.16668   0.61736   0.00000  Uiso   1.00
N874   N     0.83332   0.16666   0.38264   0.00000  Uiso   1.00
C875   C     0.68076   0.17211   0.48297   0.00000  Uiso   1.00
C876   C     0.98582   0.16096   0.51669   0.00000  Uiso   1.00
C877   C     0.82078   0.02251   0.45956   0.00000  Uiso   1.00
C878   C     0.83319   0.31097   0.54080   0.00000  Uiso   1.00
H879   H     0.81460   0.03954   0.42782   0.00000  Uiso   1.00
H880   H     0.83355   0.29462   0.57293   0.00000  Uiso   1.00
C881   C     0.81681   0.31353   0.45849   0.00000  Uiso   1.00
C882   C     0.84296   0.01964   0.54149   0.00000  Uiso   1.00
C883   C     0.82567   0.29036   0.49920   0.00000  Uiso   1.00
C884   C     0.83346   0.04279   0.50079   0.00000  Uiso   1.00
C885   C     0.79615   0.14471   0.35376   0.00000  Uiso   1.00
C886   C     0.87198   0.18677   0.64597   0.00000  Uiso   1.00
C887   C     0.79678   0.14530   0.63836   0.00000  Uiso   1.00
C888   C     0.87104   0.18688   0.36150   0.00000  Uiso   1.00
H889   H     0.99703   0.18454   0.45059   0.00000  Uiso   1.00
H890   H     0.66951   0.14772   0.54853   0.00000  Uiso   1.00
C891   C     0.80209   0.29454   0.41450   0.00000  Uiso   1.00
C892   C     0.83705   0.29532   0.38209   0.00000  Uiso   1.00
C893   C     0.82472   0.27507   0.34128   0.00000  Uiso   1.00
C894   C     0.77812   0.25342   0.66603   0.00000  Uiso   1.00
C895   C     0.74277   0.25283   0.36512   0.00000  Uiso   1.00
C896   C     0.75473   0.27339   0.40613   0.00000  Uiso   1.00
H897   H     0.87421   0.31075   0.38892   0.00000  Uiso   1.00
H898   H     0.85188   0.27611   0.65020   0.00000  Uiso   1.00
H899   H     0.77054   0.23669   0.63471   0.00000  Uiso   1.00
H900   H     0.70644   0.23634   0.35921   0.00000  Uiso   1.00
H901   H     0.72769   0.27237   0.43157   0.00000  Uiso   1.00
C902   C     0.87046   0.03750   0.58297   0.00000  Uiso   1.00
C903   C     0.91665   0.06018   0.57969   0.00000  Uiso   1.00
C904   C     0.93995   0.08109   0.61759   0.00000  Uiso   1.00
C905   C     0.91783   0.07830   0.65884   0.00000  Uiso   1.00
C906   C     0.87606   0.05190   0.66380   0.00000  Uiso   1.00
C907   C     0.85110   0.03232   0.62556   0.00000  Uiso   1.00
H908   H     0.93320   0.06318   0.54732   0.00000  Uiso   1.00
H909   H     0.97427   0.09999   0.61458   0.00000  Uiso   1.00
H910   H     0.93151   0.09705   0.35368   0.00000  Uiso   1.00
H911   H     0.86244   0.04814   0.36387   0.00000  Uiso   1.00
H912   H     0.81598   0.01448   0.62864   0.00000  Uiso   1.00
C913   C     0.75549   0.11674   0.37058   0.00000  Uiso   1.00
C914   C     0.75629   0.07454   0.36489   0.00000  Uiso   1.00
C915   C     0.71946   0.04765   0.38174   0.00000  Uiso   1.00
C916   C     0.68098   0.06286   0.40415   0.00000  Uiso   1.00
C917   C     0.67635   0.10486   0.40466   0.00000  Uiso   1.00
C918   C     0.71048   0.13123   0.38324   0.00000  Uiso   1.00
H919   H     0.78454   0.06236   0.34664   0.00000  Uiso   1.00
H920   H     0.72097   0.01522   0.37759   0.00000  Uiso   1.00
H921   H     0.98649   0.04227   0.41862   0.00000  Uiso   1.00
H922   H     0.97784   0.11668   0.41931   0.00000  Uiso   1.00
H923   H     0.70430   0.16347   0.38079   0.00000  Uiso   1.00
C924   C     0.91972   0.20408   0.62878   0.00000  Uiso   1.00
C925   C     0.92236   0.24049   0.60302   0.00000  Uiso   1.00
C926   C     0.96643   0.25399   0.58369   0.00000  Uiso   1.00
C927   C     0.67584   0.23125   0.59053   0.00000  Uiso   1.00
C928   C     0.67495   0.19623   0.61858   0.00000  Uiso   1.00
C929   C     0.96421   0.18330   0.63837   0.00000  Uiso   1.00
H930   H     0.89054   0.25809   0.59671   0.00000  Uiso   1.00
H931   H     0.96701   0.28162   0.56272   0.00000  Uiso   1.00
H932   H     0.70940   0.24073   0.57400   0.00000  Uiso   1.00
H933   H     0.70815   0.17882   0.62463   0.00000  Uiso   1.00
H934   H     0.96416   0.15648   0.66003   0.00000  Uiso   1.00
H935   H     0.76792   0.12771   0.61714   0.00000  Uiso   1.00
H936   H     0.90160   0.20271   0.38262   0.00000  Uiso   1.00
O937   O     0.16666   0.43989   0.53958   0.00000  Uiso   1.00
O938   O     0.16667   0.56011   0.46042   0.00000  Uiso   1.00
O939   O     0.16666   0.43988   0.46039   0.00000  Uiso   1.00
O940   O     0.16667   0.56012   0.53961   0.00000  Uiso   1.00
C941   C     0.16736   0.42095   0.50045   0.00000  Uiso   1.00
C942   C     0.16359   0.57896   0.49943   0.00000  Uiso   1.00
O943   O     0.09161   0.50000   0.53046   0.00000  Uiso   1.00
O944   O     0.24172   0.50000   0.46954   0.00000  Uiso   1.00
O945   O     0.09161   0.49999   0.45127   0.00000  Uiso   1.00
O946   O     0.24172   0.50001   0.54873   0.00000  Uiso   1.00
C947   C     0.06851   0.50120   0.48859   0.00000  Uiso   1.00
C948   C     0.26481   0.49875   0.51136   0.00000  Uiso   1.00
Cu949  Cu    0.16667   0.50001   0.54689   0.00000  Uiso   1.00
Cu950  Cu    0.16667   0.49999   0.45311   0.00000  Uiso   1.00
N951   N     0.16668   0.50001   0.61736   0.00000  Uiso   1.00
N952   N     0.16665   0.49999   0.38264   0.00000  Uiso   1.00
C953   C     0.01410   0.50545   0.48297   0.00000  Uiso   1.00
C954   C     0.31915   0.49430   0.51669   0.00000  Uiso   1.00
C955   C     0.15411   0.35584   0.45956   0.00000  Uiso   1.00
C956   C     0.16652   0.64430   0.54080   0.00000  Uiso   1.00
H957   H     0.14793   0.37287   0.42782   0.00000  Uiso   1.00
H958   H     0.16688   0.62796   0.57293   0.00000  Uiso   1.00
C959   C     0.15014   0.64687   0.45849   0.00000  Uiso   1.00
C960   C     0.17629   0.35297   0.54149   0.00000  Uiso   1.00
C961   C     0.15901   0.62369   0.49920   0.00000  Uiso   1.00
C962   C     0.16679   0.37612   0.50079   0.00000  Uiso   1.00
C963   C     0.12948   0.47804   0.35376   0.00000  Uiso   1.00
C964   C     0.20531   0.52010   0.64597   0.00000  Uiso   1.00
C965   C     0.13012   0.47863   0.63836   0.00000  Uiso   1.00
C966   C     0.20438   0.52021   0.36150   0.00000  Uiso   1.00
H967   H     0.33036   0.51787   0.45059   0.00000  Uiso   1.00
H968   H     0.00285   0.48105   0.54853   0.00000  Uiso   1.00
C969   C     0.13542   0.62788   0.41450   0.00000  Uiso   1.00
C970   C     0.17038   0.62866   0.38209   0.00000  Uiso   1.00
C971   C     0.15805   0.60840   0.34128   0.00000  Uiso   1.00
C972   C     0.11145   0.58675   0.66603   0.00000  Uiso   1.00
C973   C     0.07611   0.58616   0.36512   0.00000  Uiso   1.00
C974   C     0.08806   0.60673   0.40613   0.00000  Uiso   1.00
H975   H     0.20754   0.64408   0.38892   0.00000  Uiso   1.00
H976   H     0.18522   0.60944   0.65020   0.00000  Uiso   1.00
H977   H     0.10387   0.57003   0.63471   0.00000  Uiso   1.00
H978   H     0.03977   0.56968   0.35921   0.00000  Uiso   1.00
H979   H     0.06102   0.60570   0.43157   0.00000  Uiso   1.00
C980   C     0.20379   0.37083   0.58297   0.00000  Uiso   1.00
C981   C     0.24999   0.39352   0.57969   0.00000  Uiso   1.00
C982   C     0.27328   0.41442   0.61759   0.00000  Uiso   1.00
C983   C     0.25116   0.41163   0.65884   0.00000  Uiso   1.00
C984   C     0.20940   0.38523   0.66380   0.00000  Uiso   1.00
C985   C     0.18443   0.36566   0.62556   0.00000  Uiso   1.00
H986   H     0.26653   0.39651   0.54732   0.00000  Uiso   1.00
H987   H     0.30761   0.43332   0.61458   0.00000  Uiso   1.00
H988   H     0.26484   0.43038   0.35368   0.00000  Uiso   1.00
H989   H     0.19577   0.38147   0.36387   0.00000  Uiso   1.00
H990   H     0.14931   0.34781   0.62864   0.00000  Uiso   1.00
C991   C     0.08882   0.45008   0.37058   0.00000  Uiso   1.00
C992   C     0.08962   0.40788   0.36489   0.00000  Uiso   1.00
C993   C     0.05279   0.38099   0.38174   0.00000  Uiso   1.00
C994   C     0.01431   0.39619   0.40415   0.00000  Uiso   1.00
C995   C     0.00969   0.43819   0.40466   0.00000  Uiso   1.00
C996   C     0.04381   0.46456   0.38324   0.00000  Uiso   1.00
H997   H     0.11787   0.39570   0.34664   0.00000  Uiso   1.00
H998   H     0.05431   0.34855   0.37759   0.00000  Uiso   1.00
H999   H     0.31982   0.37560   0.41862   0.00000  Uiso   1.00
H1000  H     0.31118   0.45001   0.41931   0.00000  Uiso   1.00
H1001  H     0.03764   0.49680   0.38079   0.00000  Uiso   1.00
C1002  C     0.25305   0.53741   0.62878   0.00000  Uiso   1.00
C1003  C     0.25569   0.57383   0.60302   0.00000  Uiso   1.00
C1004  C     0.29977   0.58733   0.58369   0.00000  Uiso   1.00
C1005  C     0.00918   0.56458   0.59053   0.00000  Uiso   1.00
C1006  C     0.00828   0.52956   0.61858   0.00000  Uiso   1.00
C1007  C     0.29754   0.51663   0.63837   0.00000  Uiso   1.00
H1008  H     0.22387   0.59143   0.59671   0.00000  Uiso   1.00
H1009  H     0.30034   0.61495   0.56272   0.00000  Uiso   1.00
H1010  H     0.04274   0.57407   0.57400   0.00000  Uiso   1.00
H1011  H     0.04149   0.51215   0.62463   0.00000  Uiso   1.00
H1012  H     0.29750   0.48981   0.66003   0.00000  Uiso   1.00
H1013  H     0.10126   0.46104   0.61714   0.00000  Uiso   1.00
H1014  H     0.23493   0.53605   0.38262   0.00000  Uiso   1.00
O1015  O     0.50000   0.43989   0.53958   0.00000  Uiso   1.00
O1016  O     0.50000   0.56011   0.46042   0.00000  Uiso   1.00
O1017  O     0.50000   0.43988   0.46039   0.00000  Uiso   1.00
O1018  O     0.50000   0.56012   0.53961   0.00000  Uiso   1.00
C1019  C     0.50070   0.42095   0.50045   0.00000  Uiso   1.00
C1020  C     0.49692   0.57896   0.49943   0.00000  Uiso   1.00
O1021  O     0.42495   0.50000   0.53046   0.00000  Uiso   1.00
O1022  O     0.57505   0.50000   0.46954   0.00000  Uiso   1.00
O1023  O     0.42494   0.49999   0.45127   0.00000  Uiso   1.00
O1024  O     0.57506   0.50001   0.54873   0.00000  Uiso   1.00
C1025  C     0.40184   0.50120   0.48859   0.00000  Uiso   1.00
C1026  C     0.59814   0.49875   0.51136   0.00000  Uiso   1.00
Cu1027 Cu    0.50000   0.50001   0.54689   0.00000  Uiso   1.00
Cu1028 Cu    0.50000   0.49999   0.45311   0.00000  Uiso   1.00
N1029  N     0.50001   0.50001   0.61736   0.00000  Uiso   1.00
N1030  N     0.49999   0.49999   0.38264   0.00000  Uiso   1.00
C1031  C     0.34743   0.50545   0.48297   0.00000  Uiso   1.00
C1032  C     0.65249   0.49430   0.51669   0.00000  Uiso   1.00
C1033  C     0.48745   0.35584   0.45956   0.00000  Uiso   1.00
C1034  C     0.49985   0.64430   0.54080   0.00000  Uiso   1.00
H1035  H     0.48127   0.37287   0.42782   0.00000  Uiso   1.00
H1036  H     0.50022   0.62796   0.57293   0.00000  Uiso   1.00
C1037  C     0.48347   0.64687   0.45849   0.00000  Uiso   1.00
C1038  C     0.50962   0.35297   0.54149   0.00000  Uiso   1.00
C1039  C     0.49234   0.62369   0.49920   0.00000  Uiso   1.00
C1040  C     0.50012   0.37612   0.50079   0.00000  Uiso   1.00
C1041  C     0.46281   0.47804   0.35376   0.00000  Uiso   1.00
C1042  C     0.53864   0.52010   0.64597   0.00000  Uiso   1.00
C1043  C     0.46345   0.47863   0.63836   0.00000  Uiso   1.00
C1044  C     0.53771   0.52021   0.36150   0.00000  Uiso   1.00
H1045  H     0.66369   0.51787   0.45059   0.00000  Uiso   1.00
H1046  H     0.33618   0.48105   0.54853   0.00000  Uiso   1.00
C1047  C     0.46876   0.62788   0.41450   0.00000  Uiso   1.00
C1048  C     0.50372   0.62866   0.38209   0.00000  Uiso   1.00
C1049  C     0.49138   0.60840   0.34128   0.00000  Uiso   1.00
C1050  C     0.44478   0.58675   0.66603   0.00000  Uiso   1.00
C1051  C     0.40944   0.58616   0.36512   0.00000  Uiso   1.00
C1052  C     0.42139   0.60673   0.40613   0.00000  Uiso   1.00
H1053  H     0.54088   0.64408   0.38892   0.00000  Uiso   1.00
H1054  H     0.51855   0.60944   0.65020   0.00000  Uiso   1.00
H1055  H     0.43720   0.57003   0.63471   0.00000  Uiso   1.00
H1056  H     0.37310   0.56968   0.35921   0.00000  Uiso   1.00
H1057  H     0.39436   0.60570   0.43157   0.00000  Uiso   1.00
C1058  C     0.53712   0.37083   0.58297   0.00000  Uiso   1.00
C1059  C     0.58332   0.39352   0.57969   0.00000  Uiso   1.00
C1060  C     0.60662   0.41442   0.61759   0.00000  Uiso   1.00
C1061  C     0.58449   0.41163   0.65884   0.00000  Uiso   1.00
C1062  C     0.54273   0.38523   0.66380   0.00000  Uiso   1.00
C1063  C     0.51776   0.36566   0.62556   0.00000  Uiso   1.00
H1064  H     0.59986   0.39651   0.54732   0.00000  Uiso   1.00
H1065  H     0.64094   0.43332   0.61458   0.00000  Uiso   1.00
H1066  H     0.59818   0.43038   0.35368   0.00000  Uiso   1.00
H1067  H     0.52910   0.38147   0.36387   0.00000  Uiso   1.00
H1068  H     0.48264   0.34781   0.62864   0.00000  Uiso   1.00
C1069  C     0.42216   0.45008   0.37058   0.00000  Uiso   1.00
C1070  C     0.42295   0.40788   0.36489   0.00000  Uiso   1.00
C1071  C     0.38612   0.38099   0.38174   0.00000  Uiso   1.00
C1072  C     0.34764   0.39619   0.40415   0.00000  Uiso   1.00
C1073  C     0.34302   0.43819   0.40466   0.00000  Uiso   1.00
C1074  C     0.37715   0.46456   0.38324   0.00000  Uiso   1.00
H1075  H     0.45121   0.39570   0.34664   0.00000  Uiso   1.00
H1076  H     0.38764   0.34855   0.37759   0.00000  Uiso   1.00
H1077  H     0.65315   0.37560   0.41862   0.00000  Uiso   1.00
H1078  H     0.64451   0.45001   0.41931   0.00000  Uiso   1.00
H1079  H     0.37097   0.49680   0.38079   0.00000  Uiso   1.00
C1080  C     0.58638   0.53741   0.62878   0.00000  Uiso   1.00
C1081  C     0.58902   0.57383   0.60302   0.00000  Uiso   1.00
C1082  C     0.63310   0.58733   0.58369   0.00000  Uiso   1.00
C1083  C     0.34251   0.56458   0.59053   0.00000  Uiso   1.00
C1084  C     0.34162   0.52956   0.61858   0.00000  Uiso   1.00
C1085  C     0.63087   0.51663   0.63837   0.00000  Uiso   1.00
H1086  H     0.55721   0.59143   0.59671   0.00000  Uiso   1.00
H1087  H     0.63367   0.61495   0.56272   0.00000  Uiso   1.00
H1088  H     0.37607   0.57407   0.57400   0.00000  Uiso   1.00
H1089  H     0.37482   0.51215   0.62463   0.00000  Uiso   1.00
H1090  H     0.63083   0.48981   0.66003   0.00000  Uiso   1.00
H1091  H     0.43459   0.46104   0.61714   0.00000  Uiso   1.00
H1092  H     0.56826   0.53605   0.38262   0.00000  Uiso   1.00
O1093  O     0.83333   0.43989   0.53958   0.00000  Uiso   1.00
O1094  O     0.83334   0.56011   0.46042   0.00000  Uiso   1.00
O1095  O     0.83333   0.43988   0.46039   0.00000  Uiso   1.00
O1096  O     0.83334   0.56012   0.53961   0.00000  Uiso   1.00
C1097  C     0.83403   0.42095   0.50045   0.00000  Uiso   1.00
C1098  C     0.83026   0.57896   0.49943   0.00000  Uiso   1.00
O1099  O     0.75828   0.50000   0.53046   0.00000  Uiso   1.00
O1100  O     0.90839   0.50000   0.46954   0.00000  Uiso   1.00
O1101  O     0.75828   0.49999   0.45127   0.00000  Uiso   1.00
O1102  O     0.90839   0.50001   0.54873   0.00000  Uiso   1.00
C1103  C     0.73518   0.50120   0.48859   0.00000  Uiso   1.00
C1104  C     0.93148   0.49875   0.51136   0.00000  Uiso   1.00
Cu1105 Cu    0.83333   0.50001   0.54689   0.00000  Uiso   1.00
Cu1106 Cu    0.83333   0.49999   0.45311   0.00000  Uiso   1.00
N1107  N     0.83335   0.50001   0.61736   0.00000  Uiso   1.00
N1108  N     0.83332   0.49999   0.38264   0.00000  Uiso   1.00
C1109  C     0.68076   0.50545   0.48297   0.00000  Uiso   1.00
C1110  C     0.98582   0.49430   0.51669   0.00000  Uiso   1.00
C1111  C     0.82078   0.35584   0.45956   0.00000  Uiso   1.00
C1112  C     0.83319   0.64430   0.54080   0.00000  Uiso   1.00
H1113  H     0.81460   0.37287   0.42782   0.00000  Uiso   1.00
H1114  H     0.83355   0.62796   0.57293   0.00000  Uiso   1.00
C1115  C     0.81681   0.64687   0.45849   0.00000  Uiso   1.00
C1116  C     0.84296   0.35297   0.54149   0.00000  Uiso   1.00
C1117  C     0.82567   0.62369   0.49920   0.00000  Uiso   1.00
C1118  C     0.83346   0.37612   0.50079   0.00000  Uiso   1.00
C1119  C     0.79615   0.47804   0.35376   0.00000  Uiso   1.00
C1120  C     0.87198   0.52010   0.64597   0.00000  Uiso   1.00
C1121  C     0.79678   0.47863   0.63836   0.00000  Uiso   1.00
C1122  C     0.87104   0.52021   0.36150   0.00000  Uiso   1.00
H1123  H     0.99703   0.51787   0.45059   0.00000  Uiso   1.00
H1124  H     0.66951   0.48105   0.54853   0.00000  Uiso   1.00
C1125  C     0.80209   0.62788   0.41450   0.00000  Uiso   1.00
C1126  C     0.83705   0.62866   0.38209   0.00000  Uiso   1.00
C1127  C     0.82472   0.60840   0.34128   0.00000  Uiso   1.00
C1128  C     0.77812   0.58675   0.66603   0.00000  Uiso   1.00
C1129  C     0.74277   0.58616   0.36512   0.00000  Uiso   1.00
C1130  C     0.75473   0.60673   0.40613   0.00000  Uiso   1.00
H1131  H     0.87421   0.64408   0.38892   0.00000  Uiso   1.00
H1132  H     0.85188   0.60944   0.65020   0.00000  Uiso   1.00
H1133  H     0.77054   0.57003   0.63471   0.00000  Uiso   1.00
H1134  H     0.70644   0.56968   0.35921   0.00000  Uiso   1.00
H1135  H     0.72769   0.60570   0.43157   0.00000  Uiso   1.00
C1136  C     0.87046   0.37083   0.58297   0.00000  Uiso   1.00
C1137  C     0.91665   0.39352   0.57969   0.00000  Uiso   1.00
C1138  C     0.93995   0.41442   0.61759   0.00000  Uiso   1.00
C1139  C     0.91783   0.41163   0.65884   0.00000  Uiso   1.00
C1140  C     0.87606   0.38523   0.66380   0.00000  Uiso   1.00
C1141  C     0.85110   0.36566   0.62556   0.00000  Uiso   1.00
H1142  H     0.93320   0.39651   0.54732   0.00000  Uiso   1.00
H1143  H     0.97427   0.43332   0.61458   0.00000  Uiso   1.00
H1144  H     0.93151   0.43038   0.35368   0.00000  Uiso   1.00
H1145  H     0.86244   0.38147   0.36387   0.00000  Uiso   1.00
H1146  H     0.81598   0.34781   0.62864   0.00000  Uiso   1.00
C1147  C     0.75549   0.45008   0.37058   0.00000  Uiso   1.00
C1148  C     0.75629   0.40788   0.36489   0.00000  Uiso   1.00
C1149  C     0.71946   0.38099   0.38174   0.00000  Uiso   1.00
C1150  C     0.68098   0.39619   0.40415   0.00000  Uiso   1.00
C1151  C     0.67635   0.43819   0.40466   0.00000  Uiso   1.00
C1152  C     0.71048   0.46456   0.38324   0.00000  Uiso   1.00
H1153  H     0.78454   0.39570   0.34664   0.00000  Uiso   1.00
H1154  H     0.72097   0.34855   0.37759   0.00000  Uiso   1.00
H1155  H     0.98649   0.37560   0.41862   0.00000  Uiso   1.00
H1156  H     0.97784   0.45001   0.41931   0.00000  Uiso   1.00
H1157  H     0.70430   0.49680   0.38079   0.00000  Uiso   1.00
C1158  C     0.91972   0.53741   0.62878   0.00000  Uiso   1.00
C1159  C     0.92236   0.57383   0.60302   0.00000  Uiso   1.00
C1160  C     0.96643   0.58733   0.58369   0.00000  Uiso   1.00
C1161  C     0.67584   0.56458   0.59053   0.00000  Uiso   1.00
C1162  C     0.67495   0.52956   0.61858   0.00000  Uiso   1.00
C1163  C     0.96421   0.51663   0.63837   0.00000  Uiso   1.00
H1164  H     0.89054   0.59143   0.59671   0.00000  Uiso   1.00
H1165  H     0.96701   0.61495   0.56272   0.00000  Uiso   1.00
H1166  H     0.70940   0.57407   0.57400   0.00000  Uiso   1.00
H1167  H     0.70815   0.51215   0.62463   0.00000  Uiso   1.00
H1168  H     0.96416   0.48981   0.66003   0.00000  Uiso   1.00
H1169  H     0.76792   0.46104   0.61714   0.00000  Uiso   1.00
H1170  H     0.90160   0.53605   0.38262   0.00000  Uiso   1.00
O1171  O     0.16666   0.77322   0.53958   0.00000  Uiso   1.00
O1172  O     0.16667   0.89345   0.46042   0.00000  Uiso   1.00
O1173  O     0.16666   0.77321   0.46039   0.00000  Uiso   1.00
O1174  O     0.16667   0.89346   0.53961   0.00000  Uiso   1.00
C1175  C     0.16736   0.75428   0.50045   0.00000  Uiso   1.00
C1176  C     0.16359   0.91230   0.49943   0.00000  Uiso   1.00
O1177  O     0.09161   0.83334   0.53046   0.00000  Uiso   1.00
O1178  O     0.24172   0.83333   0.46954   0.00000  Uiso   1.00
O1179  O     0.09161   0.83333   0.45127   0.00000  Uiso   1.00
O1180  O     0.24172   0.83334   0.54873   0.00000  Uiso   1.00
C1181  C     0.06851   0.83453   0.48859   0.00000  Uiso   1.00
C1182  C     0.26481   0.83209   0.51136   0.00000  Uiso   1.00
Cu1183 Cu    0.16667   0.83334   0.54689   0.00000  Uiso   1.00
Cu1184 Cu    0.16667   0.83333   0.45311   0.00000  Uiso   1.00
N1185  N     0.16668   0.83334   0.61736   0.00000  Uiso   1.00
N1186  N     0.16665   0.83332   0.38264   0.00000  Uiso   1.00
C1187  C     0.01410   0.83878   0.48297   0.00000  Uiso   1.00
C1188  C     0.31915   0.82763   0.51669   0.00000  Uiso   1.00
C1189  C     0.15411   0.68918   0.45956   0.00000  Uiso   1.00
C1190  C     0.16652   0.97763   0.54080   0.00000  Uiso   1.00
H1191  H     0.14793   0.70620   0.42782   0.00000  Uiso   1.00
H1192  H     0.16688   0.96129   0.57293   0.00000  Uiso   1.00
C1193  C     0.15014   0.98020   0.45849   0.00000  Uiso   1.00
C1194  C     0.17629   0.68630   0.54149   0.00000  Uiso   1.00
C1195  C     0.15901   0.95703   0.49920   0.00000  Uiso   1.00
C1196  C     0.16679   0.70945   0.50079   0.00000  Uiso   1.00
C1197  C     0.12948   0.81137   0.35376   0.00000  Uiso   1.00
C1198  C     0.20531   0.85344   0.64597   0.00000  Uiso   1.00
C1199  C     0.13012   0.81196   0.63836   0.00000  Uiso   1.00
C1200  C     0.20438   0.85354   0.36150   0.00000  Uiso   1.00
H1201  H     0.33036   0.85120   0.45059   0.00000  Uiso   1.00
H1202  H     0.00285   0.81438   0.54853   0.00000  Uiso   1.00
C1203  C     0.13542   0.96121   0.41450   0.00000  Uiso   1.00
C1204  C     0.17038   0.96199   0.38209   0.00000  Uiso   1.00
C1205  C     0.15805   0.94174   0.34128   0.00000  Uiso   1.00
C1206  C     0.11145   0.92009   0.66603   0.00000  Uiso   1.00
C1207  C     0.07611   0.91949   0.36512   0.00000  Uiso   1.00
C1208  C     0.08806   0.94006   0.40613   0.00000  Uiso   1.00
H1209  H     0.20754   0.97741   0.38892   0.00000  Uiso   1.00
H1210  H     0.18522   0.94277   0.65020   0.00000  Uiso   1.00
H1211  H     0.10387   0.90336   0.63471   0.00000  Uiso   1.00
H1212  H     0.03977   0.90301   0.35921   0.00000  Uiso   1.00
H1213  H     0.06102   0.93903   0.43157   0.00000  Uiso   1.00
C1214  C     0.20379   0.70416   0.58297   0.00000  Uiso   1.00
C1215  C     0.24999   0.72685   0.57969   0.00000  Uiso   1.00
C1216  C     0.27328   0.74776   0.61759   0.00000  Uiso   1.00
C1217  C     0.25116   0.74496   0.65884   0.00000  Uiso   1.00
C1218  C     0.20940   0.71856   0.66380   0.00000  Uiso   1.00
C1219  C     0.18443   0.69899   0.62556   0.00000  Uiso   1.00
H1220  H     0.26653   0.72985   0.54732   0.00000  Uiso   1.00
H1221  H     0.30761   0.76666   0.61458   0.00000  Uiso   1.00
H1222  H     0.26484   0.76372   0.35368   0.00000  Uiso   1.00
H1223  H     0.19577   0.71481   0.36387   0.00000  Uiso   1.00
H1224  H     0.14931   0.68114   0.62864   0.00000  Uiso   1.00
C1225  C     0.08882   0.78341   0.37058   0.00000  Uiso   1.00
C1226  C     0.08962   0.74121   0.36489   0.00000  Uiso   1.00
C1227  C     0.05279   0.71432   0.38174   0.00000  Uiso   1.00
C1228  C     0.01431   0.72952   0.40415   0.00000  Uiso   1.00
C1229  C     0.00969   0.77152   0.40466   0.00000  Uiso   1.00
C1230  C     0.04381   0.79790   0.38324   0.00000  Uiso   1.00
H1231  H     0.11787   0.72903   0.34664   0.00000  Uiso   1.00
H1232  H     0.05431   0.68188   0.37759   0.00000  Uiso   1.00
H1233  H     0.31982   0.70894   0.41862   0.00000  Uiso   1.00
H1234  H     0.31118   0.78335   0.41931   0.00000  Uiso   1.00
H1235  H     0.03764   0.83014   0.38079   0.00000  Uiso   1.00
C1236  C     0.25305   0.87075   0.62878   0.00000  Uiso   1.00
C1237  C     0.25569   0.90716   0.60302   0.00000  Uiso   1.00
C1238  C     0.29977   0.92066   0.58369   0.00000  Uiso   1.00
C1239  C     0.00918   0.89792   0.59053   0.00000  Uiso   1.00
C1240  C     0.00828   0.86289   0.61858   0.00000  Uiso   1.00
C1241  C     0.29754   0.84996   0.63837   0.00000  Uiso   1.00
H1242  H     0.22387   0.92476   0.59671   0.00000  Uiso   1.00
H1243  H     0.30034   0.94828   0.56272   0.00000  Uiso   1.00
H1244  H     0.04274   0.90740   0.57400   0.00000  Uiso   1.00
H1245  H     0.04149   0.84548   0.62463   0.00000  Uiso   1.00
H1246  H     0.29750   0.82315   0.66003   0.00000  Uiso   1.00
H1247  H     0.10126   0.79438   0.61714   0.00000  Uiso   1.00
H1248  H     0.23493   0.86938   0.38262   0.00000  Uiso   1.00
O1249  O     0.50000   0.77322   0.53958   0.00000  Uiso   1.00
O1250  O     0.50000   0.89345   0.46042   0.00000  Uiso   1.00
O1251  O     0.50000   0.77321   0.46039   0.00000  Uiso   1.00
O1252  O     0.50000   0.89346   0.53961   0.00000  Uiso   1.00
C1253  C     0.50070   0.75428   0.50045   0.00000  Uiso   1.00
C1254  C     0.49692   0.91230   0.49943   0.00000  Uiso   1.00
O1255  O     0.42495   0.83334   0.53046   0.00000  Uiso   1.00
O1256  O     0.57505   0.83333   0.46954   0.00000  Uiso   1.00
O1257  O     0.42494   0.83333   0.45127   0.00000  Uiso   1.00
O1258  O     0.57506   0.83334   0.54873   0.00000  Uiso   1.00
C1259  C     0.40184   0.83453   0.48859   0.00000  Uiso   1.00
C1260  C     0.59814   0.83209   0.51136   0.00000  Uiso   1.00
Cu1261 Cu    0.50000   0.83334   0.54689   0.00000  Uiso   1.00
Cu1262 Cu    0.50000   0.83333   0.45311   0.00000  Uiso   1.00
N1263  N     0.50001   0.83334   0.61736   0.00000  Uiso   1.00
N1264  N     0.49999   0.83332   0.38264   0.00000  Uiso   1.00
C1265  C     0.34743   0.83878   0.48297   0.00000  Uiso   1.00
C1266  C     0.65249   0.82763   0.51669   0.00000  Uiso   1.00
C1267  C     0.48745   0.68918   0.45956   0.00000  Uiso   1.00
C1268  C     0.49985   0.97763   0.54080   0.00000  Uiso   1.00
H1269  H     0.48127   0.70620   0.42782   0.00000  Uiso   1.00
H1270  H     0.50022   0.96129   0.57293   0.00000  Uiso   1.00
C1271  C     0.48347   0.98020   0.45849   0.00000  Uiso   1.00
C1272  C     0.50962   0.68630   0.54149   0.00000  Uiso   1.00
C1273  C     0.49234   0.95703   0.49920   0.00000  Uiso   1.00
C1274  C     0.50012   0.70945   0.50079   0.00000  Uiso   1.00
C1275  C     0.46281   0.81137   0.35376   0.00000  Uiso   1.00
C1276  C     0.53864   0.85344   0.64597   0.00000  Uiso   1.00
C1277  C     0.46345   0.81196   0.63836   0.00000  Uiso   1.00
C1278  C     0.53771   0.85354   0.36150   0.00000  Uiso   1.00
H1279  H     0.66369   0.85120   0.45059   0.00000  Uiso   1.00
H1280  H     0.33618   0.81438   0.54853   0.00000  Uiso   1.00
C1281  C     0.46876   0.96121   0.41450   0.00000  Uiso   1.00
C1282  C     0.50372   0.96199   0.38209   0.00000  Uiso   1.00
C1283  C     0.49138   0.94174   0.34128   0.00000  Uiso   1.00
C1284  C     0.44478   0.92009   0.66603   0.00000  Uiso   1.00
C1285  C     0.40944   0.91949   0.36512   0.00000  Uiso   1.00
C1286  C     0.42139   0.94006   0.40613   0.00000  Uiso   1.00
H1287  H     0.54088   0.97741   0.38892   0.00000  Uiso   1.00
H1288  H     0.51855   0.94277   0.65020   0.00000  Uiso   1.00
H1289  H     0.43720   0.90336   0.63471   0.00000  Uiso   1.00
H1290  H     0.37310   0.90301   0.35921   0.00000  Uiso   1.00
H1291  H     0.39436   0.93903   0.43157   0.00000  Uiso   1.00
C1292  C     0.53712   0.70416   0.58297   0.00000  Uiso   1.00
C1293  C     0.58332   0.72685   0.57969   0.00000  Uiso   1.00
C1294  C     0.60662   0.74776   0.61759   0.00000  Uiso   1.00
C1295  C     0.58449   0.74496   0.65884   0.00000  Uiso   1.00
C1296  C     0.54273   0.71856   0.66380   0.00000  Uiso   1.00
C1297  C     0.51776   0.69899   0.62556   0.00000  Uiso   1.00
H1298  H     0.59986   0.72985   0.54732   0.00000  Uiso   1.00
H1299  H     0.64094   0.76666   0.61458   0.00000  Uiso   1.00
H1300  H     0.59818   0.76372   0.35368   0.00000  Uiso   1.00
H1301  H     0.52910   0.71481   0.36387   0.00000  Uiso   1.00
H1302  H     0.48264   0.68114   0.62864   0.00000  Uiso   1.00
C1303  C     0.42216   0.78341   0.37058   0.00000  Uiso   1.00
C1304  C     0.42295   0.74121   0.36489   0.00000  Uiso   1.00
C1305  C     0.38612   0.71432   0.38174   0.00000  Uiso   1.00
C1306  C     0.34764   0.72952   0.40415   0.00000  Uiso   1.00
C1307  C     0.34302   0.77152   0.40466   0.00000  Uiso   1.00
C1308  C     0.37715   0.79790   0.38324   0.00000  Uiso   1.00
H1309  H     0.45121   0.72903   0.34664   0.00000  Uiso   1.00
H1310  H     0.38764   0.68188   0.37759   0.00000  Uiso   1.00
H1311  H     0.65315   0.70894   0.41862   0.00000  Uiso   1.00
H1312  H     0.64451   0.78335   0.41931   0.00000  Uiso   1.00
H1313  H     0.37097   0.83014   0.38079   0.00000  Uiso   1.00
C1314  C     0.58638   0.87075   0.62878   0.00000  Uiso   1.00
C1315  C     0.58902   0.90716   0.60302   0.00000  Uiso   1.00
C1316  C     0.63310   0.92066   0.58369   0.00000  Uiso   1.00
C1317  C     0.34251   0.89792   0.59053   0.00000  Uiso   1.00
C1318  C     0.34162   0.86289   0.61858   0.00000  Uiso   1.00
C1319  C     0.63087   0.84996   0.63837   0.00000  Uiso   1.00
H1320  H     0.55721   0.92476   0.59671   0.00000  Uiso   1.00
H1321  H     0.63367   0.94828   0.56272   0.00000  Uiso   1.00
H1322  H     0.37607   0.90740   0.57400   0.00000  Uiso   1.00
H1323  H     0.37482   0.84548   0.62463   0.00000  Uiso   1.00
H1324  H     0.63083   0.82315   0.66003   0.00000  Uiso   1.00
H1325  H     0.43459   0.79438   0.61714   0.00000  Uiso   1.00
H1326  H     0.56826   0.86938   0.38262   0.00000  Uiso   1.00
O1327  O     0.83333   0.77322   0.53958   0.00000  Uiso   1.00
O1328  O     0.83334   0.89345   0.46042   0.00000  Uiso   1.00
O1329  O     0.83333   0.77321   0.46039   0.00000  Uiso   1.00
O1330  O     0.83334   0.89346   0.53961   0.00000  Uiso   1.00
C1331  C     0.83403   0.75428   0.50045   0.00000  Uiso   1.00
C1332  C     0.83026   0.91230   0.49943   0.00000  Uiso   1.00
O1333  O     0.75828   0.83334   0.53046   0.00000  Uiso   1.00
O1334  O     0.90839   0.83333   0.46954   0.00000  Uiso   1.00
O1335  O     0.75828   0.83333   0.45127   0.00000  Uiso   1.00
O1336  O     0.90839   0.83334   0.54873   0.00000  Uiso   1.00
C1337  C     0.73518   0.83453   0.48859   0.00000  Uiso   1.00
C1338  C     0.93148   0.83209   0.51136   0.00000  Uiso   1.00
Cu1339 Cu    0.83333   0.83334   0.54689   0.00000  Uiso   1.00
Cu1340 Cu    0.83333   0.83333   0.45311   0.00000  Uiso   1.00
N1341  N     0.83335   0.83334   0.61736   0.00000  Uiso   1.00
N1342  N     0.83332   0.83332   0.38264   0.00000  Uiso   1.00
C1343  C     0.68076   0.83878   0.48297   0.00000  Uiso   1.00
C1344  C     0.98582   0.82763   0.51669   0.00000  Uiso   1.00
C1345  C     0.82078   0.68918   0.45956   0.00000  Uiso   1.00
C1346  C     0.83319   0.97763   0.54080   0.00000  Uiso   1.00
H1347  H     0.81460   0.70620   0.42782   0.00000  Uiso   1.00
H1348  H     0.83355   0.96129   0.57293   0.00000  Uiso   1.00
C1349  C     0.81681   0.98020   0.45849   0.00000  Uiso   1.00
C1350  C     0.84296   0.68630   0.54149   0.00000  Uiso   1.00
C1351  C     0.82567   0.95703   0.49920   0.00000  Uiso   1.00
C1352  C     0.83346   0.70945   0.50079   0.00000  Uiso   1.00
C1353  C     0.79615   0.81137   0.35376   0.00000  Uiso   1.00
C1354  C     0.87198   0.85344   0.64597   0.00000  Uiso   1.00
C1355  C     0.79678   0.81196   0.63836   0.00000  Uiso   1.00
C1356  C     0.87104   0.85354   0.36150   0.00000  Uiso   1.00
H1357  H     0.99703   0.85120   0.45059   0.00000  Uiso   1.00
H1358  H     0.66951   0.81438   0.54853   0.00000  Uiso   1.00
C1359  C     0.80209   0.96121   0.41450   0.00000  Uiso   1.00
C1360  C     0.83705   0.96199   0.38209   0.00000  Uiso   1.00
C1361  C     0.82472   0.94174   0.34128   0.00000  Uiso   1.00
C1362  C     0.77812   0.92009   0.66603   0.00000  Uiso   1.00
C1363  C     0.74277   0.91949   0.36512   0.00000  Uiso   1.00
C1364  C     0.75473   0.94006   0.40613   0.00000  Uiso   1.00
H1365  H     0.87421   0.97741   0.38892   0.00000  Uiso   1.00
H1366  H     0.85188   0.94277   0.65020   0.00000  Uiso   1.00
H1367  H     0.77054   0.90336   0.63471   0.00000  Uiso   1.00
H1368  H     0.70644   0.90301   0.35921   0.00000  Uiso   1.00
H1369  H     0.72769   0.93903   0.43157   0.00000  Uiso   1.00
C1370  C     0.87046   0.70416   0.58297   0.00000  Uiso   1.00
C1371  C     0.91665   0.72685   0.57969   0.00000  Uiso   1.00
C1372  C     0.93995   0.74776   0.61759   0.00000  Uiso   1.00
C1373  C     0.91783   0.74496   0.65884   0.00000  Uiso   1.00
C1374  C     0.87606   0.71856   0.66380   0.00000  Uiso   1.00
C1375  C     0.85110   0.69899   0.62556   0.00000  Uiso   1.00
H1376  H     0.93320   0.72985   0.54732   0.00000  Uiso   1.00
H1377  H     0.97427   0.76666   0.61458   0.00000  Uiso   1.00
H1378  H     0.93151   0.76372   0.35368   0.00000  Uiso   1.00
H1379  H     0.86244   0.71481   0.36387   0.00000  Uiso   1.00
H1380  H     0.81598   0.68114   0.62864   0.00000  Uiso   1.00
C1381  C     0.75549   0.78341   0.37058   0.00000  Uiso   1.00
C1382  C     0.75629   0.74121   0.36489   0.00000  Uiso   1.00
C1383  C     0.71946   0.71432   0.38174   0.00000  Uiso   1.00
C1384  C     0.68098   0.72952   0.40415   0.00000  Uiso   1.00
C1385  C     0.67635   0.77152   0.40466   0.00000  Uiso   1.00
C1386  C     0.71048   0.79790   0.38324   0.00000  Uiso   1.00
H1387  H     0.78454   0.72903   0.34664   0.00000  Uiso   1.00
H1388  H     0.72097   0.68188   0.37759   0.00000  Uiso   1.00
H1389  H     0.98649   0.70894   0.41862   0.00000  Uiso   1.00
H1390  H     0.97784   0.78335   0.41931   0.00000  Uiso   1.00
H1391  H     0.70430   0.83014   0.38079   0.00000  Uiso   1.00
C1392  C     0.91972   0.87075   0.62878   0.00000  Uiso   1.00
C1393  C     0.92236   0.90716   0.60302   0.00000  Uiso   1.00
C1394  C     0.96643   0.92066   0.58369   0.00000  Uiso   1.00
C1395  C     0.67584   0.89792   0.59053   0.00000  Uiso   1.00
C1396  C     0.67495   0.86289   0.61858   0.00000  Uiso   1.00
C1397  C     0.96421   0.84996   0.63837   0.00000  Uiso   1.00
H1398  H     0.89054   0.92476   0.59671   0.00000  Uiso   1.00
H1399  H     0.96701   0.94828   0.56272   0.00000  Uiso   1.00
H1400  H     0.70940   0.90740   0.57400   0.00000  Uiso   1.00
H1401  H     0.70815   0.84548   0.62463   0.00000  Uiso   1.00
H1402  H     0.96416   0.82315   0.66003   0.00000  Uiso   1.00
H1403  H     0.76792   0.79438   0.61714   0.00000  Uiso   1.00
H1404  H     0.90160   0.86938   0.38262   0.00000  Uiso   1.00
O1405  O     0.16666   0.10655   0.87291   0.00000  Uiso   1.00
O1406  O     0.16667   0.22678   0.79375   0.00000  Uiso   1.00
O1407  O     0.16666   0.10654   0.79372   0.00000  Uiso   1.00
O1408  O     0.16667   0.22679   0.87294   0.00000  Uiso   1.00
C1409  C     0.16736   0.08762   0.83378   0.00000  Uiso   1.00
C1410  C     0.16359   0.24563   0.83276   0.00000  Uiso   1.00
O1411  O     0.09161   0.16667   0.86379   0.00000  Uiso   1.00
O1412  O     0.24172   0.16666   0.80288   0.00000  Uiso   1.00
O1413  O     0.09161   0.16666   0.78460   0.00000  Uiso   1.00
O1414  O     0.24172   0.16667   0.88207   0.00000  Uiso   1.00
C1415  C     0.06851   0.16787   0.82193   0.00000  Uiso   1.00
C1416  C     0.26481   0.16542   0.84470   0.00000  Uiso   1.00
Cu1417 Cu    0.16667   0.16667   0.88022   0.00000  Uiso   1.00
Cu1418 Cu    0.16667   0.16666   0.78645   0.00000  Uiso   1.00
N1419  N     0.16668   0.16668   0.95069   0.00000  Uiso   1.00
N1420  N     0.16665   0.16666   0.71597   0.00000  Uiso   1.00
C1421  C     0.01410   0.17211   0.81630   0.00000  Uiso   1.00
C1422  C     0.31915   0.16096   0.85003   0.00000  Uiso   1.00
C1423  C     0.15411   0.02251   0.79289   0.00000  Uiso   1.00
C1424  C     0.16652   0.31097   0.87413   0.00000  Uiso   1.00
H1425  H     0.14793   0.03954   0.76116   0.00000  Uiso   1.00
H1426  H     0.16688   0.29462   0.90626   0.00000  Uiso   1.00
C1427  C     0.15014   0.31353   0.79182   0.00000  Uiso   1.00
C1428  C     0.17629   0.01964   0.87483   0.00000  Uiso   1.00
C1429  C     0.15901   0.29036   0.83253   0.00000  Uiso   1.00
C1430  C     0.16679   0.04279   0.83412   0.00000  Uiso   1.00
C1431  C     0.12948   0.14471   0.68709   0.00000  Uiso   1.00
C1432  C     0.20531   0.18677   0.97930   0.00000  Uiso   1.00
C1433  C     0.13012   0.14530   0.97169   0.00000  Uiso   1.00
C1434  C     0.20438   0.18688   0.69484   0.00000  Uiso   1.00
H1435  H     0.33036   0.18454   0.78392   0.00000  Uiso   1.00
H1436  H     0.00285   0.14772   0.88186   0.00000  Uiso   1.00
C1437  C     0.13542   0.29454   0.74783   0.00000  Uiso   1.00
C1438  C     0.17038   0.29532   0.71542   0.00000  Uiso   1.00
C1439  C     0.15805   0.27507   0.67461   0.00000  Uiso   1.00
C1440  C     0.11145   0.25342   0.99937   0.00000  Uiso   1.00
C1441  C     0.07611   0.25283   0.69845   0.00000  Uiso   1.00
C1442  C     0.08806   0.27339   0.73947   0.00000  Uiso   1.00
H1443  H     0.20754   0.31075   0.72226   0.00000  Uiso   1.00
H1444  H     0.18522   0.27611   0.98354   0.00000  Uiso   1.00
H1445  H     0.10387   0.23669   0.96804   0.00000  Uiso   1.00
H1446  H     0.03977   0.23634   0.69255   0.00000  Uiso   1.00
H1447  H     0.06102   0.27237   0.76490   0.00000  Uiso   1.00
C1448  C     0.20379   0.03750   0.91631   0.00000  Uiso   1.00
C1449  C     0.24999   0.06018   0.91302   0.00000  Uiso   1.00
C1450  C     0.27328   0.08109   0.95092   0.00000  Uiso   1.00
C1451  C     0.25116   0.07830   0.99217   0.00000  Uiso   1.00
C1452  C     0.20940   0.05190   0.99713   0.00000  Uiso   1.00
C1453  C     0.18443   0.03232   0.95889   0.00000  Uiso   1.00
H1454  H     0.26653   0.06318   0.88065   0.00000  Uiso   1.00
H1455  H     0.30761   0.09999   0.94792   0.00000  Uiso   1.00
H1456  H     0.26484   0.09705   0.68702   0.00000  Uiso   1.00
H1457  H     0.19577   0.04814   0.69721   0.00000  Uiso   1.00
H1458  H     0.14931   0.01448   0.96198   0.00000  Uiso   1.00
C1459  C     0.08882   0.11674   0.70392   0.00000  Uiso   1.00
C1460  C     0.08962   0.07454   0.69822   0.00000  Uiso   1.00
C1461  C     0.05279   0.04765   0.71508   0.00000  Uiso   1.00
C1462  C     0.01431   0.06286   0.73748   0.00000  Uiso   1.00
C1463  C     0.00969   0.10486   0.73799   0.00000  Uiso   1.00
C1464  C     0.04381   0.13123   0.71658   0.00000  Uiso   1.00
H1465  H     0.11787   0.06236   0.67997   0.00000  Uiso   1.00
H1466  H     0.05431   0.01522   0.71092   0.00000  Uiso   1.00
H1467  H     0.31982   0.04227   0.75196   0.00000  Uiso   1.00
H1468  H     0.31118   0.11668   0.75264   0.00000  Uiso   1.00
H1469  H     0.03764   0.16347   0.71412   0.00000  Uiso   1.00
C1470  C     0.25305   0.20408   0.96212   0.00000  Uiso   1.00
C1471  C     0.25569   0.24049   0.93635   0.00000  Uiso   1.00
C1472  C     0.29977   0.25399   0.91702   0.00000  Uiso   1.00
C1473  C     0.00918   0.23125   0.92386   0.00000  Uiso   1.00
C1474  C     0.00828   0.19623   0.95192   0.00000  Uiso   1.00
C1475  C     0.29754   0.18330   0.97170   0.00000  Uiso   1.00
H1476  H     0.22387   0.25809   0.93005   0.00000  Uiso   1.00
H1477  H     0.30034   0.28162   0.89605   0.00000  Uiso   1.00
H1478  H     0.04274   0.24073   0.90734   0.00000  Uiso   1.00
H1479  H     0.04149   0.17882   0.95797   0.00000  Uiso   1.00
H1480  H     0.29750   0.15648   0.99337   0.00000  Uiso   1.00
H1481  H     0.10126   0.12771   0.95047   0.00000  Uiso   1.00
H1482  H     0.23493   0.20271   0.71595   0.00000  Uiso   1.00
O1483  O     0.50000   0.10655   0.87291   0.00000  Uiso   1.00
O1484  O     0.50000   0.22678   0.79375   0.00000  Uiso   1.00
O1485  O     0.50000   0.10654   0.79372   0.00000  Uiso   1.00
O1486  O     0.50000   0.22679   0.87294   0.00000  Uiso   1.00
C1487  C     0.50070   0.08762   0.83378   0.00000  Uiso   1.00
C1488  C     0.49692   0.24563   0.83276   0.00000  Uiso   1.00
O1489  O     0.42495   0.16667   0.86379   0.00000  Uiso   1.00
O1490  O     0.57505   0.16666   0.80288   0.00000  Uiso   1.00
O1491  O     0.42494   0.16666   0.78460   0.00000  Uiso   1.00
O1492  O     0.57506   0.16667   0.88207   0.00000  Uiso   1.00
C1493  C     0.40184   0.16787   0.82193   0.00000  Uiso   1.00
C1494  C     0.59814   0.16542   0.84470   0.00000  Uiso   1.00
Cu1495 Cu    0.50000   0.16667   0.88022   0.00000  Uiso   1.00
Cu1496 Cu    0.50000   0.16666   0.78645   0.00000  Uiso   1.00
N1497  N     0.50001   0.16668   0.95069   0.00000  Uiso   1.00
N1498  N     0.49999   0.16666   0.71597   0.00000  Uiso   1.00
C1499  C     0.34743   0.17211   0.81630   0.00000  Uiso   1.00
C1500  C     0.65249   0.16096   0.85003   0.00000  Uiso   1.00
C1501  C     0.48745   0.02251   0.79289   0.00000  Uiso   1.00
C1502  C     0.49985   0.31097   0.87413   0.00000  Uiso   1.00
H1503  H     0.48127   0.03954   0.76116   0.00000  Uiso   1.00
H1504  H     0.50022   0.29462   0.90626   0.00000  Uiso   1.00
C1505  C     0.48347   0.31353   0.79182   0.00000  Uiso   1.00
C1506  C     0.50962   0.01964   0.87483   0.00000  Uiso   1.00
C1507  C     0.49234   0.29036   0.83253   0.00000  Uiso   1.00
C1508  C     0.50012   0.04279   0.83412   0.00000  Uiso   1.00
C1509  C     0.46281   0.14471   0.68709   0.00000  Uiso   1.00
C1510  C     0.53864   0.18677   0.97930   0.00000  Uiso   1.00
C1511  C     0.46345   0.14530   0.97169   0.00000  Uiso   1.00
C1512  C     0.53771   0.18688   0.69484   0.00000  Uiso   1.00
H1513  H     0.66369   0.18454   0.78392   0.00000  Uiso   1.00
H1514  H     0.33618   0.14772   0.88186   0.00000  Uiso   1.00
C1515  C     0.46876   0.29454   0.74783   0.00000  Uiso   1.00
C1516  C     0.50372   0.29532   0.71542   0.00000  Uiso   1.00
C1517  C     0.49138   0.27507   0.67461   0.00000  Uiso   1.00
C1518  C     0.44478   0.25342   0.99937   0.00000  Uiso   1.00
C1519  C     0.40944   0.25283   0.69845   0.00000  Uiso   1.00
C1520  C     0.42139   0.27339   0.73947   0.00000  Uiso   1.00
H1521  H     0.54088   0.31075   0.72226   0.00000  Uiso   1.00
H1522  H     0.51855   0.27611   0.98354   0.00000  Uiso   1.00
H1523  H     0.43720   0.23669   0.96804   0.00000  Uiso   1.00
H1524  H     0.37310   0.23634   0.69255   0.00000  Uiso   1.00
H1525  H     0.39436   0.27237   0.76490   0.00000  Uiso   1.00
C1526  C     0.53712   0.03750   0.91631   0.00000  Uiso   1.00
C1527  C     0.58332   0.06018   0.91302   0.00000  Uiso   1.00
C1528  C     0.60662   0.08109   0.95092   0.00000  Uiso   1.00
C1529  C     0.58449   0.07830   0.99217   0.00000  Uiso   1.00
C1530  C     0.54273   0.05190   0.99713   0.00000  Uiso   1.00
C1531  C     0.51776   0.03232   0.95889   0.00000  Uiso   1.00
H1532  H     0.59986   0.06318   0.88065   0.00000  Uiso   1.00
H1533  H     0.64094   0.09999   0.94792   0.00000  Uiso   1.00
H1534  H     0.59818   0.09705   0.68702   0.00000  Uiso   1.00
H1535  H     0.52910   0.04814   0.69721   0.00000  Uiso   1.00
H1536  H     0.48264   0.01448   0.96198   0.00000  Uiso   1.00
C1537  C     0.42216   0.11674   0.70392   0.00000  Uiso   1.00
C1538  C     0.42295   0.07454   0.69822   0.00000  Uiso   1.00
C1539  C     0.38612   0.04765   0.71508   0.00000  Uiso   1.00
C1540  C     0.34764   0.06286   0.73748   0.00000  Uiso   1.00
C1541  C     0.34302   0.10486   0.73799   0.00000  Uiso   1.00
C1542  C     0.37715   0.13123   0.71658   0.00000  Uiso   1.00
H1543  H     0.45121   0.06236   0.67997   0.00000  Uiso   1.00
H1544  H     0.38764   0.01522   0.71092   0.00000  Uiso   1.00
H1545  H     0.65315   0.04227   0.75196   0.00000  Uiso   1.00
H1546  H     0.64451   0.11668   0.75264   0.00000  Uiso   1.00
H1547  H     0.37097   0.16347   0.71412   0.00000  Uiso   1.00
C1548  C     0.58638   0.20408   0.96212   0.00000  Uiso   1.00
C1549  C     0.58902   0.24049   0.93635   0.00000  Uiso   1.00
C1550  C     0.63310   0.25399   0.91702   0.00000  Uiso   1.00
C1551  C     0.34251   0.23125   0.92386   0.00000  Uiso   1.00
C1552  C     0.34162   0.19623   0.95192   0.00000  Uiso   1.00
C1553  C     0.63087   0.18330   0.97170   0.00000  Uiso   1.00
H1554  H     0.55721   0.25809   0.93005   0.00000  Uiso   1.00
H1555  H     0.63367   0.28162   0.89605   0.00000  Uiso   1.00
H1556  H     0.37607   0.24073   0.90734   0.00000  Uiso   1.00
H1557  H     0.37482   0.17882   0.95797   0.00000  Uiso   1.00
H1558  H     0.63083   0.15648   0.99337   0.00000  Uiso   1.00
H1559  H     0.43459   0.12771   0.95047   0.00000  Uiso   1.00
H1560  H     0.56826   0.20271   0.71595   0.00000  Uiso   1.00
O1561  O     0.83333   0.10655   0.87291   0.00000  Uiso   1.00
O1562  O     0.83334   0.22678   0.79375   0.00000  Uiso   1.00
O1563  O     0.83333   0.10654   0.79372   0.00000  Uiso   1.00
O1564  O     0.83334   0.22679   0.87294   0.00000  Uiso   1.00
C1565  C     0.83403   0.08762   0.83378   0.00000  Uiso   1.00
C1566  C     0.83026   0.24563   0.83276   0.00000  Uiso   1.00
O1567  O     0.75828   0.16667   0.86379   0.00000  Uiso   1.00
O1568  O     0.90839   0.16666   0.80288   0.00000  Uiso   1.00
O1569  O     0.75828   0.16666   0.78460   0.00000  Uiso   1.00
O1570  O     0.90839   0.16667   0.88207   0.00000  Uiso   1.00
C1571  C     0.73518   0.16787   0.82193   0.00000  Uiso   1.00
C1572  C     0.93148   0.16542   0.84470   0.00000  Uiso   1.00
Cu1573 Cu    0.83333   0.16667   0.88022   0.00000  Uiso   1.00
Cu1574 Cu    0.83333   0.16666   0.78645   0.00000  Uiso   1.00
N1575  N     0.83335   0.16668   0.95069   0.00000  Uiso   1.00
N1576  N     0.83332   0.16666   0.71597   0.00000  Uiso   1.00
C1577  C     0.68076   0.17211   0.81630   0.00000  Uiso   1.00
C1578  C     0.98582   0.16096   0.85003   0.00000  Uiso   1.00
C1579  C     0.82078   0.02251   0.79289   0.00000  Uiso   1.00
C1580  C     0.83319   0.31097   0.87413   0.00000  Uiso   1.00
H1581  H     0.81460   0.03954   0.76116   0.00000  Uiso   1.00
H1582  H     0.83355   0.29462   0.90626   0.00000  Uiso   1.00
C1583  C     0.81681   0.31353   0.79182   0.00000  Uiso   1.00
C1584  C     0.84296   0.01964   0.87483   0.00000  Uiso   1.00
C1585  C     0.82567   0.29036   0.83253   0.00000  Uiso   1.00
C1586  C     0.83346   0.04279   0.83412   0.00000  Uiso   1.00
C1587  C     0.79615   0.14471   0.68709   0.00000  Uiso   1.00
C1588  C     0.87198   0.18677   0.97930   0.00000  Uiso   1.00
C1589  C     0.79678   0.14530   0.97169   0.00000  Uiso   1.00
C1590  C     0.87104   0.18688   0.69484   0.00000  Uiso   1.00
H1591  H     0.99703   0.18454   0.78392   0.00000  Uiso   1.00
H1592  H     0.66951   0.14772   0.88186   0.00000  Uiso   1.00
C1593  C     0.80209   0.29454   0.74783   0.00000  Uiso   1.00
C1594  C     0.83705   0.29532   0.71542   0.00000  Uiso   1.00
C1595  C     0.82472   0.27507   0.67461   0.00000  Uiso   1.00
C1596  C     0.77812   0.25342   0.99937   0.00000  Uiso   1.00
C1597  C     0.74277   0.25283   0.69845   0.00000  Uiso   1.00
C1598  C     0.75473   0.27339   0.73947   0.00000  Uiso   1.00
H1599  H     0.87421   0.31075   0.72226   0.00000  Uiso   1.00
H1600  H     0.85188   0.27611   0.98354   0.00000  Uiso   1.00
H1601  H     0.77054   0.23669   0.96804   0.00000  Uiso   1.00
H1602  H     0.70644   0.23634   0.69255   0.00000  Uiso   1.00
H1603  H     0.72769   0.27237   0.76490   0.00000  Uiso   1.00
C1604  C     0.87046   0.03750   0.91631   0.00000  Uiso   1.00
C1605  C     0.91665   0.06018   0.91302   0.00000  Uiso   1.00
C1606  C     0.93995   0.08109   0.95092   0.00000  Uiso   1.00
C1607  C     0.91783   0.07830   0.99217   0.00000  Uiso   1.00
C1608  C     0.87606   0.05190   0.99713   0.00000  Uiso   1.00
C1609  C     0.85110   0.03232   0.95889   0.00000  Uiso   1.00
H1610  H     0.93320   0.06318   0.88065   0.00000  Uiso   1.00
H1611  H     0.97427   0.09999   0.94792   0.00000  Uiso   1.00
H1612  H     0.93151   0.09705   0.68702   0.00000  Uiso   1.00
H1613  H     0.86244   0.04814   0.69721   0.00000  Uiso   1.00
H1614  H     0.81598   0.01448   0.96198   0.00000  Uiso   1.00
C1615  C     0.75549   0.11674   0.70392   0.00000  Uiso   1.00
C1616  C     0.75629   0.07454   0.69822   0.00000  Uiso   1.00
C1617  C     0.71946   0.04765   0.71508   0.00000  Uiso   1.00
C1618  C     0.68098   0.06286   0.73748   0.00000  Uiso   1.00
C1619  C     0.67635   0.10486   0.73799   0.00000  Uiso   1.00
C1620  C     0.71048   0.13123   0.71658   0.00000  Uiso   1.00
H1621  H     0.78454   0.06236   0.67997   0.00000  Uiso   1.00
H1622  H     0.72097   0.01522   0.71092   0.00000  Uiso   1.00
H1623  H     0.98649   0.04227   0.75196   0.00000  Uiso   1.00
H1624  H     0.97784   0.11668   0.75264   0.00000  Uiso   1.00
H1625  H     0.70430   0.16347   0.71412   0.00000  Uiso   1.00
C1626  C     0.91972   0.20408   0.96212   0.00000  Uiso   1.00
C1627  C     0.92236   0.24049   0.93635   0.00000  Uiso   1.00
C1628  C     0.96643   0.25399   0.91702   0.00000  Uiso   1.00
C1629  C     0.67584   0.23125   0.92386   0.00000  Uiso   1.00
C1630  C     0.67495   0.19623   0.95192   0.00000  Uiso   1.00
C1631  C     0.96421   0.18330   0.97170   0.00000  Uiso   1.00
H1632  H     0.89054   0.25809   0.93005   0.00000  Uiso   1.00
H1633  H     0.96701   0.28162   0.89605   0.00000  Uiso   1.00
H1634  H     0.70940   0.24073   0.90734   0.00000  Uiso   1.00
H1635  H     0.70815   0.17882   0.95797   0.00000  Uiso   1.00
H1636  H     0.96416   0.15648   0.99337   0.00000  Uiso   1.00
H1637  H     0.76792   0.12771   0.95047   0.00000  Uiso   1.00
H1638  H     0.90160   0.20271   0.71595   0.00000  Uiso   1.00
O1639  O     0.16666   0.43989   0.87291   0.00000  Uiso   1.00
O1640  O     0.16667   0.56011   0.79375   0.00000  Uiso   1.00
O1641  O     0.16666   0.43988   0.79372   0.00000  Uiso   1.00
O1642  O     0.16667   0.56012   0.87294   0.00000  Uiso   1.00
C1643  C     0.16736   0.42095   0.83378   0.00000  Uiso   1.00
C1644  C     0.16359   0.57896   0.83276   0.00000  Uiso   1.00
O1645  O     0.09161   0.50000   0.86379   0.00000  Uiso   1.00
O1646  O     0.24172   0.50000   0.80288   0.00000  Uiso   1.00
O1647  O     0.09161   0.49999   0.78460   0.00000  Uiso   1.00
O1648  O     0.24172   0.50001   0.88207   0.00000  Uiso   1.00
C1649  C     0.06851   0.50120   0.82193   0.00000  Uiso   1.00
C1650  C     0.26481   0.49875   0.84470   0.00000  Uiso   1.00
Cu1651 Cu    0.16667   0.50001   0.88022   0.00000  Uiso   1.00
Cu1652 Cu    0.16667   0.49999   0.78645   0.00000  Uiso   1.00
N1653  N     0.16668   0.50001   0.95069   0.00000  Uiso   1.00
N1654  N     0.16665   0.49999   0.71597   0.00000  Uiso   1.00
C1655  C     0.01410   0.50545   0.81630   0.00000  Uiso   1.00
C1656  C     0.31915   0.49430   0.85003   0.00000  Uiso   1.00
C1657  C     0.15411   0.35584   0.79289   0.00000  Uiso   1.00
C1658  C     0.16652   0.64430   0.87413   0.00000  Uiso   1.00
H1659  H     0.14793   0.37287   0.76116   0.00000  Uiso   1.00
H1660  H     0.16688   0.62796   0.90626   0.00000  Uiso   1.00
C1661  C     0.15014   0.64687   0.79182   0.00000  Uiso   1.00
C1662  C     0.17629   0.35297   0.87483   0.00000  Uiso   1.00
C1663  C     0.15901   0.62369   0.83253   0.00000  Uiso   1.00
C1664  C     0.16679   0.37612   0.83412   0.00000  Uiso   1.00
C1665  C     0.12948   0.47804   0.68709   0.00000  Uiso   1.00
C1666  C     0.20531   0.52010   0.97930   0.00000  Uiso   1.00
C1667  C     0.13012   0.47863   0.97169   0.00000  Uiso   1.00
C1668  C     0.20438   0.52021   0.69484   0.00000  Uiso   1.00
H1669  H     0.33036   0.51787   0.78392   0.00000  Uiso   1.00
H1670  H     0.00285   0.48105   0.88186   0.00000  Uiso   1.00
C1671  C     0.13542   0.62788   0.74783   0.00000  Uiso   1.00
C1672  C     0.17038   0.62866   0.71542   0.00000  Uiso   1.00
C1673  C     0.15805   0.60840   0.67461   0.00000  Uiso   1.00
C1674  C     0.11145   0.58675   0.99937   0.00000  Uiso   1.00
C1675  C     0.07611   0.58616   0.69845   0.00000  Uiso   1.00
C1676  C     0.08806   0.60673   0.73947   0.00000  Uiso   1.00
H1677  H     0.20754   0.64408   0.72226   0.00000  Uiso   1.00
H1678  H     0.18522   0.60944   0.98354   0.00000  Uiso   1.00
H1679  H     0.10387   0.57003   0.96804   0.00000  Uiso   1.00
H1680  H     0.03977   0.56968   0.69255   0.00000  Uiso   1.00
H1681  H     0.06102   0.60570   0.76490   0.00000  Uiso   1.00
C1682  C     0.20379   0.37083   0.91631   0.00000  Uiso   1.00
C1683  C     0.24999   0.39352   0.91302   0.00000  Uiso   1.00
C1684  C     0.27328   0.41442   0.95092   0.00000  Uiso   1.00
C1685  C     0.25116   0.41163   0.99217   0.00000  Uiso   1.00
C1686  C     0.20940   0.38523   0.99713   0.00000  Uiso   1.00
C1687  C     0.18443   0.36566   0.95889   0.00000  Uiso   1.00
H1688  H     0.26653   0.39651   0.88065   0.00000  Uiso   1.00
H1689  H     0.30761   0.43332   0.94792   0.00000  Uiso   1.00
H1690  H     0.26484   0.43038   0.68702   0.00000  Uiso   1.00
H1691  H     0.19577   0.38147   0.69721   0.00000  Uiso   1.00
H1692  H     0.14931   0.34781   0.96198   0.00000  Uiso   1.00
C1693  C     0.08882   0.45008   0.70392   0.00000  Uiso   1.00
C1694  C     0.08962   0.40788   0.69822   0.00000  Uiso   1.00
C1695  C     0.05279   0.38099   0.71508   0.00000  Uiso   1.00
C1696  C     0.01431   0.39619   0.73748   0.00000  Uiso   1.00
C1697  C     0.00969   0.43819   0.73799   0.00000  Uiso   1.00
C1698  C     0.04381   0.46456   0.71658   0.00000  Uiso   1.00
H1699  H     0.11787   0.39570   0.67997   0.00000  Uiso   1.00
H1700  H     0.05431   0.34855   0.71092   0.00000  Uiso   1.00
H1701  H     0.31982   0.37560   0.75196   0.00000  Uiso   1.00
H1702  H     0.31118   0.45001   0.75264   0.00000  Uiso   1.00
H1703  H     0.03764   0.49680   0.71412   0.00000  Uiso   1.00
C1704  C     0.25305   0.53741   0.96212   0.00000  Uiso   1.00
C1705  C     0.25569   0.57383   0.93635   0.00000  Uiso   1.00
C1706  C     0.29977   0.58733   0.91702   0.00000  Uiso   1.00
C1707  C     0.00918   0.56458   0.92386   0.00000  Uiso   1.00
C1708  C     0.00828   0.52956   0.95192   0.00000  Uiso   1.00
C1709  C     0.29754   0.51663   0.97170   0.00000  Uiso   1.00
H1710  H     0.22387   0.59143   0.93005   0.00000  Uiso   1.00
H1711  H     0.30034   0.61495   0.89605   0.00000  Uiso   1.00
H1712  H     0.04274   0.57407   0.90734   0.00000  Uiso   1.00
H1713  H     0.04149   0.51215   0.95797   0.00000  Uiso   1.00
H1714  H     0.29750   0.48981   0.99337   0.00000  Uiso   1.00
H1715  H     0.10126   0.46104   0.95047   0.00000  Uiso   1.00
H1716  H     0.23493   0.53605   0.71595   0.00000  Uiso   1.00
O1717  O     0.50000   0.43989   0.87291   0.00000  Uiso   1.00
O1718  O     0.50000   0.56011   0.79375   0.00000  Uiso   1.00
O1719  O     0.50000   0.43988   0.79372   0.00000  Uiso   1.00
O1720  O     0.50000   0.56012   0.87294   0.00000  Uiso   1.00
C1721  C     0.50070   0.42095   0.83378   0.00000  Uiso   1.00
C1722  C     0.49692   0.57896   0.83276   0.00000  Uiso   1.00
O1723  O     0.42495   0.50000   0.86379   0.00000  Uiso   1.00
O1724  O     0.57505   0.50000   0.80288   0.00000  Uiso   1.00
O1725  O     0.42494   0.49999   0.78460   0.00000  Uiso   1.00
O1726  O     0.57506   0.50001   0.88207   0.00000  Uiso   1.00
C1727  C     0.40184   0.50120   0.82193   0.00000  Uiso   1.00
C1728  C     0.59814   0.49875   0.84470   0.00000  Uiso   1.00
Cu1729 Cu    0.50000   0.50001   0.88022   0.00000  Uiso   1.00
Cu1730 Cu    0.50000   0.49999   0.78645   0.00000  Uiso   1.00
N1731  N     0.50001   0.50001   0.95069   0.00000  Uiso   1.00
N1732  N     0.49999   0.49999   0.71597   0.00000  Uiso   1.00
C1733  C     0.34743   0.50545   0.81630   0.00000  Uiso   1.00
C1734  C     0.65249   0.49430   0.85003   0.00000  Uiso   1.00
C1735  C     0.48745   0.35584   0.79289   0.00000  Uiso   1.00
C1736  C     0.49985   0.64430   0.87413   0.00000  Uiso   1.00
H1737  H     0.48127   0.37287   0.76116   0.00000  Uiso   1.00
H1738  H     0.50022   0.62796   0.90626   0.00000  Uiso   1.00
C1739  C     0.48347   0.64687   0.79182   0.00000  Uiso   1.00
C1740  C     0.50962   0.35297   0.87483   0.00000  Uiso   1.00
C1741  C     0.49234   0.62369   0.83253   0.00000  Uiso   1.00
C1742  C     0.50012   0.37612   0.83412   0.00000  Uiso   1.00
C1743  C     0.46281   0.47804   0.68709   0.00000  Uiso   1.00
C1744  C     0.53864   0.52010   0.97930   0.00000  Uiso   1.00
C1745  C     0.46345   0.47863   0.97169   0.00000  Uiso   1.00
C1746  C     0.53771   0.52021   0.69484   0.00000  Uiso   1.00
H1747  H     0.66369   0.51787   0.78392   0.00000  Uiso   1.00
H1748  H     0.33618   0.48105   0.88186   0.00000  Uiso   1.00
C1749  C     0.46876   0.62788   0.74783   0.00000  Uiso   1.00
C1750  C     0.50372   0.62866   0.71542   0.00000  Uiso   1.00
C1751  C     0.49138   0.60840   0.67461   0.00000  Uiso   1.00
C1752  C     0.44478   0.58675   0.99937   0.00000  Uiso   1.00
C1753  C     0.40944   0.58616   0.69845   0.00000  Uiso   1.00
C1754  C     0.42139   0.60673   0.73947   0.00000  Uiso   1.00
H1755  H     0.54088   0.64408   0.72226   0.00000  Uiso   1.00
H1756  H     0.51855   0.60944   0.98354   0.00000  Uiso   1.00
H1757  H     0.43720   0.57003   0.96804   0.00000  Uiso   1.00
H1758  H     0.37310   0.56968   0.69255   0.00000  Uiso   1.00
H1759  H     0.39436   0.60570   0.76490   0.00000  Uiso   1.00
C1760  C     0.53712   0.37083   0.91631   0.00000  Uiso   1.00
C1761  C     0.58332   0.39352   0.91302   0.00000  Uiso   1.00
C1762  C     0.60662   0.41442   0.95092   0.00000  Uiso   1.00
C1763  C     0.58449   0.41163   0.99217   0.00000  Uiso   1.00
C1764  C     0.54273   0.38523   0.99713   0.00000  Uiso   1.00
C1765  C     0.51776   0.36566   0.95889   0.00000  Uiso   1.00
H1766  H     0.59986   0.39651   0.88065   0.00000  Uiso   1.00
H1767  H     0.64094   0.43332   0.94792   0.00000  Uiso   1.00
H1768  H     0.59818   0.43038   0.68702   0.00000  Uiso   1.00
H1769  H     0.52910   0.38147   0.69721   0.00000  Uiso   1.00
H1770  H     0.48264   0.34781   0.96198   0.00000  Uiso   1.00
C1771  C     0.42216   0.45008   0.70392   0.00000  Uiso   1.00
C1772  C     0.42295   0.40788   0.69822   0.00000  Uiso   1.00
C1773  C     0.38612   0.38099   0.71508   0.00000  Uiso   1.00
C1774  C     0.34764   0.39619   0.73748   0.00000  Uiso   1.00
C1775  C     0.34302   0.43819   0.73799   0.00000  Uiso   1.00
C1776  C     0.37715   0.46456   0.71658   0.00000  Uiso   1.00
H1777  H     0.45121   0.39570   0.67997   0.00000  Uiso   1.00
H1778  H     0.38764   0.34855   0.71092   0.00000  Uiso   1.00
H1779  H     0.65315   0.37560   0.75196   0.00000  Uiso   1.00
H1780  H     0.64451   0.45001   0.75264   0.00000  Uiso   1.00
H1781  H     0.37097   0.49680   0.71412   0.00000  Uiso   1.00
C1782  C     0.58638   0.53741   0.96212   0.00000  Uiso   1.00
C1783  C     0.58902   0.57383   0.93635   0.00000  Uiso   1.00
C1784  C     0.63310   0.58733   0.91702   0.00000  Uiso   1.00
C1785  C     0.34251   0.56458   0.92386   0.00000  Uiso   1.00
C1786  C     0.34162   0.52956   0.95192   0.00000  Uiso   1.00
C1787  C     0.63087   0.51663   0.97170   0.00000  Uiso   1.00
H1788  H     0.55721   0.59143   0.93005   0.00000  Uiso   1.00
H1789  H     0.63367   0.61495   0.89605   0.00000  Uiso   1.00
H1790  H     0.37607   0.57407   0.90734   0.00000  Uiso   1.00
H1791  H     0.37482   0.51215   0.95797   0.00000  Uiso   1.00
H1792  H     0.63083   0.48981   0.99337   0.00000  Uiso   1.00
H1793  H     0.43459   0.46104   0.95047   0.00000  Uiso   1.00
H1794  H     0.56826   0.53605   0.71595   0.00000  Uiso   1.00
O1795  O     0.83333   0.43989   0.87291   0.00000  Uiso   1.00
O1796  O     0.83334   0.56011   0.79375   0.00000  Uiso   1.00
O1797  O     0.83333   0.43988   0.79372   0.00000  Uiso   1.00
O1798  O     0.83334   0.56012   0.87294   0.00000  Uiso   1.00
C1799  C     0.83403   0.42095   0.83378   0.00000  Uiso   1.00
C1800  C     0.83026   0.57896   0.83276   0.00000  Uiso   1.00
O1801  O     0.75828   0.50000   0.86379   0.00000  Uiso   1.00
O1802  O     0.90839   0.50000   0.80288   0.00000  Uiso   1.00
O1803  O     0.75828   0.49999   0.78460   0.00000  Uiso   1.00
O1804  O     0.90839   0.50001   0.88207   0.00000  Uiso   1.00
C1805  C     0.73518   0.50120   0.82193   0.00000  Uiso   1.00
C1806  C     0.93148   0.49875   0.84470   0.00000  Uiso   1.00
Cu1807 Cu    0.83333   0.50001   0.88022   0.00000  Uiso   1.00
Cu1808 Cu    0.83333   0.49999   0.78645   0.00000  Uiso   1.00
N1809  N     0.83335   0.50001   0.95069   0.00000  Uiso   1.00
N1810  N     0.83332   0.49999   0.71597   0.00000  Uiso   1.00
C1811  C     0.68076   0.50545   0.81630   0.00000  Uiso   1.00
C1812  C     0.98582   0.49430   0.85003   0.00000  Uiso   1.00
C1813  C     0.82078   0.35584   0.79289   0.00000  Uiso   1.00
C1814  C     0.83319   0.64430   0.87413   0.00000  Uiso   1.00
H1815  H     0.81460   0.37287   0.76116   0.00000  Uiso   1.00
H1816  H     0.83355   0.62796   0.90626   0.00000  Uiso   1.00
C1817  C     0.81681   0.64687   0.79182   0.00000  Uiso   1.00
C1818  C     0.84296   0.35297   0.87483   0.00000  Uiso   1.00
C1819  C     0.82567   0.62369   0.83253   0.00000  Uiso   1.00
C1820  C     0.83346   0.37612   0.83412   0.00000  Uiso   1.00
C1821  C     0.79615   0.47804   0.68709   0.00000  Uiso   1.00
C1822  C     0.87198   0.52010   0.97930   0.00000  Uiso   1.00
C1823  C     0.79678   0.47863   0.97169   0.00000  Uiso   1.00
C1824  C     0.87104   0.52021   0.69484   0.00000  Uiso   1.00
H1825  H     0.99703   0.51787   0.78392   0.00000  Uiso   1.00
H1826  H     0.66951   0.48105   0.88186   0.00000  Uiso   1.00
C1827  C     0.80209   0.62788   0.74783   0.00000  Uiso   1.00
C1828  C     0.83705   0.62866   0.71542   0.00000  Uiso   1.00
C1829  C     0.82472   0.60840   0.67461   0.00000  Uiso   1.00
C1830  C     0.77812   0.58675   0.99937   0.00000  Uiso   1.00
C1831  C     0.74277   0.58616   0.69845   0.00000  Uiso   1.00
C1832  C     0.75473   0.60673   0.73947   0.00000  Uiso   1.00
H1833  H     0.87421   0.64408   0.72226   0.00000  Uiso   1.00
H1834  H     0.85188   0.60944   0.98354   0.00000  Uiso   1.00
H1835  H     0.77054   0.57003   0.96804   0.00000  Uiso   1.00
H1836  H     0.70644   0.56968   0.69255   0.00000  Uiso   1.00
H1837  H     0.72769   0.60570   0.76490   0.00000  Uiso   1.00
C1838  C     0.87046   0.37083   0.91631   0.00000  Uiso   1.00
C1839  C     0.91665   0.39352   0.91302   0.00000  Uiso   1.00
C1840  C     0.93995   0.41442   0.95092   0.00000  Uiso   1.00
C1841  C     0.91783   0.41163   0.99217   0.00000  Uiso   1.00
C1842  C     0.87606   0.38523   0.99713   0.00000  Uiso   1.00
C1843  C     0.85110   0.36566   0.95889   0.00000  Uiso   1.00
H1844  H     0.93320   0.39651   0.88065   0.00000  Uiso   1.00
H1845  H     0.97427   0.43332   0.94792   0.00000  Uiso   1.00
H1846  H     0.93151   0.43038   0.68702   0.00000  Uiso   1.00
H1847  H     0.86244   0.38147   0.69721   0.00000  Uiso   1.00
H1848  H     0.81598   0.34781   0.96198   0.00000  Uiso   1.00
C1849  C     0.75549   0.45008   0.70392   0.00000  Uiso   1.00
C1850  C     0.75629   0.40788   0.69822   0.00000  Uiso   1.00
C1851  C     0.71946   0.38099   0.71508   0.00000  Uiso   1.00
C1852  C     0.68098   0.39619   0.73748   0.00000  Uiso   1.00
C1853  C     0.67635   0.43819   0.73799   0.00000  Uiso   1.00
C1854  C     0.71048   0.46456   0.71658   0.00000  Uiso   1.00
H1855  H     0.78454   0.39570   0.67997   0.00000  Uiso   1.00
H1856  H     0.72097   0.34855   0.71092   0.00000  Uiso   1.00
H1857  H     0.98649   0.37560   0.75196   0.00000  Uiso   1.00
H1858  H     0.97784   0.45001   0.75264   0.00000  Uiso   1.00
H1859  H     0.70430   0.49680   0.71412   0.00000  Uiso   1.00
C1860  C     0.91972   0.53741   0.96212   0.00000  Uiso   1.00
C1861  C     0.92236   0.57383   0.93635   0.00000  Uiso   1.00
C1862  C     0.96643   0.58733   0.91702   0.00000  Uiso   1.00
C1863  C     0.67584   0.56458   0.92386   0.00000  Uiso   1.00
C1864  C     0.67495   0.52956   0.95192   0.00000  Uiso   1.00
C1865  C     0.96421   0.51663   0.97170   0.00000  Uiso   1.00
H1866  H     0.89054   0.59143   0.93005   0.00000  Uiso   1.00
H1867  H     0.96701   0.61495   0.89605   0.00000  Uiso   1.00
H1868  H     0.70940   0.57407   0.90734   0.00000  Uiso   1.00
H1869  H     0.70815   0.51215   0.95797   0.00000  Uiso   1.00
H1870  H     0.96416   0.48981   0.99337   0.00000  Uiso   1.00
H1871  H     0.76792   0.46104   0.95047   0.00000  Uiso   1.00
H1872  H     0.90160   0.53605   0.71595   0.00000  Uiso   1.00
O1873  O     0.16666   0.77322   0.87291   0.00000  Uiso   1.00
O1874  O     0.16667   0.89345   0.79375   0.00000  Uiso   1.00
O1875  O     0.16666   0.77321   0.79372   0.00000  Uiso   1.00
O1876  O     0.16667   0.89346   0.87294   0.00000  Uiso   1.00
C1877  C     0.16736   0.75428   0.83378   0.00000  Uiso   1.00
C1878  C     0.16359   0.91230   0.83276   0.00000  Uiso   1.00
O1879  O     0.09161   0.83334   0.86379   0.00000  Uiso   1.00
O1880  O     0.24172   0.83333   0.80288   0.00000  Uiso   1.00
O1881  O     0.09161   0.83333   0.78460   0.00000  Uiso   1.00
O1882  O     0.24172   0.83334   0.88207   0.00000  Uiso   1.00
C1883  C     0.06851   0.83453   0.82193   0.00000  Uiso   1.00
C1884  C     0.26481   0.83209   0.84470   0.00000  Uiso   1.00
Cu1885 Cu    0.16667   0.83334   0.88022   0.00000  Uiso   1.00
Cu1886 Cu    0.16667   0.83333   0.78645   0.00000  Uiso   1.00
N1887  N     0.16668   0.83334   0.95069   0.00000  Uiso   1.00
N1888  N     0.16665   0.83332   0.71597   0.00000  Uiso   1.00
C1889  C     0.01410   0.83878   0.81630   0.00000  Uiso   1.00
C1890  C     0.31915   0.82763   0.85003   0.00000  Uiso   1.00
C1891  C     0.15411   0.68918   0.79289   0.00000  Uiso   1.00
C1892  C     0.16652   0.97763   0.87413   0.00000  Uiso   1.00
H1893  H     0.14793   0.70620   0.76116   0.00000  Uiso   1.00
H1894  H     0.16688   0.96129   0.90626   0.00000  Uiso   1.00
C1895  C     0.15014   0.98020   0.79182   0.00000  Uiso   1.00
C1896  C     0.17629   0.68630   0.87483   0.00000  Uiso   1.00
C1897  C     0.15901   0.95703   0.83253   0.00000  Uiso   1.00
C1898  C     0.16679   0.70945   0.83412   0.00000  Uiso   1.00
C1899  C     0.12948   0.81137   0.68709   0.00000  Uiso   1.00
C1900  C     0.20531   0.85344   0.97930   0.00000  Uiso   1.00
C1901  C     0.13012   0.81196   0.97169   0.00000  Uiso   1.00
C1902  C     0.20438   0.85354   0.69484   0.00000  Uiso   1.00
H1903  H     0.33036   0.85120   0.78392   0.00000  Uiso   1.00
H1904  H     0.00285   0.81438   0.88186   0.00000  Uiso   1.00
C1905  C     0.13542   0.96121   0.74783   0.00000  Uiso   1.00
C1906  C     0.17038   0.96199   0.71542   0.00000  Uiso   1.00
C1907  C     0.15805   0.94174   0.67461   0.00000  Uiso   1.00
C1908  C     0.11145   0.92009   0.99937   0.00000  Uiso   1.00
C1909  C     0.07611   0.91949   0.69845   0.00000  Uiso   1.00
C1910  C     0.08806   0.94006   0.73947   0.00000  Uiso   1.00
H1911  H     0.20754   0.97741   0.72226   0.00000  Uiso   1.00
H1912  H     0.18522   0.94277   0.98354   0.00000  Uiso   1.00
H1913  H     0.10387   0.90336   0.96804   0.00000  Uiso   1.00
H1914  H     0.03977   0.90301   0.69255   0.00000  Uiso   1.00
H1915  H     0.06102   0.93903   0.76490   0.00000  Uiso   1.00
C1916  C     0.20379   0.70416   0.91631   0.00000  Uiso   1.00
C1917  C     0.24999   0.72685   0.91302   0.00000  Uiso   1.00
C1918  C     0.27328   0.74776   0.95092   0.00000  Uiso   1.00
C1919  C     0.25116   0.74496   0.99217   0.00000  Uiso   1.00
C1920  C     0.20940   0.71856   0.99713   0.00000  Uiso   1.00
C1921  C     0.18443   0.69899   0.95889   0.00000  Uiso   1.00
H1922  H     0.26653   0.72985   0.88065   0.00000  Uiso   1.00
H1923  H     0.30761   0.76666   0.94792   0.00000  Uiso   1.00
H1924  H     0.26484   0.76372   0.68702   0.00000  Uiso   1.00
H1925  H     0.19577   0.71481   0.69721   0.00000  Uiso   1.00
H1926  H     0.14931   0.68114   0.96198   0.00000  Uiso   1.00
C1927  C     0.08882   0.78341   0.70392   0.00000  Uiso   1.00
C1928  C     0.08962   0.74121   0.69822   0.00000  Uiso   1.00
C1929  C     0.05279   0.71432   0.71508   0.00000  Uiso   1.00
C1930  C     0.01431   0.72952   0.73748   0.00000  Uiso   1.00
C1931  C     0.00969   0.77152   0.73799   0.00000  Uiso   1.00
C1932  C     0.04381   0.79790   0.71658   0.00000  Uiso   1.00
H1933  H     0.11787   0.72903   0.67997   0.00000  Uiso   1.00
H1934  H     0.05431   0.68188   0.71092   0.00000  Uiso   1.00
H1935  H     0.31982   0.70894   0.75196   0.00000  Uiso   1.00
H1936  H     0.31118   0.78335   0.75264   0.00000  Uiso   1.00
H1937  H     0.03764   0.83014   0.71412   0.00000  Uiso   1.00
C1938  C     0.25305   0.87075   0.96212   0.00000  Uiso   1.00
C1939  C     0.25569   0.90716   0.93635   0.00000  Uiso   1.00
C1940  C     0.29977   0.92066   0.91702   0.00000  Uiso   1.00
C1941  C     0.00918   0.89792   0.92386   0.00000  Uiso   1.00
C1942  C     0.00828   0.86289   0.95192   0.00000  Uiso   1.00
C1943  C     0.29754   0.84996   0.97170   0.00000  Uiso   1.00
H1944  H     0.22387   0.92476   0.93005   0.00000  Uiso   1.00
H1945  H     0.30034   0.94828   0.89605   0.00000  Uiso   1.00
H1946  H     0.04274   0.90740   0.90734   0.00000  Uiso   1.00
H1947  H     0.04149   0.84548   0.95797   0.00000  Uiso   1.00
H1948  H     0.29750   0.82315   0.99337   0.00000  Uiso   1.00
H1949  H     0.10126   0.79438   0.95047   0.00000  Uiso   1.00
H1950  H     0.23493   0.86938   0.71595   0.00000  Uiso   1.00
O1951  O     0.50000   0.77322   0.87291   0.00000  Uiso   1.00
O1952  O     0.50000   0.89345   0.79375   0.00000  Uiso   1.00
O1953  O     0.50000   0.77321   0.79372   0.00000  Uiso   1.00
O1954  O     0.50000   0.89346   0.87294   0.00000  Uiso   1.00
C1955  C     0.50070   0.75428   0.83378   0.00000  Uiso   1.00
C1956  C     0.49692   0.91230   0.83276   0.00000  Uiso   1.00
O1957  O     0.42495   0.83334   0.86379   0.00000  Uiso   1.00
O1958  O     0.57505   0.83333   0.80288   0.00000  Uiso   1.00
O1959  O     0.42494   0.83333   0.78460   0.00000  Uiso   1.00
O1960  O     0.57506   0.83334   0.88207   0.00000  Uiso   1.00
C1961  C     0.40184   0.83453   0.82193   0.00000  Uiso   1.00
C1962  C     0.59814   0.83209   0.84470   0.00000  Uiso   1.00
Cu1963 Cu    0.50000   0.83334   0.88022   0.00000  Uiso   1.00
Cu1964 Cu    0.50000   0.83333   0.78645   0.00000  Uiso   1.00
N1965  N     0.50001   0.83334   0.95069   0.00000  Uiso   1.00
N1966  N     0.49999   0.83332   0.71597   0.00000  Uiso   1.00
C1967  C     0.34743   0.83878   0.81630   0.00000  Uiso   1.00
C1968  C     0.65249   0.82763   0.85003   0.00000  Uiso   1.00
C1969  C     0.48745   0.68918   0.79289   0.00000  Uiso   1.00
C1970  C     0.49985   0.97763   0.87413   0.00000  Uiso   1.00
H1971  H     0.48127   0.70620   0.76116   0.00000  Uiso   1.00
H1972  H     0.50022   0.96129   0.90626   0.00000  Uiso   1.00
C1973  C     0.48347   0.98020   0.79182   0.00000  Uiso   1.00
C1974  C     0.50962   0.68630   0.87483   0.00000  Uiso   1.00
C1975  C     0.49234   0.95703   0.83253   0.00000  Uiso   1.00
C1976  C     0.50012   0.70945   0.83412   0.00000  Uiso   1.00
C1977  C     0.46281   0.81137   0.68709   0.00000  Uiso   1.00
C1978  C     0.53864   0.85344   0.97930   0.00000  Uiso   1.00
C1979  C     0.46345   0.81196   0.97169   0.00000  Uiso   1.00
C1980  C     0.53771   0.85354   0.69484   0.00000  Uiso   1.00
H1981  H     0.66369   0.85120   0.78392   0.00000  Uiso   1.00
H1982  H     0.33618   0.81438   0.88186   0.00000  Uiso   1.00
C1983  C     0.46876   0.96121   0.74783   0.00000  Uiso   1.00
C1984  C     0.50372   0.96199   0.71542   0.00000  Uiso   1.00
C1985  C     0.49138   0.94174   0.67461   0.00000  Uiso   1.00
C1986  C     0.44478   0.92009   0.99937   0.00000  Uiso   1.00
C1987  C     0.40944   0.91949   0.69845   0.00000  Uiso   1.00
C1988  C     0.42139   0.94006   0.73947   0.00000  Uiso   1.00
H1989  H     0.54088   0.97741   0.72226   0.00000  Uiso   1.00
H1990  H     0.51855   0.94277   0.98354   0.00000  Uiso   1.00
H1991  H     0.43720   0.90336   0.96804   0.00000  Uiso   1.00
H1992  H     0.37310   0.90301   0.69255   0.00000  Uiso   1.00
H1993  H     0.39436   0.93903   0.76490   0.00000  Uiso   1.00
C1994  C     0.53712   0.70416   0.91631   0.00000  Uiso   1.00
C1995  C     0.58332   0.72685   0.91302   0.00000  Uiso   1.00
C1996  C     0.60662   0.74776   0.95092   0.00000  Uiso   1.00
C1997  C     0.58449   0.74496   0.99217   0.00000  Uiso   1.00
C1998  C     0.54273   0.71856   0.99713   0.00000  Uiso   1.00
C1999  C     0.51776   0.69899   0.95889   0.00000  Uiso   1.00
H2000  H     0.59986   0.72985   0.88065   0.00000  Uiso   1.00
H2001  H     0.64094   0.76666   0.94792   0.00000  Uiso   1.00
H2002  H     0.59818   0.76372   0.68702   0.00000  Uiso   1.00
H2003  H     0.52910   0.71481   0.69721   0.00000  Uiso   1.00
H2004  H     0.48264   0.68114   0.96198   0.00000  Uiso   1.00
C2005  C     0.42216   0.78341   0.70392   0.00000  Uiso   1.00
C2006  C     0.42295   0.74121   0.69822   0.00000  Uiso   1.00
C2007  C     0.38612   0.71432   0.71508   0.00000  Uiso   1.00
C2008  C     0.34764   0.72952   0.73748   0.00000  Uiso   1.00
C2009  C     0.34302   0.77152   0.73799   0.00000  Uiso   1.00
C2010  C     0.37715   0.79790   0.71658   0.00000  Uiso   1.00
H2011  H     0.45121   0.72903   0.67997   0.00000  Uiso   1.00
H2012  H     0.38764   0.68188   0.71092   0.00000  Uiso   1.00
H2013  H     0.65315   0.70894   0.75196   0.00000  Uiso   1.00
H2014  H     0.64451   0.78335   0.75264   0.00000  Uiso   1.00
H2015  H     0.37097   0.83014   0.71412   0.00000  Uiso   1.00
C2016  C     0.58638   0.87075   0.96212   0.00000  Uiso   1.00
C2017  C     0.58902   0.90716   0.93635   0.00000  Uiso   1.00
C2018  C     0.63310   0.92066   0.91702   0.00000  Uiso   1.00
C2019  C     0.34251   0.89792   0.92386   0.00000  Uiso   1.00
C2020  C     0.34162   0.86289   0.95192   0.00000  Uiso   1.00
C2021  C     0.63087   0.84996   0.97170   0.00000  Uiso   1.00
H2022  H     0.55721   0.92476   0.93005   0.00000  Uiso   1.00
H2023  H     0.63367   0.94828   0.89605   0.00000  Uiso   1.00
H2024  H     0.37607   0.90740   0.90734   0.00000  Uiso   1.00
H2025  H     0.37482   0.84548   0.95797   0.00000  Uiso   1.00
H2026  H     0.63083   0.82315   0.99337   0.00000  Uiso   1.00
H2027  H     0.43459   0.79438   0.95047   0.00000  Uiso   1.00
H2028  H     0.56826   0.86938   0.71595   0.00000  Uiso   1.00
O2029  O     0.83333   0.77322   0.87291   0.00000  Uiso   1.00
O2030  O     0.83334   0.89345   0.79375   0.00000  Uiso   1.00
O2031  O     0.83333   0.77321   0.79372   0.00000  Uiso   1.00
O2032  O     0.83334   0.89346   0.87294   0.00000  Uiso   1.00
C2033  C     0.83403   0.75428   0.83378   0.00000  Uiso   1.00
C2034  C     0.83026   0.91230   0.83276   0.00000  Uiso   1.00
O2035  O     0.75828   0.83334   0.86379   0.00000  Uiso   1.00
O2036  O     0.90839   0.83333   0.80288   0.00000  Uiso   1.00
O2037  O     0.75828   0.83333   0.78460   0.00000  Uiso   1.00
O2038  O     0.90839   0.83334   0.88207   0.00000  Uiso   1.00
C2039  C     0.73518   0.83453   0.82193   0.00000  Uiso   1.00
C2040  C     0.93148   0.83209   0.84470   0.00000  Uiso   1.00
Cu2041 Cu    0.83333   0.83334   0.88022   0.00000  Uiso   1.00
Cu2042 Cu    0.83333   0.83333   0.78645   0.00000  Uiso   1.00
N2043  N     0.83335   0.83334   0.95069   0.00000  Uiso   1.00
N2044  N     0.83332   0.83332   0.71597   0.00000  Uiso   1.00
C2045  C     0.68076   0.83878   0.81630   0.00000  Uiso   1.00
C2046  C     0.98582   0.82763   0.85003   0.00000  Uiso   1.00
C2047  C     0.82078   0.68918   0.79289   0.00000  Uiso   1.00
C2048  C     0.83319   0.97763   0.87413   0.00000  Uiso   1.00
H2049  H     0.81460   0.70620   0.76116   0.00000  Uiso   1.00
H2050  H     0.83355   0.96129   0.90626   0.00000  Uiso   1.00
C2051  C     0.81681   0.98020   0.79182   0.00000  Uiso   1.00
C2052  C     0.84296   0.68630   0.87483   0.00000  Uiso   1.00
C2053  C     0.82567   0.95703   0.83253   0.00000  Uiso   1.00
C2054  C     0.83346   0.70945   0.83412   0.00000  Uiso   1.00
C2055  C     0.79615   0.81137   0.68709   0.00000  Uiso   1.00
C2056  C     0.87198   0.85344   0.97930   0.00000  Uiso   1.00
C2057  C     0.79678   0.81196   0.97169   0.00000  Uiso   1.00
C2058  C     0.87104   0.85354   0.69484   0.00000  Uiso   1.00
H2059  H     0.99703   0.85120   0.78392   0.00000  Uiso   1.00
H2060  H     0.66951   0.81438   0.88186   0.00000  Uiso   1.00
C2061  C     0.80209   0.96121   0.74783   0.00000  Uiso   1.00
C2062  C     0.83705   0.96199   0.71542   0.00000  Uiso   1.00
C2063  C     0.82472   0.94174   0.67461   0.00000  Uiso   1.00
C2064  C     0.77812   0.92009   0.99937   0.00000  Uiso   1.00
C2065  C     0.74277   0.91949   0.69845   0.00000  Uiso   1.00
C2066  C     0.75473   0.94006   0.73947   0.00000  Uiso   1.00
H2067  H     0.87421   0.97741   0.72226   0.00000  Uiso   1.00
H2068  H     0.85188   0.94277   0.98354   0.00000  Uiso   1.00
H2069  H     0.77054   0.90336   0.96804   0.00000  Uiso   1.00
H2070  H     0.70644   0.90301   0.69255   0.00000  Uiso   1.00
H2071  H     0.72769   0.93903   0.76490   0.00000  Uiso   1.00
C2072  C     0.87046   0.70416   0.91631   0.00000  Uiso   1.00
C2073  C     0.91665   0.72685   0.91302   0.00000  Uiso   1.00
C2074  C     0.93995   0.74776   0.95092   0.00000  Uiso   1.00
C2075  C     0.91783   0.74496   0.99217   0.00000  Uiso   1.00
C2076  C     0.87606   0.71856   0.99713   0.00000  Uiso   1.00
C2077  C     0.85110   0.69899   0.95889   0.00000  Uiso   1.00
H2078  H     0.93320   0.72985   0.88065   0.00000  Uiso   1.00
H2079  H     0.97427   0.76666   0.94792   0.00000  Uiso   1.00
H2080  H     0.93151   0.76372   0.68702   0.00000  Uiso   1.00
H2081  H     0.86244   0.71481   0.69721   0.00000  Uiso   1.00
H2082  H     0.81598   0.68114   0.96198   0.00000  Uiso   1.00
C2083  C     0.75549   0.78341   0.70392   0.00000  Uiso   1.00
C2084  C     0.75629   0.74121   0.69822   0.00000  Uiso   1.00
C2085  C     0.71946   0.71432   0.71508   0.00000  Uiso   1.00
C2086  C     0.68098   0.72952   0.73748   0.00000  Uiso   1.00
C2087  C     0.67635   0.77152   0.73799   0.00000  Uiso   1.00
C2088  C     0.71048   0.79790   0.71658   0.00000  Uiso   1.00
H2089  H     0.78454   0.72903   0.67997   0.00000  Uiso   1.00
H2090  H     0.72097   0.68188   0.71092   0.00000  Uiso   1.00
H2091  H     0.98649   0.70894   0.75196   0.00000  Uiso   1.00
H2092  H     0.97784   0.78335   0.75264   0.00000  Uiso   1.00
H2093  H     0.70430   0.83014   0.71412   0.00000  Uiso   1.00
C2094  C     0.91972   0.87075   0.96212   0.00000  Uiso   1.00
C2095  C     0.92236   0.90716   0.93635   0.00000  Uiso   1.00
C2096  C     0.96643   0.92066   0.91702   0.00000  Uiso   1.00
C2097  C     0.67584   0.89792   0.92386   0.00000  Uiso   1.00
C2098  C     0.67495   0.86289   0.95192   0.00000  Uiso   1.00
C2099  C     0.96421   0.84996   0.97170   0.00000  Uiso   1.00
H2100  H     0.89054   0.92476   0.93005   0.00000  Uiso   1.00
H2101  H     0.96701   0.94828   0.89605   0.00000  Uiso   1.00
H2102  H     0.70940   0.90740   0.90734   0.00000  Uiso   1.00
H2103  H     0.70815   0.84548   0.95797   0.00000  Uiso   1.00
H2104  H     0.96416   0.82315   0.99337   0.00000  Uiso   1.00
H2105  H     0.76792   0.79438   0.95047   0.00000  Uiso   1.00
H2106  H     0.90160   0.86938   0.71595   0.00000  Uiso   1.00
loop_
_geom_bond_atom_site_label_1
_geom_bond_atom_site_label_2
_geom_bond_distance
_geom_bond_site_symmetry_2
_ccdc_geom_bond_type
O1     C5      1.320   .     A
O1     Cu13    1.994   .     S
O2     C6      1.325   .     A
O2     Cu14    1.994   .     S
O3     Cu14    1.983   .     S
O3     C5      1.311   .     A
O4     Cu13    1.983   .     S
O4     C6      1.311   .     A
C5     C26     1.473   .     S
C6     C25     1.483   .     S
O7     C11     1.312   .     A
O7     Cu13    1.998   .     S
O8     C12     1.311   .     A
O8     Cu14    1.998   .     S
O9     Cu14    1.985   .     S
O9     C11     1.308   .     A
O10    C12     1.309   .     A
O10    Cu13    1.985   .     S
C11    C17     1.450   .     S
C12    C18     1.449   .     S
Cu13   Cu14    2.743   .     S
Cu13   N15     2.061   .     S
Cu14   N16     2.061   .     S
N15    C29     1.353   .     A
N15    C28     1.399   .     A
N16    C30     1.361   .     A
N16    C27     1.408   .     A
C17    C174    1.331   1_455 S
C17    H187    1.087   1_455 S
C18    C95     1.331   .     S
C18    H110    1.084   .     S
C19    H21     1.074   .     S
C19    C26     1.394   .     A
C19    C491    1.390   1_545 S
C20    C25     1.399   .     A
C20    H22     1.070   .     S
C20    C258    1.391   .     S
C23    C33     1.452   .     S
C23    C25     1.403   .     A
C23    C253    1.390   .     S
C24    C26     1.405   .     A
C24    C44     1.467   .     S
C24    C488    1.391   1_545 S
C27    C55     1.490   .     S
C27    C1433   1.427   1_554 S
C28    C66     1.487   .     S
C28    C732    1.432   .     S
C29    H77     1.083   .     S
C29    C729    1.427   .     S
C30    H78     1.083   .     S
C30    C1432   1.432   1_554 S
H31    C95     1.087   .     S
H32    C174    1.084   1_455 S
C33    C34     1.391   .     A
C33    C38     1.401   .     A
C34    C35     1.382   .     A
C34    H39     1.083   .     S
C35    C1440   1.392   1_554 S
C35    H1444   1.064   1_554 S
C36    H41     1.076   .     S
C36    C737    1.392   .     S
C36    C739    1.399   .     S
C37    H42     1.077   .     S
C37    C38     1.391   .     A
C37    C1440   1.399   1_554 S
C38    H43     1.084   .     S
H40    C737    1.064   .     S
C44    C49     1.398   .     A
C44    C45     1.407   .     A
C45    C46     1.390   .     A
C45    H50     1.084   .     S
C46    H51     1.081   .     S
C46    C47     1.393   .     A
C47    C48     1.384   .     A
C47    H754    1.063   .     S
C48    C49     1.392   .     A
C48    H755    1.078   .     S
C49    H54     1.082   .     S
H52    C1451   1.063   1_554 S
H53    C1452   1.078   1_554 S
C55    C56     1.404   .     A
C55    C60     1.398   .     A
C56    C57     1.398   .     A
C56    H61     1.065   .     S
C57    C58     1.391   .     A
C57    H62     1.080   .     S
C58    C59     1.394   .     A
C58    H219    1.083   1_455 S
C59    C60     1.400   .     A
C59    H220    1.081   1_455 S
C60    H65     1.082   .     S
H63    C136    1.083   .     S
H64    C137    1.081   .     S
C66    C67     1.400   .     A
C66    C71     1.398   .     A
C67    H72     1.049   .     S
C67    C68     1.394   .     A
C68    H73     1.083   .     S
C68    C147    1.389   .     S
C69    H74     1.082   .     S
C69    C70     1.397   .     A
C69    C224    1.389   1_455 S
C70    H75     1.075   .     S
C70    C227    1.396   1_455 S
C71    H76     1.072   .     S
C71    C148    1.396   .     S
O79    C83     1.320   .     A
O79    Cu91    1.994   .     S
O80    C84     1.325   .     A
O80    Cu92    1.994   .     S
O81    Cu92    1.983   .     S
O81    C83     1.311   .     A
O82    Cu91    1.983   .     S
O82    C84     1.311   .     A
C83    C104    1.473   .     S
C84    C103    1.483   .     S
O85    C89     1.312   .     A
O85    Cu91    1.998   .     S
O86    C90     1.311   .     A
O86    Cu92    1.998   .     S
O87    Cu92    1.985   .     S
O87    C89     1.308   .     A
O88    C90     1.309   .     A
O88    Cu91    1.985   .     S
C89    C95     1.450   .     S
C90    C96     1.449   .     S
Cu91   Cu92    2.743   .     S
Cu91   N93     2.061   .     S
Cu92   N94     2.061   .     S
N93    C107    1.353   .     A
N93    C106    1.399   .     A
N94    C108    1.361   .     A
N94    C105    1.408   .     A
C96    C173    1.331   .     S
C96    H188    1.084   .     S
C97    H99     1.074   .     S
C97    C104    1.394   .     A
C97    C569    1.390   1_545 S
C98    C103    1.399   .     A
C98    H100    1.070   .     S
C98    C336    1.391   .     S
C101   C111    1.452   .     S
C101   C103    1.403   .     A
C101   C331    1.390   .     S
C102   C104    1.405   .     A
C102   C122    1.467   .     S
C102   C566    1.391   1_545 S
C105   C133    1.490   .     S
C105   C1511   1.427   1_554 S
C106   C144    1.487   .     S
C106   C810    1.432   .     S
C107   H155    1.083   .     S
C107   C807    1.427   .     S
C108   H156    1.083   .     S
C108   C1510   1.432   1_554 S
H109   C173    1.087   .     S
C111   C112    1.391   .     A
C111   C116    1.401   .     A
C112   C113    1.382   .     A
C112   H117    1.083   .     S
C113   C1518   1.392   1_554 S
C113   H1522   1.064   1_554 S
C114   H119    1.076   .     S
C114   C815    1.392   .     S
C114   C817    1.399   .     S
C115   H120    1.077   .     S
C115   C116    1.391   .     A
C115   C1518   1.399   1_554 S
C116   H121    1.084   .     S
H118   C815    1.064   .     S
C122   C127    1.398   .     A
C122   C123    1.407   .     A
C123   C124    1.390   .     A
C123   H128    1.084   .     S
C124   H129    1.081   .     S
C124   C125    1.393   .     A
C125   C126    1.384   .     A
C125   H832    1.063   .     S
C126   C127    1.392   .     A
C126   H833    1.078   .     S
C127   H132    1.082   .     S
H130   C1529   1.063   1_554 S
H131   C1530   1.078   1_554 S
C133   C134    1.404   .     A
C133   C138    1.398   .     A
C134   C135    1.398   .     A
C134   H139    1.065   .     S
C135   C136    1.391   .     A
C135   H140    1.080   .     S
C136   C137    1.394   .     A
C137   C138    1.400   .     A
C138   H143    1.082   .     S
H141   C214    1.083   .     S
H142   C215    1.081   .     S
C144   C145    1.400   .     A
C144   C149    1.398   .     A
C145   H150    1.049   .     S
C145   C146    1.394   .     A
C146   H151    1.083   .     S
C146   C225    1.389   .     S
C147   H152    1.082   .     S
C147   C148    1.397   .     A
C148   H153    1.075   .     S
C149   H154    1.072   .     S
C149   C226    1.396   .     S
O157   C161    1.320   .     A
O157   Cu169   1.994   .     S
O158   C162    1.325   .     A
O158   Cu170   1.994   .     S
O159   Cu170   1.983   .     S
O159   C161    1.311   .     A
O160   Cu169   1.983   .     S
O160   C162    1.311   .     A
C161   C182    1.473   .     S
C162   C181    1.483   .     S
O163   C167    1.312   .     A
O163   Cu169   1.998   .     S
O164   C168    1.311   .     A
O164   Cu170   1.998   .     S
O165   Cu170   1.985   .     S
O165   C167    1.308   .     A
O166   C168    1.309   .     A
O166   Cu169   1.985   .     S
C167   C173    1.450   .     S
C168   C174    1.449   .     S
Cu169  Cu170   2.743   .     S
Cu169  N171    2.061   .     S
Cu170  N172    2.061   .     S
N171   C185    1.353   .     A
N171   C184    1.399   .     A
N172   C186    1.361   .     A
N172   C183    1.408   .     A
C174   C17     1.331   1_655 S
C174   H32     1.084   1_655 S
C175   H177    1.074   .     S
C175   C182    1.394   .     A
C175   C647    1.390   1_545 S
C176   C181    1.399   .     A
C176   H178    1.070   .     S
C176   C414    1.391   .     S
C179   C189    1.452   .     S
C179   C181    1.403   .     A
C179   C409    1.390   .     S
C180   C182    1.405   .     A
C180   C200    1.467   .     S
C180   C644    1.391   1_545 S
C183   C211    1.490   .     S
C183   C1589   1.427   1_554 S
C184   C222    1.487   .     S
C184   C888    1.432   .     S
C185   H233    1.083   .     S
C185   C885    1.427   .     S
C186   H234    1.083   .     S
C186   C1588   1.432   1_554 S
H187   C17     1.087   1_655 S
C189   C190    1.391   .     A
C189   C194    1.401   .     A
C190   C191    1.382   .     A
C190   H195    1.083   .     S
C191   C1596   1.392   1_554 S
C191   H1600   1.064   1_554 S
C192   H197    1.076   .     S
C192   C893    1.392   .     S
C192   C895    1.399   .     S
C193   H198    1.077   .     S
C193   C194    1.391   .     A
C193   C1596   1.399   1_554 S
C194   H199    1.084   .     S
H196   C893    1.064   .     S
C200   C205    1.398   .     A
C200   C201    1.407   .     A
C201   C202    1.390   .     A
C201   H206    1.084   .     S
C202   H207    1.081   .     S
C202   C203    1.393   .     A
C203   C204    1.384   .     A
C203   H910    1.063   .     S
C204   C205    1.392   .     A
C204   H911    1.078   .     S
C205   H210    1.082   .     S
H208   C1607   1.063   1_554 S
H209   C1608   1.078   1_554 S
C211   C212    1.404   .     A
C211   C216    1.398   .     A
C212   C213    1.398   .     A
C212   H217    1.065   .     S
C213   C214    1.391   .     A
C213   H218    1.080   .     S
C214   C215    1.394   .     A
C215   C216    1.400   .     A
C216   H221    1.082   .     S
H219   C58     1.083   1_655 S
H220   C59     1.081   1_655 S
C222   C223    1.400   .     A
C222   C227    1.398   .     A
C223   H228    1.049   .     S
C223   C224    1.394   .     A
C224   H229    1.083   .     S
C224   C69     1.389   1_655 S
C225   H230    1.082   .     S
C225   C226    1.397   .     A
C226   H231    1.075   .     S
C227   H232    1.072   .     S
C227   C70     1.396   1_655 S
O235   C239    1.320   .     A
O235   Cu247   1.994   .     S
O236   C240    1.325   .     A
O236   Cu248   1.994   .     S
O237   Cu248   1.983   .     S
O237   C239    1.311   .     A
O238   Cu247   1.983   .     S
O238   C240    1.311   .     A
C239   C260    1.473   .     S
C240   C259    1.483   .     S
O241   C245    1.312   .     A
O241   Cu247   1.998   .     S
O242   C246    1.311   .     A
O242   Cu248   1.998   .     S
O243   Cu248   1.985   .     S
O243   C245    1.308   .     A
O244   C246    1.309   .     A
O244   Cu247   1.985   .     S
C245   C251    1.450   .     S
C246   C252    1.449   .     S
Cu247  Cu248   2.743   .     S
Cu247  N249    2.061   .     S
Cu248  N250    2.061   .     S
N249   C263    1.353   .     A
N249   C262    1.399   .     A
N250   C264    1.361   .     A
N250   C261    1.408   .     A
C251   C408    1.331   1_455 S
C251   H421    1.087   1_455 S
C252   C329    1.331   .     S
C252   H344    1.084   .     S
C253   H255    1.074   .     S
C253   C260    1.394   .     A
C254   C259    1.399   .     A
C254   H256    1.070   .     S
C254   C492    1.391   .     S
C257   C267    1.452   .     S
C257   C259    1.403   .     A
C257   C487    1.390   .     S
C258   C260    1.405   .     A
C258   C278    1.467   .     S
C261   C289    1.490   .     S
C261   C1667   1.427   1_554 S
C262   C300    1.487   .     S
C262   C966    1.432   .     S
C263   H311    1.083   .     S
C263   C963    1.427   .     S
C264   H312    1.083   .     S
C264   C1666   1.432   1_554 S
H265   C329    1.087   .     S
H266   C408    1.084   1_455 S
C267   C268    1.391   .     A
C267   C272    1.401   .     A
C268   C269    1.382   .     A
C268   H273    1.083   .     S
C269   C1674   1.392   1_554 S
C269   H1678   1.064   1_554 S
C270   H275    1.076   .     S
C270   C971    1.392   .     S
C270   C973    1.399   .     S
C271   H276    1.077   .     S
C271   C272    1.391   .     A
C271   C1674   1.399   1_554 S
C272   H277    1.084   .     S
H274   C971    1.064   .     S
C278   C283    1.398   .     A
C278   C279    1.407   .     A
C279   C280    1.390   .     A
C279   H284    1.084   .     S
C280   H285    1.081   .     S
C280   C281    1.393   .     A
C281   C282    1.384   .     A
C281   H988    1.063   .     S
C282   C283    1.392   .     A
C282   H989    1.078   .     S
C283   H288    1.082   .     S
H286   C1685   1.063   1_554 S
H287   C1686   1.078   1_554 S
C289   C290    1.404   .     A
C289   C294    1.398   .     A
C290   C291    1.398   .     A
C290   H295    1.065   .     S
C291   C292    1.391   .     A
C291   H296    1.080   .     S
C292   C293    1.394   .     A
C292   H453    1.083   1_455 S
C293   C294    1.400   .     A
C293   H454    1.081   1_455 S
C294   H299    1.082   .     S
H297   C370    1.083   .     S
H298   C371    1.081   .     S
C300   C301    1.400   .     A
C300   C305    1.398   .     A
C301   H306    1.049   .     S
C301   C302    1.394   .     A
C302   H307    1.083   .     S
C302   C381    1.389   .     S
C303   H308    1.082   .     S
C303   C304    1.397   .     A
C303   C458    1.389   1_455 S
C304   H309    1.075   .     S
C304   C461    1.396   1_455 S
C305   H310    1.072   .     S
C305   C382    1.396   .     S
O313   C317    1.320   .     A
O313   Cu325   1.994   .     S
O314   C318    1.325   .     A
O314   Cu326   1.994   .     S
O315   Cu326   1.983   .     S
O315   C317    1.311   .     A
O316   Cu325   1.983   .     S
O316   C318    1.311   .     A
C317   C338    1.473   .     S
C318   C337    1.483   .     S
O319   C323    1.312   .     A
O319   Cu325   1.998   .     S
O320   C324    1.311   .     A
O320   Cu326   1.998   .     S
O321   Cu326   1.985   .     S
O321   C323    1.308   .     A
O322   C324    1.309   .     A
O322   Cu325   1.985   .     S
C323   C329    1.450   .     S
C324   C330    1.449   .     S
Cu325  Cu326   2.743   .     S
Cu325  N327    2.061   .     S
Cu326  N328    2.061   .     S
N327   C341    1.353   .     A
N327   C340    1.399   .     A
N328   C342    1.361   .     A
N328   C339    1.408   .     A
C330   C407    1.331   .     S
C330   H422    1.084   .     S
C331   H333    1.074   .     S
C331   C338    1.394   .     A
C332   C337    1.399   .     A
C332   H334    1.070   .     S
C332   C570    1.391   .     S
C335   C345    1.452   .     S
C335   C337    1.403   .     A
C335   C565    1.390   .     S
C336   C338    1.405   .     A
C336   C356    1.467   .     S
C339   C367    1.490   .     S
C339   C1745   1.427   1_554 S
C340   C378    1.487   .     S
C340   C1044   1.432   .     S
C341   H389    1.083   .     S
C341   C1041   1.427   .     S
C342   H390    1.083   .     S
C342   C1744   1.432   1_554 S
H343   C407    1.087   .     S
C345   C346    1.391   .     A
C345   C350    1.401   .     A
C346   C347    1.382   .     A
C346   H351    1.083   .     S
C347   C1752   1.392   1_554 S
C347   H1756   1.064   1_554 S
C348   H353    1.076   .     S
C348   C1049   1.392   .     S
C348   C1051   1.399   .     S
C349   H354    1.077   .     S
C349   C350    1.391   .     A
C349   C1752   1.399   1_554 S
C350   H355    1.084   .     S
H352   C1049   1.064   .     S
C356   C361    1.398   .     A
C356   C357    1.407   .     A
C357   C358    1.390   .     A
C357   H362    1.084   .     S
C358   H363    1.081   .     S
C358   C359    1.393   .     A
C359   C360    1.384   .     A
C359   H1066   1.063   .     S
C360   C361    1.392   .     A
C360   H1067   1.078   .     S
C361   H366    1.082   .     S
H364   C1763   1.063   1_554 S
H365   C1764   1.078   1_554 S
C367   C368    1.404   .     A
C367   C372    1.398   .     A
C368   C369    1.398   .     A
C368   H373    1.065   .     S
C369   C370    1.391   .     A
C369   H374    1.080   .     S
C370   C371    1.394   .     A
C371   C372    1.400   .     A
C372   H377    1.082   .     S
H375   C448    1.083   .     S
H376   C449    1.081   .     S
C378   C379    1.400   .     A
C378   C383    1.398   .     A
C379   H384    1.049   .     S
C379   C380    1.394   .     A
C380   H385    1.083   .     S
C380   C459    1.389   .     S
C381   H386    1.082   .     S
C381   C382    1.397   .     A
C382   H387    1.075   .     S
C383   H388    1.072   .     S
C383   C460    1.396   .     S
O391   C395    1.320   .     A
O391   Cu403   1.994   .     S
O392   C396    1.325   .     A
O392   Cu404   1.994   .     S
O393   Cu404   1.983   .     S
O393   C395    1.311   .     A
O394   Cu403   1.983   .     S
O394   C396    1.311   .     A
C395   C416    1.473   .     S
C396   C415    1.483   .     S
O397   C401    1.312   .     A
O397   Cu403   1.998   .     S
O398   C402    1.311   .     A
O398   Cu404   1.998   .     S
O399   Cu404   1.985   .     S
O399   C401    1.308   .     A
O400   C402    1.309   .     A
O400   Cu403   1.985   .     S
C401   C407    1.450   .     S
C402   C408    1.449   .     S
Cu403  Cu404   2.743   .     S
Cu403  N405    2.061   .     S
Cu404  N406    2.061   .     S
N405   C419    1.353   .     A
N405   C418    1.399   .     A
N406   C420    1.361   .     A
N406   C417    1.408   .     A
C408   C251    1.331   1_655 S
C408   H266    1.084   1_655 S
C409   H411    1.074   .     S
C409   C416    1.394   .     A
C410   C415    1.399   .     A
C410   H412    1.070   .     S
C410   C648    1.391   .     S
C413   C423    1.452   .     S
C413   C415    1.403   .     A
C413   C643    1.390   .     S
C414   C416    1.405   .     A
C414   C434    1.467   .     S
C417   C445    1.490   .     S
C417   C1823   1.427   1_554 S
C418   C456    1.487   .     S
C418   C1122   1.432   .     S
C419   H467    1.083   .     S
C419   C1119   1.427   .     S
C420   H468    1.083   .     S
C420   C1822   1.432   1_554 S
H421   C251    1.087   1_655 S
C423   C424    1.391   .     A
C423   C428    1.401   .     A
C424   C425    1.382   .     A
C424   H429    1.083   .     S
C425   C1830   1.392   1_554 S
C425   H1834   1.064   1_554 S
C426   H431    1.076   .     S
C426   C1127   1.392   .     S
C426   C1129   1.399   .     S
C427   H432    1.077   .     S
C427   C428    1.391   .     A
C427   C1830   1.399   1_554 S
C428   H433    1.084   .     S
H430   C1127   1.064   .     S
C434   C439    1.398   .     A
C434   C435    1.407   .     A
C435   C436    1.390   .     A
C435   H440    1.084   .     S
C436   H441    1.081   .     S
C436   C437    1.393   .     A
C437   C438    1.384   .     A
C437   H1144   1.063   .     S
C438   C439    1.392   .     A
C438   H1145   1.078   .     S
C439   H444    1.082   .     S
H442   C1841   1.063   1_554 S
H443   C1842   1.078   1_554 S
C445   C446    1.404   .     A
C445   C450    1.398   .     A
C446   C447    1.398   .     A
C446   H451    1.065   .     S
C447   C448    1.391   .     A
C447   H452    1.080   .     S
C448   C449    1.394   .     A
C449   C450    1.400   .     A
C450   H455    1.082   .     S
H453   C292    1.083   1_655 S
H454   C293    1.081   1_655 S
C456   C457    1.400   .     A
C456   C461    1.398   .     A
C457   H462    1.049   .     S
C457   C458    1.394   .     A
C458   H463    1.083   .     S
C458   C303    1.389   1_655 S
C459   H464    1.082   .     S
C459   C460    1.397   .     A
C460   H465    1.075   .     S
C461   H466    1.072   .     S
C461   C304    1.396   1_655 S
O469   C473    1.320   .     A
O469   Cu481   1.994   .     S
O470   C474    1.325   .     A
O470   Cu482   1.994   .     S
O471   Cu482   1.983   .     S
O471   C473    1.311   .     A
O472   Cu481   1.983   .     S
O472   C474    1.311   .     A
C473   C494    1.473   .     S
C474   C493    1.483   .     S
O475   C479    1.312   .     A
O475   Cu481   1.998   .     S
O476   C480    1.311   .     A
O476   Cu482   1.998   .     S
O477   Cu482   1.985   .     S
O477   C479    1.308   .     A
O478   C480    1.309   .     A
O478   Cu481   1.985   .     S
C479   C485    1.450   .     S
C480   C486    1.449   .     S
Cu481  Cu482   2.743   .     S
Cu481  N483    2.061   .     S
Cu482  N484    2.061   .     S
N483   C497    1.353   .     A
N483   C496    1.399   .     A
N484   C498    1.361   .     A
N484   C495    1.408   .     A
C485   C642    1.331   1_455 S
C485   H655    1.087   1_455 S
C486   C563    1.331   .     S
C486   H578    1.084   .     S
C487   H489    1.074   .     S
C487   C494    1.394   .     A
C488   C493    1.399   .     A
C488   H490    1.070   .     S
C488   C24     1.391   1_565 S
C491   C501    1.452   .     S
C491   C493    1.403   .     A
C491   C19     1.390   1_565 S
C492   C494    1.405   .     A
C492   C512    1.467   .     S
C495   C523    1.490   .     S
C495   C1901   1.427   1_554 S
C496   C534    1.487   .     S
C496   C1200   1.432   .     S
C497   H545    1.083   .     S
C497   C1197   1.427   .     S
C498   H546    1.083   .     S
C498   C1900   1.432   1_554 S
H499   C563    1.087   .     S
H500   C642    1.084   1_455 S
C501   C502    1.391   .     A
C501   C506    1.401   .     A
C502   C503    1.382   .     A
C502   H507    1.083   .     S
C503   C1908   1.392   1_554 S
C503   H1912   1.064   1_554 S
C504   H509    1.076   .     S
C504   C1205   1.392   .     S
C504   C1207   1.399   .     S
C505   H510    1.077   .     S
C505   C506    1.391   .     A
C505   C1908   1.399   1_554 S
C506   H511    1.084   .     S
H508   C1205   1.064   .     S
C512   C517    1.398   .     A
C512   C513    1.407   .     A
C513   C514    1.390   .     A
C513   H518    1.084   .     S
C514   H519    1.081   .     S
C514   C515    1.393   .     A
C515   C516    1.384   .     A
C515   H1222   1.063   .     S
C516   C517    1.392   .     A
C516   H1223   1.078   .     S
C517   H522    1.082   .     S
H520   C1919   1.063   1_554 S
H521   C1920   1.078   1_554 S
C523   C524    1.404   .     A
C523   C528    1.398   .     A
C524   C525    1.398   .     A
C524   H529    1.065   .     S
C525   C526    1.391   .     A
C525   H530    1.080   .     S
C526   C527    1.394   .     A
C526   H687    1.083   1_455 S
C527   C528    1.400   .     A
C527   H688    1.081   1_455 S
C528   H533    1.082   .     S
H531   C604    1.083   .     S
H532   C605    1.081   .     S
C534   C535    1.400   .     A
C534   C539    1.398   .     A
C535   H540    1.049   .     S
C535   C536    1.394   .     A
C536   H541    1.083   .     S
C536   C615    1.389   .     S
C537   H542    1.082   .     S
C537   C538    1.397   .     A
C537   C692    1.389   1_455 S
C538   H543    1.075   .     S
C538   C695    1.396   1_455 S
C539   H544    1.072   .     S
C539   C616    1.396   .     S
O547   C551    1.320   .     A
O547   Cu559   1.994   .     S
O548   C552    1.325   .     A
O548   Cu560   1.994   .     S
O549   Cu560   1.983   .     S
O549   C551    1.311   .     A
O550   Cu559   1.983   .     S
O550   C552    1.311   .     A
C551   C572    1.473   .     S
C552   C571    1.483   .     S
O553   C557    1.312   .     A
O553   Cu559   1.998   .     S
O554   C558    1.311   .     A
O554   Cu560   1.998   .     S
O555   Cu560   1.985   .     S
O555   C557    1.308   .     A
O556   C558    1.309   .     A
O556   Cu559   1.985   .     S
C557   C563    1.450   .     S
C558   C564    1.449   .     S
Cu559  Cu560   2.743   .     S
Cu559  N561    2.061   .     S
Cu560  N562    2.061   .     S
N561   C575    1.353   .     A
N561   C574    1.399   .     A
N562   C576    1.361   .     A
N562   C573    1.408   .     A
C564   C641    1.331   .     S
C564   H656    1.084   .     S
C565   H567    1.074   .     S
C565   C572    1.394   .     A
C566   C571    1.399   .     A
C566   H568    1.070   .     S
C566   C102    1.391   1_565 S
C569   C579    1.452   .     S
C569   C571    1.403   .     A
C569   C97     1.390   1_565 S
C570   C572    1.405   .     A
C570   C590    1.467   .     S
C573   C601    1.490   .     S
C573   C1979   1.427   1_554 S
C574   C612    1.487   .     S
C574   C1278   1.432   .     S
C575   H623    1.083   .     S
C575   C1275   1.427   .     S
C576   H624    1.083   .     S
C576   C1978   1.432   1_554 S
H577   C641    1.087   .     S
C579   C580    1.391   .     A
C579   C584    1.401   .     A
C580   C581    1.382   .     A
C580   H585    1.083   .     S
C581   C1986   1.392   1_554 S
C581   H1990   1.064   1_554 S
C582   H587    1.076   .     S
C582   C1283   1.392   .     S
C582   C1285   1.399   .     S
C583   H588    1.077   .     S
C583   C584    1.391   .     A
C583   C1986   1.399   1_554 S
C584   H589    1.084   .     S
H586   C1283   1.064   .     S
C590   C595    1.398   .     A
C590   C591    1.407   .     A
C591   C592    1.390   .     A
C591   H596    1.084   .     S
C592   H597    1.081   .     S
C592   C593    1.393   .     A
C593   C594    1.384   .     A
C593   H1300   1.063   .     S
C594   C595    1.392   .     A
C594   H1301   1.078   .     S
C595   H600    1.082   .     S
H598   C1997   1.063   1_554 S
H599   C1998   1.078   1_554 S
C601   C602    1.404   .     A
C601   C606    1.398   .     A
C602   C603    1.398   .     A
C602   H607    1.065   .     S
C603   C604    1.391   .     A
C603   H608    1.080   .     S
C604   C605    1.394   .     A
C605   C606    1.400   .     A
C606   H611    1.082   .     S
H609   C682    1.083   .     S
H610   C683    1.081   .     S
C612   C613    1.400   .     A
C612   C617    1.398   .     A
C613   H618    1.049   .     S
C613   C614    1.394   .     A
C614   H619    1.083   .     S
C614   C693    1.389   .     S
C615   H620    1.082   .     S
C615   C616    1.397   .     A
C616   H621    1.075   .     S
C617   H622    1.072   .     S
C617   C694    1.396   .     S
O625   C629    1.320   .     A
O625   Cu637   1.994   .     S
O626   C630    1.325   .     A
O626   Cu638   1.994   .     S
O627   Cu638   1.983   .     S
O627   C629    1.311   .     A
O628   Cu637   1.983   .     S
O628   C630    1.311   .     A
C629   C650    1.473   .     S
C630   C649    1.483   .     S
O631   C635    1.312   .     A
O631   Cu637   1.998   .     S
O632   C636    1.311   .     A
O632   Cu638   1.998   .     S
O633   Cu638   1.985   .     S
O633   C635    1.308   .     A
O634   C636    1.309   .     A
O634   Cu637   1.985   .     S
C635   C641    1.450   .     S
C636   C642    1.449   .     S
Cu637  Cu638   2.743   .     S
Cu637  N639    2.061   .     S
Cu638  N640    2.061   .     S
N639   C653    1.353   .     A
N639   C652    1.399   .     A
N640   C654    1.361   .     A
N640   C651    1.408   .     A
C642   C485    1.331   1_655 S
C642   H500    1.084   1_655 S
C643   H645    1.074   .     S
C643   C650    1.394   .     A
C644   C649    1.399   .     A
C644   H646    1.070   .     S
C644   C180    1.391   1_565 S
C647   C657    1.452   .     S
C647   C649    1.403   .     A
C647   C175    1.390   1_565 S
C648   C650    1.405   .     A
C648   C668    1.467   .     S
C651   C679    1.490   .     S
C651   C2057   1.427   1_554 S
C652   C690    1.487   .     S
C652   C1356   1.432   .     S
C653   H701    1.083   .     S
C653   C1353   1.427   .     S
C654   H702    1.083   .     S
C654   C2056   1.432   1_554 S
H655   C485    1.087   1_655 S
C657   C658    1.391   .     A
C657   C662    1.401   .     A
C658   C659    1.382   .     A
C658   H663    1.083   .     S
C659   C2064   1.392   1_554 S
C659   H2068   1.064   1_554 S
C660   H665    1.076   .     S
C660   C1361   1.392   .     S
C660   C1363   1.399   .     S
C661   H666    1.077   .     S
C661   C662    1.391   .     A
C661   C2064   1.399   1_554 S
C662   H667    1.084   .     S
H664   C1361   1.064   .     S
C668   C673    1.398   .     A
C668   C669    1.407   .     A
C669   C670    1.390   .     A
C669   H674    1.084   .     S
C670   H675    1.081   .     S
C670   C671    1.393   .     A
C671   C672    1.384   .     A
C671   H1378   1.063   .     S
C672   C673    1.392   .     A
C672   H1379   1.078   .     S
C673   H678    1.082   .     S
H676   C2075   1.063   1_554 S
H677   C2076   1.078   1_554 S
C679   C680    1.404   .     A
C679   C684    1.398   .     A
C680   C681    1.398   .     A
C680   H685    1.065   .     S
C681   C682    1.391   .     A
C681   H686    1.080   .     S
C682   C683    1.394   .     A
C683   C684    1.400   .     A
C684   H689    1.082   .     S
H687   C526    1.083   1_655 S
H688   C527    1.081   1_655 S
C690   C691    1.400   .     A
C690   C695    1.398   .     A
C691   H696    1.049   .     S
C691   C692    1.394   .     A
C692   H697    1.083   .     S
C692   C537    1.389   1_655 S
C693   H698    1.082   .     S
C693   C694    1.397   .     A
C694   H699    1.075   .     S
C695   H700    1.072   .     S
C695   C538    1.396   1_655 S
O703   C707    1.320   .     A
O703   Cu715   1.994   .     S
O704   C708    1.325   .     A
O704   Cu716   1.994   .     S
O705   Cu716   1.983   .     S
O705   C707    1.311   .     A
O706   Cu715   1.983   .     S
O706   C708    1.311   .     A
C707   C728    1.473   .     S
C708   C727    1.483   .     S
O709   C713    1.312   .     A
O709   Cu715   1.998   .     S
O710   C714    1.311   .     A
O710   Cu716   1.998   .     S
O711   Cu716   1.985   .     S
O711   C713    1.308   .     A
O712   C714    1.309   .     A
O712   Cu715   1.985   .     S
C713   C719    1.450   .     S
C714   C720    1.449   .     S
Cu715  Cu716   2.743   .     S
Cu715  N717    2.061   .     S
Cu716  N718    2.061   .     S
N717   C731    1.353   .     A
N717   C730    1.399   .     A
N718   C732    1.361   .     A
N718   C729    1.408   .     A
C719   C876    1.331   1_455 S
C719   H889    1.087   1_455 S
C720   C797    1.331   .     S
C720   H812    1.084   .     S
C721   H723    1.074   .     S
C721   C728    1.394   .     A
C721   C1193   1.390   1_545 S
C722   C727    1.399   .     A
C722   H724    1.070   .     S
C722   C960    1.391   .     S
C725   C735    1.452   .     S
C725   C727    1.403   .     A
C725   C955    1.390   .     S
C726   C728    1.405   .     A
C726   C746    1.467   .     S
C726   C1190   1.391   1_545 S
C729   C757    1.490   .     S
C730   C768    1.487   .     S
C730   C1434   1.432   .     S
C731   H779    1.083   .     S
C731   C1431   1.427   .     S
C732   H780    1.083   .     S
H733   C797    1.087   .     S
H734   C876    1.084   1_455 S
C735   C736    1.391   .     A
C735   C740    1.401   .     A
C736   C737    1.382   .     A
C736   H741    1.083   .     S
C738   H743    1.076   .     S
C738   C1439   1.392   .     S
C738   C1441   1.399   .     S
C739   H744    1.077   .     S
C739   C740    1.391   .     A
C740   H745    1.084   .     S
H742   C1439   1.064   .     S
C746   C751    1.398   .     A
C746   C747    1.407   .     A
C747   C748    1.390   .     A
C747   H752    1.084   .     S
C748   H753    1.081   .     S
C748   C749    1.393   .     A
C749   C750    1.384   .     A
C749   H1456   1.063   .     S
C750   C751    1.392   .     A
C750   H1457   1.078   .     S
C751   H756    1.082   .     S
C757   C758    1.404   .     A
C757   C762    1.398   .     A
C758   C759    1.398   .     A
C758   H763    1.065   .     S
C759   C760    1.391   .     A
C759   H764    1.080   .     S
C760   C761    1.394   .     A
C760   H921    1.083   1_455 S
C761   C762    1.400   .     A
C761   H922    1.081   1_455 S
C762   H767    1.082   .     S
H765   C838    1.083   .     S
H766   C839    1.081   .     S
C768   C769    1.400   .     A
C768   C773    1.398   .     A
C769   H774    1.049   .     S
C769   C770    1.394   .     A
C770   H775    1.083   .     S
C770   C849    1.389   .     S
C771   H776    1.082   .     S
C771   C772    1.397   .     A
C771   C926    1.389   1_455 S
C772   H777    1.075   .     S
C772   C929    1.396   1_455 S
C773   H778    1.072   .     S
C773   C850    1.396   .     S
O781   C785    1.320   .     A
O781   Cu793   1.994   .     S
O782   C786    1.325   .     A
O782   Cu794   1.994   .     S
O783   Cu794   1.983   .     S
O783   C785    1.311   .     A
O784   Cu793   1.983   .     S
O784   C786    1.311   .     A
C785   C806    1.473   .     S
C786   C805    1.483   .     S
O787   C791    1.312   .     A
O787   Cu793   1.998   .     S
O788   C792    1.311   .     A
O788   Cu794   1.998   .     S
O789   Cu794   1.985   .     S
O789   C791    1.308   .     A
O790   C792    1.309   .     A
O790   Cu793   1.985   .     S
C791   C797    1.450   .     S
C792   C798    1.449   .     S
Cu793  Cu794   2.743   .     S
Cu793  N795    2.061   .     S
Cu794  N796    2.061   .     S
N795   C809    1.353   .     A
N795   C808    1.399   .     A
N796   C810    1.361   .     A
N796   C807    1.408   .     A
C798   C875    1.331   .     S
C798   H890    1.084   .     S
C799   H801    1.074   .     S
C799   C806    1.394   .     A
C799   C1271   1.390   1_545 S
C800   C805    1.399   .     A
C800   H802    1.070   .     S
C800   C1038   1.391   .     S
C803   C813    1.452   .     S
C803   C805    1.403   .     A
C803   C1033   1.390   .     S
C804   C806    1.405   .     A
C804   C824    1.467   .     S
C804   C1268   1.391   1_545 S
C807   C835    1.490   .     S
C808   C846    1.487   .     S
C808   C1512   1.432   .     S
C809   H857    1.083   .     S
C809   C1509   1.427   .     S
C810   H858    1.083   .     S
H811   C875    1.087   .     S
C813   C814    1.391   .     A
C813   C818    1.401   .     A
C814   C815    1.382   .     A
C814   H819    1.083   .     S
C816   H821    1.076   .     S
C816   C1517   1.392   .     S
C816   C1519   1.399   .     S
C817   H822    1.077   .     S
C817   C818    1.391   .     A
C818   H823    1.084   .     S
H820   C1517   1.064   .     S
C824   C829    1.398   .     A
C824   C825    1.407   .     A
C825   C826    1.390   .     A
C825   H830    1.084   .     S
C826   H831    1.081   .     S
C826   C827    1.393   .     A
C827   C828    1.384   .     A
C827   H1534   1.063   .     S
C828   C829    1.392   .     A
C828   H1535   1.078   .     S
C829   H834    1.082   .     S
C835   C836    1.404   .     A
C835   C840    1.398   .     A
C836   C837    1.398   .     A
C836   H841    1.065   .     S
C837   C838    1.391   .     A
C837   H842    1.080   .     S
C838   C839    1.394   .     A
C839   C840    1.400   .     A
C840   H845    1.082   .     S
H843   C916    1.083   .     S
H844   C917    1.081   .     S
C846   C847    1.400   .     A
C846   C851    1.398   .     A
C847   H852    1.049   .     S
C847   C848    1.394   .     A
C848   H853    1.083   .     S
C848   C927    1.389   .     S
C849   H854    1.082   .     S
C849   C850    1.397   .     A
C850   H855    1.075   .     S
C851   H856    1.072   .     S
C851   C928    1.396   .     S
O859   C863    1.320   .     A
O859   Cu871   1.994   .     S
O860   C864    1.325   .     A
O860   Cu872   1.994   .     S
O861   Cu872   1.983   .     S
O861   C863    1.311   .     A
O862   Cu871   1.983   .     S
O862   C864    1.311   .     A
C863   C884    1.473   .     S
C864   C883    1.483   .     S
O865   C869    1.312   .     A
O865   Cu871   1.998   .     S
O866   C870    1.311   .     A
O866   Cu872   1.998   .     S
O867   Cu872   1.985   .     S
O867   C869    1.308   .     A
O868   C870    1.309   .     A
O868   Cu871   1.985   .     S
C869   C875    1.450   .     S
C870   C876    1.449   .     S
Cu871  Cu872   2.743   .     S
Cu871  N873    2.061   .     S
Cu872  N874    2.061   .     S
N873   C887    1.353   .     A
N873   C886    1.399   .     A
N874   C888    1.361   .     A
N874   C885    1.408   .     A
C876   C719    1.331   1_655 S
C876   H734    1.084   1_655 S
C877   H879    1.074   .     S
C877   C884    1.394   .     A
C877   C1349   1.390   1_545 S
C878   C883    1.399   .     A
C878   H880    1.070   .     S
C878   C1116   1.391   .     S
C881   C891    1.452   .     S
C881   C883    1.403   .     A
C881   C1111   1.390   .     S
C882   C884    1.405   .     A
C882   C902    1.467   .     S
C882   C1346   1.391   1_545 S
C885   C913    1.490   .     S
C886   C924    1.487   .     S
C886   C1590   1.432   .     S
C887   H935    1.083   .     S
C887   C1587   1.427   .     S
C888   H936    1.083   .     S
H889   C719    1.087   1_655 S
C891   C892    1.391   .     A
C891   C896    1.401   .     A
C892   C893    1.382   .     A
C892   H897    1.083   .     S
C894   H899    1.076   .     S
C894   C1595   1.392   .     S
C894   C1597   1.399   .     S
C895   H900    1.077   .     S
C895   C896    1.391   .     A
C896   H901    1.084   .     S
H898   C1595   1.064   .     S
C902   C907    1.398   .     A
C902   C903    1.407   .     A
C903   C904    1.390   .     A
C903   H908    1.084   .     S
C904   H909    1.081   .     S
C904   C905    1.393   .     A
C905   C906    1.384   .     A
C905   H1612   1.063   .     S
C906   C907    1.392   .     A
C906   H1613   1.078   .     S
C907   H912    1.082   .     S
C913   C914    1.404   .     A
C913   C918    1.398   .     A
C914   C915    1.398   .     A
C914   H919    1.065   .     S
C915   C916    1.391   .     A
C915   H920    1.080   .     S
C916   C917    1.394   .     A
C917   C918    1.400   .     A
C918   H923    1.082   .     S
H921   C760    1.083   1_655 S
H922   C761    1.081   1_655 S
C924   C925    1.400   .     A
C924   C929    1.398   .     A
C925   H930    1.049   .     S
C925   C926    1.394   .     A
C926   H931    1.083   .     S
C926   C771    1.389   1_655 S
C927   H932    1.082   .     S
C927   C928    1.397   .     A
C928   H933    1.075   .     S
C929   H934    1.072   .     S
C929   C772    1.396   1_655 S
O937   C941    1.320   .     A
O937   Cu949   1.994   .     S
O938   C942    1.325   .     A
O938   Cu950   1.994   .     S
O939   Cu950   1.983   .     S
O939   C941    1.311   .     A
O940   Cu949   1.983   .     S
O940   C942    1.311   .     A
C941   C962    1.473   .     S
C942   C961    1.483   .     S
O943   C947    1.312   .     A
O943   Cu949   1.998   .     S
O944   C948    1.311   .     A
O944   Cu950   1.998   .     S
O945   Cu950   1.985   .     S
O945   C947    1.308   .     A
O946   C948    1.309   .     A
O946   Cu949   1.985   .     S
C947   C953    1.450   .     S
C948   C954    1.449   .     S
Cu949  Cu950   2.743   .     S
Cu949  N951    2.061   .     S
Cu950  N952    2.061   .     S
N951   C965    1.353   .     A
N951   C964    1.399   .     A
N952   C966    1.361   .     A
N952   C963    1.408   .     A
C953   C1110   1.331   1_455 S
C953   H1123   1.087   1_455 S
C954   C1031   1.331   .     S
C954   H1046   1.084   .     S
C955   H957    1.074   .     S
C955   C962    1.394   .     A
C956   C961    1.399   .     A
C956   H958    1.070   .     S
C956   C1194   1.391   .     S
C959   C969    1.452   .     S
C959   C961    1.403   .     A
C959   C1189   1.390   .     S
C960   C962    1.405   .     A
C960   C980    1.467   .     S
C963   C991    1.490   .     S
C964   C1002   1.487   .     S
C964   C1668   1.432   .     S
C965   H1013   1.083   .     S
C965   C1665   1.427   .     S
C966   H1014   1.083   .     S
H967   C1031   1.087   .     S
H968   C1110   1.084   1_455 S
C969   C970    1.391   .     A
C969   C974    1.401   .     A
C970   C971    1.382   .     A
C970   H975    1.083   .     S
C972   H977    1.076   .     S
C972   C1673   1.392   .     S
C972   C1675   1.399   .     S
C973   H978    1.077   .     S
C973   C974    1.391   .     A
C974   H979    1.084   .     S
H976   C1673   1.064   .     S
C980   C985    1.398   .     A
C980   C981    1.407   .     A
C981   C982    1.390   .     A
C981   H986    1.084   .     S
C982   H987    1.081   .     S
C982   C983    1.393   .     A
C983   C984    1.384   .     A
C983   H1690   1.063   .     S
C984   C985    1.392   .     A
C984   H1691   1.078   .     S
C985   H990    1.082   .     S
C991   C992    1.404   .     A
C991   C996    1.398   .     A
C992   C993    1.398   .     A
C992   H997    1.065   .     S
C993   C994    1.391   .     A
C993   H998    1.080   .     S
C994   C995    1.394   .     A
C994   H1155   1.083   1_455 S
C995   C996    1.400   .     A
C995   H1156   1.081   1_455 S
C996   H1001   1.082   .     S
H999   C1072   1.083   .     S
H1000  C1073   1.081   .     S
C1002  C1003   1.400   .     A
C1002  C1007   1.398   .     A
C1003  H1008   1.049   .     S
C1003  C1004   1.394   .     A
C1004  H1009   1.083   .     S
C1004  C1083   1.389   .     S
C1005  H1010   1.082   .     S
C1005  C1006   1.397   .     A
C1005  C1160   1.389   1_455 S
C1006  H1011   1.075   .     S
C1006  C1163   1.396   1_455 S
C1007  H1012   1.072   .     S
C1007  C1084   1.396   .     S
O1015  C1019   1.320   .     A
O1015  Cu1027  1.994   .     S
O1016  C1020   1.325   .     A
O1016  Cu1028  1.994   .     S
O1017  Cu1028  1.983   .     S
O1017  C1019   1.311   .     A
O1018  Cu1027  1.983   .     S
O1018  C1020   1.311   .     A
C1019  C1040   1.473   .     S
C1020  C1039   1.483   .     S
O1021  C1025   1.312   .     A
O1021  Cu1027  1.998   .     S
O1022  C1026   1.311   .     A
O1022  Cu1028  1.998   .     S
O1023  Cu1028  1.985   .     S
O1023  C1025   1.308   .     A
O1024  C1026   1.309   .     A
O1024  Cu1027  1.985   .     S
C1025  C1031   1.450   .     S
C1026  C1032   1.449   .     S
Cu1027 Cu1028  2.743   .     S
Cu1027 N1029   2.061   .     S
Cu1028 N1030   2.061   .     S
N1029  C1043   1.353   .     A
N1029  C1042   1.399   .     A
N1030  C1044   1.361   .     A
N1030  C1041   1.408   .     A
C1032  C1109   1.331   .     S
C1032  H1124   1.084   .     S
C1033  H1035   1.074   .     S
C1033  C1040   1.394   .     A
C1034  C1039   1.399   .     A
C1034  H1036   1.070   .     S
C1034  C1272   1.391   .     S
C1037  C1047   1.452   .     S
C1037  C1039   1.403   .     A
C1037  C1267   1.390   .     S
C1038  C1040   1.405   .     A
C1038  C1058   1.467   .     S
C1041  C1069   1.490   .     S
C1042  C1080   1.487   .     S
C1042  C1746   1.432   .     S
C1043  H1091   1.083   .     S
C1043  C1743   1.427   .     S
C1044  H1092   1.083   .     S
H1045  C1109   1.087   .     S
C1047  C1048   1.391   .     A
C1047  C1052   1.401   .     A
C1048  C1049   1.382   .     A
C1048  H1053   1.083   .     S
C1050  H1055   1.076   .     S
C1050  C1751   1.392   .     S
C1050  C1753   1.399   .     S
C1051  H1056   1.077   .     S
C1051  C1052   1.391   .     A
C1052  H1057   1.084   .     S
H1054  C1751   1.064   .     S
C1058  C1063   1.398   .     A
C1058  C1059   1.407   .     A
C1059  C1060   1.390   .     A
C1059  H1064   1.084   .     S
C1060  H1065   1.081   .     S
C1060  C1061   1.393   .     A
C1061  C1062   1.384   .     A
C1061  H1768   1.063   .     S
C1062  C1063   1.392   .     A
C1062  H1769   1.078   .     S
C1063  H1068   1.082   .     S
C1069  C1070   1.404   .     A
C1069  C1074   1.398   .     A
C1070  C1071   1.398   .     A
C1070  H1075   1.065   .     S
C1071  C1072   1.391   .     A
C1071  H1076   1.080   .     S
C1072  C1073   1.394   .     A
C1073  C1074   1.400   .     A
C1074  H1079   1.082   .     S
H1077  C1150   1.083   .     S
H1078  C1151   1.081   .     S
C1080  C1081   1.400   .     A
C1080  C1085   1.398   .     A
C1081  H1086   1.049   .     S
C1081  C1082   1.394   .     A
C1082  H1087   1.083   .     S
C1082  C1161   1.389   .     S
C1083  H1088   1.082   .     S
C1083  C1084   1.397   .     A
C1084  H1089   1.075   .     S
C1085  H1090   1.072   .     S
C1085  C1162   1.396   .     S
O1093  C1097   1.320   .     A
O1093  Cu1105  1.994   .     S
O1094  C1098   1.325   .     A
O1094  Cu1106  1.994   .     S
O1095  Cu1106  1.983   .     S
O1095  C1097   1.311   .     A
O1096  Cu1105  1.983   .     S
O1096  C1098   1.311   .     A
C1097  C1118   1.473   .     S
C1098  C1117   1.483   .     S
O1099  C1103   1.312   .     A
O1099  Cu1105  1.998   .     S
O1100  C1104   1.311   .     A
O1100  Cu1106  1.998   .     S
O1101  Cu1106  1.985   .     S
O1101  C1103   1.308   .     A
O1102  C1104   1.309   .     A
O1102  Cu1105  1.985   .     S
C1103  C1109   1.450   .     S
C1104  C1110   1.449   .     S
Cu1105 Cu1106  2.743   .     S
Cu1105 N1107   2.061   .     S
Cu1106 N1108   2.061   .     S
N1107  C1121   1.353   .     A
N1107  C1120   1.399   .     A
N1108  C1122   1.361   .     A
N1108  C1119   1.408   .     A
C1110  C953    1.331   1_655 S
C1110  H968    1.084   1_655 S
C1111  H1113   1.074   .     S
C1111  C1118   1.394   .     A
C1112  C1117   1.399   .     A
C1112  H1114   1.070   .     S
C1112  C1350   1.391   .     S
C1115  C1125   1.452   .     S
C1115  C1117   1.403   .     A
C1115  C1345   1.390   .     S
C1116  C1118   1.405   .     A
C1116  C1136   1.467   .     S
C1119  C1147   1.490   .     S
C1120  C1158   1.487   .     S
C1120  C1824   1.432   .     S
C1121  H1169   1.083   .     S
C1121  C1821   1.427   .     S
C1122  H1170   1.083   .     S
H1123  C953    1.087   1_655 S
C1125  C1126   1.391   .     A
C1125  C1130   1.401   .     A
C1126  C1127   1.382   .     A
C1126  H1131   1.083   .     S
C1128  H1133   1.076   .     S
C1128  C1829   1.392   .     S
C1128  C1831   1.399   .     S
C1129  H1134   1.077   .     S
C1129  C1130   1.391   .     A
C1130  H1135   1.084   .     S
H1132  C1829   1.064   .     S
C1136  C1141   1.398   .     A
C1136  C1137   1.407   .     A
C1137  C1138   1.390   .     A
C1137  H1142   1.084   .     S
C1138  H1143   1.081   .     S
C1138  C1139   1.393   .     A
C1139  C1140   1.384   .     A
C1139  H1846   1.063   .     S
C1140  C1141   1.392   .     A
C1140  H1847   1.078   .     S
C1141  H1146   1.082   .     S
C1147  C1148   1.404   .     A
C1147  C1152   1.398   .     A
C1148  C1149   1.398   .     A
C1148  H1153   1.065   .     S
C1149  C1150   1.391   .     A
C1149  H1154   1.080   .     S
C1150  C1151   1.394   .     A
C1151  C1152   1.400   .     A
C1152  H1157   1.082   .     S
H1155  C994    1.083   1_655 S
H1156  C995    1.081   1_655 S
C1158  C1159   1.400   .     A
C1158  C1163   1.398   .     A
C1159  H1164   1.049   .     S
C1159  C1160   1.394   .     A
C1160  H1165   1.083   .     S
C1160  C1005   1.389   1_655 S
C1161  H1166   1.082   .     S
C1161  C1162   1.397   .     A
C1162  H1167   1.075   .     S
C1163  H1168   1.072   .     S
C1163  C1006   1.396   1_655 S
O1171  C1175   1.320   .     A
O1171  Cu1183  1.994   .     S
O1172  C1176   1.325   .     A
O1172  Cu1184  1.994   .     S
O1173  Cu1184  1.983   .     S
O1173  C1175   1.311   .     A
O1174  Cu1183  1.983   .     S
O1174  C1176   1.311   .     A
C1175  C1196   1.473   .     S
C1176  C1195   1.483   .     S
O1177  C1181   1.312   .     A
O1177  Cu1183  1.998   .     S
O1178  C1182   1.311   .     A
O1178  Cu1184  1.998   .     S
O1179  Cu1184  1.985   .     S
O1179  C1181   1.308   .     A
O1180  C1182   1.309   .     A
O1180  Cu1183  1.985   .     S
C1181  C1187   1.450   .     S
C1182  C1188   1.449   .     S
Cu1183 Cu1184  2.743   .     S
Cu1183 N1185   2.061   .     S
Cu1184 N1186   2.061   .     S
N1185  C1199   1.353   .     A
N1185  C1198   1.399   .     A
N1186  C1200   1.361   .     A
N1186  C1197   1.408   .     A
C1187  C1344   1.331   1_455 S
C1187  H1357   1.087   1_455 S
C1188  C1265   1.331   .     S
C1188  H1280   1.084   .     S
C1189  H1191   1.074   .     S
C1189  C1196   1.394   .     A
C1190  C1195   1.399   .     A
C1190  H1192   1.070   .     S
C1190  C726    1.391   1_565 S
C1193  C1203   1.452   .     S
C1193  C1195   1.403   .     A
C1193  C721    1.390   1_565 S
C1194  C1196   1.405   .     A
C1194  C1214   1.467   .     S
C1197  C1225   1.490   .     S
C1198  C1236   1.487   .     S
C1198  C1902   1.432   .     S
C1199  H1247   1.083   .     S
C1199  C1899   1.427   .     S
C1200  H1248   1.083   .     S
H1201  C1265   1.087   .     S
H1202  C1344   1.084   1_455 S
C1203  C1204   1.391   .     A
C1203  C1208   1.401   .     A
C1204  C1205   1.382   .     A
C1204  H1209   1.083   .     S
C1206  H1211   1.076   .     S
C1206  C1907   1.392   .     S
C1206  C1909   1.399   .     S
C1207  H1212   1.077   .     S
C1207  C1208   1.391   .     A
C1208  H1213   1.084   .     S
H1210  C1907   1.064   .     S
C1214  C1219   1.398   .     A
C1214  C1215   1.407   .     A
C1215  C1216   1.390   .     A
C1215  H1220   1.084   .     S
C1216  H1221   1.081   .     S
C1216  C1217   1.393   .     A
C1217  C1218   1.384   .     A
C1217  H1924   1.063   .     S
C1218  C1219   1.392   .     A
C1218  H1925   1.078   .     S
C1219  H1224   1.082   .     S
C1225  C1226   1.404   .     A
C1225  C1230   1.398   .     A
C1226  C1227   1.398   .     A
C1226  H1231   1.065   .     S
C1227  C1228   1.391   .     A
C1227  H1232   1.080   .     S
C1228  C1229   1.394   .     A
C1228  H1389   1.083   1_455 S
C1229  C1230   1.400   .     A
C1229  H1390   1.081   1_455 S
C1230  H1235   1.082   .     S
H1233  C1306   1.083   .     S
H1234  C1307   1.081   .     S
C1236  C1237   1.400   .     A
C1236  C1241   1.398   .     A
C1237  H1242   1.049   .     S
C1237  C1238   1.394   .     A
C1238  H1243   1.083   .     S
C1238  C1317   1.389   .     S
C1239  H1244   1.082   .     S
C1239  C1240   1.397   .     A
C1239  C1394   1.389   1_455 S
C1240  H1245   1.075   .     S
C1240  C1397   1.396   1_455 S
C1241  H1246   1.072   .     S
C1241  C1318   1.396   .     S
O1249  C1253   1.320   .     A
O1249  Cu1261  1.994   .     S
O1250  C1254   1.325   .     A
O1250  Cu1262  1.994   .     S
O1251  Cu1262  1.983   .     S
O1251  C1253   1.311   .     A
O1252  Cu1261  1.983   .     S
O1252  C1254   1.311   .     A
C1253  C1274   1.473   .     S
C1254  C1273   1.483   .     S
O1255  C1259   1.312   .     A
O1255  Cu1261  1.998   .     S
O1256  C1260   1.311   .     A
O1256  Cu1262  1.998   .     S
O1257  Cu1262  1.985   .     S
O1257  C1259   1.308   .     A
O1258  C1260   1.309   .     A
O1258  Cu1261  1.985   .     S
C1259  C1265   1.450   .     S
C1260  C1266   1.449   .     S
Cu1261 Cu1262  2.743   .     S
Cu1261 N1263   2.061   .     S
Cu1262 N1264   2.061   .     S
N1263  C1277   1.353   .     A
N1263  C1276   1.399   .     A
N1264  C1278   1.361   .     A
N1264  C1275   1.408   .     A
C1266  C1343   1.331   .     S
C1266  H1358   1.084   .     S
C1267  H1269   1.074   .     S
C1267  C1274   1.394   .     A
C1268  C1273   1.399   .     A
C1268  H1270   1.070   .     S
C1268  C804    1.391   1_565 S
C1271  C1281   1.452   .     S
C1271  C1273   1.403   .     A
C1271  C799    1.390   1_565 S
C1272  C1274   1.405   .     A
C1272  C1292   1.467   .     S
C1275  C1303   1.490   .     S
C1276  C1314   1.487   .     S
C1276  C1980   1.432   .     S
C1277  H1325   1.083   .     S
C1277  C1977   1.427   .     S
C1278  H1326   1.083   .     S
H1279  C1343   1.087   .     S
C1281  C1282   1.391   .     A
C1281  C1286   1.401   .     A
C1282  C1283   1.382   .     A
C1282  H1287   1.083   .     S
C1284  H1289   1.076   .     S
C1284  C1985   1.392   .     S
C1284  C1987   1.399   .     S
C1285  H1290   1.077   .     S
C1285  C1286   1.391   .     A
C1286  H1291   1.084   .     S
H1288  C1985   1.064   .     S
C1292  C1297   1.398   .     A
C1292  C1293   1.407   .     A
C1293  C1294   1.390   .     A
C1293  H1298   1.084   .     S
C1294  H1299   1.081   .     S
C1294  C1295   1.393   .     A
C1295  C1296   1.384   .     A
C1295  H2002   1.063   .     S
C1296  C1297   1.392   .     A
C1296  H2003   1.078   .     S
C1297  H1302   1.082   .     S
C1303  C1304   1.404   .     A
C1303  C1308   1.398   .     A
C1304  C1305   1.398   .     A
C1304  H1309   1.065   .     S
C1305  C1306   1.391   .     A
C1305  H1310   1.080   .     S
C1306  C1307   1.394   .     A
C1307  C1308   1.400   .     A
C1308  H1313   1.082   .     S
H1311  C1384   1.083   .     S
H1312  C1385   1.081   .     S
C1314  C1315   1.400   .     A
C1314  C1319   1.398   .     A
C1315  H1320   1.049   .     S
C1315  C1316   1.394   .     A
C1316  H1321   1.083   .     S
C1316  C1395   1.389   .     S
C1317  H1322   1.082   .     S
C1317  C1318   1.397   .     A
C1318  H1323   1.075   .     S
C1319  H1324   1.072   .     S
C1319  C1396   1.396   .     S
O1327  C1331   1.320   .     A
O1327  Cu1339  1.994   .     S
O1328  C1332   1.325   .     A
O1328  Cu1340  1.994   .     S
O1329  Cu1340  1.983   .     S
O1329  C1331   1.311   .     A
O1330  Cu1339  1.983   .     S
O1330  C1332   1.311   .     A
C1331  C1352   1.473   .     S
C1332  C1351   1.483   .     S
O1333  C1337   1.312   .     A
O1333  Cu1339  1.998   .     S
O1334  C1338   1.311   .     A
O1334  Cu1340  1.998   .     S
O1335  Cu1340  1.985   .     S
O1335  C1337   1.308   .     A
O1336  C1338   1.309   .     A
O1336  Cu1339  1.985   .     S
C1337  C1343   1.450   .     S
C1338  C1344   1.449   .     S
Cu1339 Cu1340  2.743   .     S
Cu1339 N1341   2.061   .     S
Cu1340 N1342   2.061   .     S
N1341  C1355   1.353   .     A
N1341  C1354   1.399   .     A
N1342  C1356   1.361   .     A
N1342  C1353   1.408   .     A
C1344  C1187   1.331   1_655 S
C1344  H1202   1.084   1_655 S
C1345  H1347   1.074   .     S
C1345  C1352   1.394   .     A
C1346  C1351   1.399   .     A
C1346  H1348   1.070   .     S
C1346  C882    1.391   1_565 S
C1349  C1359   1.452   .     S
C1349  C1351   1.403   .     A
C1349  C877    1.390   1_565 S
C1350  C1352   1.405   .     A
C1350  C1370   1.467   .     S
C1353  C1381   1.490   .     S
C1354  C1392   1.487   .     S
C1354  C2058   1.432   .     S
C1355  H1403   1.083   .     S
C1355  C2055   1.427   .     S
C1356  H1404   1.083   .     S
H1357  C1187   1.087   1_655 S
C1359  C1360   1.391   .     A
C1359  C1364   1.401   .     A
C1360  C1361   1.382   .     A
C1360  H1365   1.083   .     S
C1362  H1367   1.076   .     S
C1362  C2063   1.392   .     S
C1362  C2065   1.399   .     S
C1363  H1368   1.077   .     S
C1363  C1364   1.391   .     A
C1364  H1369   1.084   .     S
H1366  C2063   1.064   .     S
C1370  C1375   1.398   .     A
C1370  C1371   1.407   .     A
C1371  C1372   1.390   .     A
C1371  H1376   1.084   .     S
C1372  H1377   1.081   .     S
C1372  C1373   1.393   .     A
C1373  C1374   1.384   .     A
C1373  H2080   1.063   .     S
C1374  C1375   1.392   .     A
C1374  H2081   1.078   .     S
C1375  H1380   1.082   .     S
C1381  C1382   1.404   .     A
C1381  C1386   1.398   .     A
C1382  C1383   1.398   .     A
C1382  H1387   1.065   .     S
C1383  C1384   1.391   .     A
C1383  H1388   1.080   .     S
C1384  C1385   1.394   .     A
C1385  C1386   1.400   .     A
C1386  H1391   1.082   .     S
H1389  C1228   1.083   1_655 S
H1390  C1229   1.081   1_655 S
C1392  C1393   1.400   .     A
C1392  C1397   1.398   .     A
C1393  H1398   1.049   .     S
C1393  C1394   1.394   .     A
C1394  H1399   1.083   .     S
C1394  C1239   1.389   1_655 S
C1395  H1400   1.082   .     S
C1395  C1396   1.397   .     A
C1396  H1401   1.075   .     S
C1397  H1402   1.072   .     S
C1397  C1240   1.396   1_655 S
O1405  C1409   1.320   .     A
O1405  Cu1417  1.994   .     S
O1406  C1410   1.325   .     A
O1406  Cu1418  1.994   .     S
O1407  Cu1418  1.983   .     S
O1407  C1409   1.311   .     A
O1408  Cu1417  1.983   .     S
O1408  C1410   1.311   .     A
C1409  C1430   1.473   .     S
C1410  C1429   1.483   .     S
O1411  C1415   1.312   .     A
O1411  Cu1417  1.998   .     S
O1412  C1416   1.311   .     A
O1412  Cu1418  1.998   .     S
O1413  Cu1418  1.985   .     S
O1413  C1415   1.308   .     A
O1414  C1416   1.309   .     A
O1414  Cu1417  1.985   .     S
C1415  C1421   1.450   .     S
C1416  C1422   1.449   .     S
Cu1417 Cu1418  2.743   .     S
Cu1417 N1419   2.061   .     S
Cu1418 N1420   2.061   .     S
N1419  C1433   1.353   .     A
N1419  C1432   1.399   .     A
N1420  C1434   1.361   .     A
N1420  C1431   1.408   .     A
C1421  C1578   1.331   1_455 S
C1421  H1591   1.087   1_455 S
C1422  C1499   1.331   .     S
C1422  H1514   1.084   .     S
C1423  H1425   1.074   .     S
C1423  C1430   1.394   .     A
C1423  C1895   1.390   1_545 S
C1424  C1429   1.399   .     A
C1424  H1426   1.070   .     S
C1424  C1662   1.391   .     S
C1427  C1437   1.452   .     S
C1427  C1429   1.403   .     A
C1427  C1657   1.390   .     S
C1428  C1430   1.405   .     A
C1428  C1448   1.467   .     S
C1428  C1892   1.391   1_545 S
C1431  C1459   1.490   .     S
C1432  C1470   1.487   .     S
C1432  C30     1.432   1_556 S
C1433  H1481   1.083   .     S
C1433  C27     1.427   1_556 S
C1434  H1482   1.083   .     S
H1435  C1499   1.087   .     S
H1436  C1578   1.084   1_455 S
C1437  C1438   1.391   .     A
C1437  C1442   1.401   .     A
C1438  C1439   1.382   .     A
C1438  H1443   1.083   .     S
C1440  H1445   1.076   .     S
C1440  C35     1.392   1_556 S
C1440  C37     1.399   1_556 S
C1441  H1446   1.077   .     S
C1441  C1442   1.391   .     A
C1442  H1447   1.084   .     S
H1444  C35     1.064   1_556 S
C1448  C1453   1.398   .     A
C1448  C1449   1.407   .     A
C1449  C1450   1.390   .     A
C1449  H1454   1.084   .     S
C1450  H1455   1.081   .     S
C1450  C1451   1.393   .     A
C1451  C1452   1.384   .     A
C1451  H52     1.063   1_556 S
C1452  C1453   1.392   .     A
C1452  H53     1.078   1_556 S
C1453  H1458   1.082   .     S
C1459  C1460   1.404   .     A
C1459  C1464   1.398   .     A
C1460  C1461   1.398   .     A
C1460  H1465   1.065   .     S
C1461  C1462   1.391   .     A
C1461  H1466   1.080   .     S
C1462  C1463   1.394   .     A
C1462  H1623   1.083   1_455 S
C1463  C1464   1.400   .     A
C1463  H1624   1.081   1_455 S
C1464  H1469   1.082   .     S
H1467  C1540   1.083   .     S
H1468  C1541   1.081   .     S
C1470  C1471   1.400   .     A
C1470  C1475   1.398   .     A
C1471  H1476   1.049   .     S
C1471  C1472   1.394   .     A
C1472  H1477   1.083   .     S
C1472  C1551   1.389   .     S
C1473  H1478   1.082   .     S
C1473  C1474   1.397   .     A
C1473  C1628   1.389   1_455 S
C1474  H1479   1.075   .     S
C1474  C1631   1.396   1_455 S
C1475  H1480   1.072   .     S
C1475  C1552   1.396   .     S
O1483  C1487   1.320   .     A
O1483  Cu1495  1.994   .     S
O1484  C1488   1.325   .     A
O1484  Cu1496  1.994   .     S
O1485  Cu1496  1.983   .     S
O1485  C1487   1.311   .     A
O1486  Cu1495  1.983   .     S
O1486  C1488   1.311   .     A
C1487  C1508   1.473   .     S
C1488  C1507   1.483   .     S
O1489  C1493   1.312   .     A
O1489  Cu1495  1.998   .     S
O1490  C1494   1.311   .     A
O1490  Cu1496  1.998   .     S
O1491  Cu1496  1.985   .     S
O1491  C1493   1.308   .     A
O1492  C1494   1.309   .     A
O1492  Cu1495  1.985   .     S
C1493  C1499   1.450   .     S
C1494  C1500   1.449   .     S
Cu1495 Cu1496  2.743   .     S
Cu1495 N1497   2.061   .     S
Cu1496 N1498   2.061   .     S
N1497  C1511   1.353   .     A
N1497  C1510   1.399   .     A
N1498  C1512   1.361   .     A
N1498  C1509   1.408   .     A
C1500  C1577   1.331   .     S
C1500  H1592   1.084   .     S
C1501  H1503   1.074   .     S
C1501  C1508   1.394   .     A
C1501  C1973   1.390   1_545 S
C1502  C1507   1.399   .     A
C1502  H1504   1.070   .     S
C1502  C1740   1.391   .     S
C1505  C1515   1.452   .     S
C1505  C1507   1.403   .     A
C1505  C1735   1.390   .     S
C1506  C1508   1.405   .     A
C1506  C1526   1.467   .     S
C1506  C1970   1.391   1_545 S
C1509  C1537   1.490   .     S
C1510  C1548   1.487   .     S
C1510  C108    1.432   1_556 S
C1511  H1559   1.083   .     S
C1511  C105    1.427   1_556 S
C1512  H1560   1.083   .     S
H1513  C1577   1.087   .     S
C1515  C1516   1.391   .     A
C1515  C1520   1.401   .     A
C1516  C1517   1.382   .     A
C1516  H1521   1.083   .     S
C1518  H1523   1.076   .     S
C1518  C113    1.392   1_556 S
C1518  C115    1.399   1_556 S
C1519  H1524   1.077   .     S
C1519  C1520   1.391   .     A
C1520  H1525   1.084   .     S
H1522  C113    1.064   1_556 S
C1526  C1531   1.398   .     A
C1526  C1527   1.407   .     A
C1527  C1528   1.390   .     A
C1527  H1532   1.084   .     S
C1528  H1533   1.081   .     S
C1528  C1529   1.393   .     A
C1529  C1530   1.384   .     A
C1529  H130    1.063   1_556 S
C1530  C1531   1.392   .     A
C1530  H131    1.078   1_556 S
C1531  H1536   1.082   .     S
C1537  C1538   1.404   .     A
C1537  C1542   1.398   .     A
C1538  C1539   1.398   .     A
C1538  H1543   1.065   .     S
C1539  C1540   1.391   .     A
C1539  H1544   1.080   .     S
C1540  C1541   1.394   .     A
C1541  C1542   1.400   .     A
C1542  H1547   1.082   .     S
H1545  C1618   1.083   .     S
H1546  C1619   1.081   .     S
C1548  C1549   1.400   .     A
C1548  C1553   1.398   .     A
C1549  H1554   1.049   .     S
C1549  C1550   1.394   .     A
C1550  H1555   1.083   .     S
C1550  C1629   1.389   .     S
C1551  H1556   1.082   .     S
C1551  C1552   1.397   .     A
C1552  H1557   1.075   .     S
C1553  H1558   1.072   .     S
C1553  C1630   1.396   .     S
O1561  C1565   1.320   .     A
O1561  Cu1573  1.994   .     S
O1562  C1566   1.325   .     A
O1562  Cu1574  1.994   .     S
O1563  Cu1574  1.983   .     S
O1563  C1565   1.311   .     A
O1564  Cu1573  1.983   .     S
O1564  C1566   1.311   .     A
C1565  C1586   1.473   .     S
C1566  C1585   1.483   .     S
O1567  C1571   1.312   .     A
O1567  Cu1573  1.998   .     S
O1568  C1572   1.311   .     A
O1568  Cu1574  1.998   .     S
O1569  Cu1574  1.985   .     S
O1569  C1571   1.308   .     A
O1570  C1572   1.309   .     A
O1570  Cu1573  1.985   .     S
C1571  C1577   1.450   .     S
C1572  C1578   1.449   .     S
Cu1573 Cu1574  2.743   .     S
Cu1573 N1575   2.061   .     S
Cu1574 N1576   2.061   .     S
N1575  C1589   1.353   .     A
N1575  C1588   1.399   .     A
N1576  C1590   1.361   .     A
N1576  C1587   1.408   .     A
C1578  C1421   1.331   1_655 S
C1578  H1436   1.084   1_655 S
C1579  H1581   1.074   .     S
C1579  C1586   1.394   .     A
C1579  C2051   1.390   1_545 S
C1580  C1585   1.399   .     A
C1580  H1582   1.070   .     S
C1580  C1818   1.391   .     S
C1583  C1593   1.452   .     S
C1583  C1585   1.403   .     A
C1583  C1813   1.390   .     S
C1584  C1586   1.405   .     A
C1584  C1604   1.467   .     S
C1584  C2048   1.391   1_545 S
C1587  C1615   1.490   .     S
C1588  C1626   1.487   .     S
C1588  C186    1.432   1_556 S
C1589  H1637   1.083   .     S
C1589  C183    1.427   1_556 S
C1590  H1638   1.083   .     S
H1591  C1421   1.087   1_655 S
C1593  C1594   1.391   .     A
C1593  C1598   1.401   .     A
C1594  C1595   1.382   .     A
C1594  H1599   1.083   .     S
C1596  H1601   1.076   .     S
C1596  C191    1.392   1_556 S
C1596  C193    1.399   1_556 S
C1597  H1602   1.077   .     S
C1597  C1598   1.391   .     A
C1598  H1603   1.084   .     S
H1600  C191    1.064   1_556 S
C1604  C1609   1.398   .     A
C1604  C1605   1.407   .     A
C1605  C1606   1.390   .     A
C1605  H1610   1.084   .     S
C1606  H1611   1.081   .     S
C1606  C1607   1.393   .     A
C1607  C1608   1.384   .     A
C1607  H208    1.063   1_556 S
C1608  C1609   1.392   .     A
C1608  H209    1.078   1_556 S
C1609  H1614   1.082   .     S
C1615  C1616   1.404   .     A
C1615  C1620   1.398   .     A
C1616  C1617   1.398   .     A
C1616  H1621   1.065   .     S
C1617  C1618   1.391   .     A
C1617  H1622   1.080   .     S
C1618  C1619   1.394   .     A
C1619  C1620   1.400   .     A
C1620  H1625   1.082   .     S
H1623  C1462   1.083   1_655 S
H1624  C1463   1.081   1_655 S
C1626  C1627   1.400   .     A
C1626  C1631   1.398   .     A
C1627  H1632   1.049   .     S
C1627  C1628   1.394   .     A
C1628  H1633   1.083   .     S
C1628  C1473   1.389   1_655 S
C1629  H1634   1.082   .     S
C1629  C1630   1.397   .     A
C1630  H1635   1.075   .     S
C1631  H1636   1.072   .     S
C1631  C1474   1.396   1_655 S
O1639  C1643   1.320   .     A
O1639  Cu1651  1.994   .     S
O1640  C1644   1.325   .     A
O1640  Cu1652  1.994   .     S
O1641  Cu1652  1.983   .     S
O1641  C1643   1.311   .     A
O1642  Cu1651  1.983   .     S
O1642  C1644   1.311   .     A
C1643  C1664   1.473   .     S
C1644  C1663   1.483   .     S
O1645  C1649   1.312   .     A
O1645  Cu1651  1.998   .     S
O1646  C1650   1.311   .     A
O1646  Cu1652  1.998   .     S
O1647  Cu1652  1.985   .     S
O1647  C1649   1.308   .     A
O1648  C1650   1.309   .     A
O1648  Cu1651  1.985   .     S
C1649  C1655   1.450   .     S
C1650  C1656   1.449   .     S
Cu1651 Cu1652  2.743   .     S
Cu1651 N1653   2.061   .     S
Cu1652 N1654   2.061   .     S
N1653  C1667   1.353   .     A
N1653  C1666   1.399   .     A
N1654  C1668   1.361   .     A
N1654  C1665   1.408   .     A
C1655  C1812   1.331   1_455 S
C1655  H1825   1.087   1_455 S
C1656  C1733   1.331   .     S
C1656  H1748   1.084   .     S
C1657  H1659   1.074   .     S
C1657  C1664   1.394   .     A
C1658  C1663   1.399   .     A
C1658  H1660   1.070   .     S
C1658  C1896   1.391   .     S
C1661  C1671   1.452   .     S
C1661  C1663   1.403   .     A
C1661  C1891   1.390   .     S
C1662  C1664   1.405   .     A
C1662  C1682   1.467   .     S
C1665  C1693   1.490   .     S
C1666  C1704   1.487   .     S
C1666  C264    1.432   1_556 S
C1667  H1715   1.083   .     S
C1667  C261    1.427   1_556 S
C1668  H1716   1.083   .     S
H1669  C1733   1.087   .     S
H1670  C1812   1.084   1_455 S
C1671  C1672   1.391   .     A
C1671  C1676   1.401   .     A
C1672  C1673   1.382   .     A
C1672  H1677   1.083   .     S
C1674  H1679   1.076   .     S
C1674  C269    1.392   1_556 S
C1674  C271    1.399   1_556 S
C1675  H1680   1.077   .     S
C1675  C1676   1.391   .     A
C1676  H1681   1.084   .     S
H1678  C269    1.064   1_556 S
C1682  C1687   1.398   .     A
C1682  C1683   1.407   .     A
C1683  C1684   1.390   .     A
C1683  H1688   1.084   .     S
C1684  H1689   1.081   .     S
C1684  C1685   1.393   .     A
C1685  C1686   1.384   .     A
C1685  H286    1.063   1_556 S
C1686  C1687   1.392   .     A
C1686  H287    1.078   1_556 S
C1687  H1692   1.082   .     S
C1693  C1694   1.404   .     A
C1693  C1698   1.398   .     A
C1694  C1695   1.398   .     A
C1694  H1699   1.065   .     S
C1695  C1696   1.391   .     A
C1695  H1700   1.080   .     S
C1696  C1697   1.394   .     A
C1696  H1857   1.083   1_455 S
C1697  C1698   1.400   .     A
C1697  H1858   1.081   1_455 S
C1698  H1703   1.082   .     S
H1701  C1774   1.083   .     S
H1702  C1775   1.081   .     S
C1704  C1705   1.400   .     A
C1704  C1709   1.398   .     A
C1705  H1710   1.049   .     S
C1705  C1706   1.394   .     A
C1706  H1711   1.083   .     S
C1706  C1785   1.389   .     S
C1707  H1712   1.082   .     S
C1707  C1708   1.397   .     A
C1707  C1862   1.389   1_455 S
C1708  H1713   1.075   .     S
C1708  C1865   1.396   1_455 S
C1709  H1714   1.072   .     S
C1709  C1786   1.396   .     S
O1717  C1721   1.320   .     A
O1717  Cu1729  1.994   .     S
O1718  C1722   1.325   .     A
O1718  Cu1730  1.994   .     S
O1719  Cu1730  1.983   .     S
O1719  C1721   1.311   .     A
O1720  Cu1729  1.983   .     S
O1720  C1722   1.311   .     A
C1721  C1742   1.473   .     S
C1722  C1741   1.483   .     S
O1723  C1727   1.312   .     A
O1723  Cu1729  1.998   .     S
O1724  C1728   1.311   .     A
O1724  Cu1730  1.998   .     S
O1725  Cu1730  1.985   .     S
O1725  C1727   1.308   .     A
O1726  C1728   1.309   .     A
O1726  Cu1729  1.985   .     S
C1727  C1733   1.450   .     S
C1728  C1734   1.449   .     S
Cu1729 Cu1730  2.743   .     S
Cu1729 N1731   2.061   .     S
Cu1730 N1732   2.061   .     S
N1731  C1745   1.353   .     A
N1731  C1744   1.399   .     A
N1732  C1746   1.361   .     A
N1732  C1743   1.408   .     A
C1734  C1811   1.331   .     S
C1734  H1826   1.084   .     S
C1735  H1737   1.074   .     S
C1735  C1742   1.394   .     A
C1736  C1741   1.399   .     A
C1736  H1738   1.070   .     S
C1736  C1974   1.391   .     S
C1739  C1749   1.452   .     S
C1739  C1741   1.403   .     A
C1739  C1969   1.390   .     S
C1740  C1742   1.405   .     A
C1740  C1760   1.467   .     S
C1743  C1771   1.490   .     S
C1744  C1782   1.487   .     S
C1744  C342    1.432   1_556 S
C1745  H1793   1.083   .     S
C1745  C339    1.427   1_556 S
C1746  H1794   1.083   .     S
H1747  C1811   1.087   .     S
C1749  C1750   1.391   .     A
C1749  C1754   1.401   .     A
C1750  C1751   1.382   .     A
C1750  H1755   1.083   .     S
C1752  H1757   1.076   .     S
C1752  C347    1.392   1_556 S
C1752  C349    1.399   1_556 S
C1753  H1758   1.077   .     S
C1753  C1754   1.391   .     A
C1754  H1759   1.084   .     S
H1756  C347    1.064   1_556 S
C1760  C1765   1.398   .     A
C1760  C1761   1.407   .     A
C1761  C1762   1.390   .     A
C1761  H1766   1.084   .     S
C1762  H1767   1.081   .     S
C1762  C1763   1.393   .     A
C1763  C1764   1.384   .     A
C1763  H364    1.063   1_556 S
C1764  C1765   1.392   .     A
C1764  H365    1.078   1_556 S
C1765  H1770   1.082   .     S
C1771  C1772   1.404   .     A
C1771  C1776   1.398   .     A
C1772  C1773   1.398   .     A
C1772  H1777   1.065   .     S
C1773  C1774   1.391   .     A
C1773  H1778   1.080   .     S
C1774  C1775   1.394   .     A
C1775  C1776   1.400   .     A
C1776  H1781   1.082   .     S
H1779  C1852   1.083   .     S
H1780  C1853   1.081   .     S
C1782  C1783   1.400   .     A
C1782  C1787   1.398   .     A
C1783  H1788   1.049   .     S
C1783  C1784   1.394   .     A
C1784  H1789   1.083   .     S
C1784  C1863   1.389   .     S
C1785  H1790   1.082   .     S
C1785  C1786   1.397   .     A
C1786  H1791   1.075   .     S
C1787  H1792   1.072   .     S
C1787  C1864   1.396   .     S
O1795  C1799   1.320   .     A
O1795  Cu1807  1.994   .     S
O1796  C1800   1.325   .     A
O1796  Cu1808  1.994   .     S
O1797  Cu1808  1.983   .     S
O1797  C1799   1.311   .     A
O1798  Cu1807  1.983   .     S
O1798  C1800   1.311   .     A
C1799  C1820   1.473   .     S
C1800  C1819   1.483   .     S
O1801  C1805   1.312   .     A
O1801  Cu1807  1.998   .     S
O1802  C1806   1.311   .     A
O1802  Cu1808  1.998   .     S
O1803  Cu1808  1.985   .     S
O1803  C1805   1.308   .     A
O1804  C1806   1.309   .     A
O1804  Cu1807  1.985   .     S
C1805  C1811   1.450   .     S
C1806  C1812   1.449   .     S
Cu1807 Cu1808  2.743   .     S
Cu1807 N1809   2.061   .     S
Cu1808 N1810   2.061   .     S
N1809  C1823   1.353   .     A
N1809  C1822   1.399   .     A
N1810  C1824   1.361   .     A
N1810  C1821   1.408   .     A
C1812  C1655   1.331   1_655 S
C1812  H1670   1.084   1_655 S
C1813  H1815   1.074   .     S
C1813  C1820   1.394   .     A
C1814  C1819   1.399   .     A
C1814  H1816   1.070   .     S
C1814  C2052   1.391   .     S
C1817  C1827   1.452   .     S
C1817  C1819   1.403   .     A
C1817  C2047   1.390   .     S
C1818  C1820   1.405   .     A
C1818  C1838   1.467   .     S
C1821  C1849   1.490   .     S
C1822  C1860   1.487   .     S
C1822  C420    1.432   1_556 S
C1823  H1871   1.083   .     S
C1823  C417    1.427   1_556 S
C1824  H1872   1.083   .     S
H1825  C1655   1.087   1_655 S
C1827  C1828   1.391   .     A
C1827  C1832   1.401   .     A
C1828  C1829   1.382   .     A
C1828  H1833   1.083   .     S
C1830  H1835   1.076   .     S
C1830  C425    1.392   1_556 S
C1830  C427    1.399   1_556 S
C1831  H1836   1.077   .     S
C1831  C1832   1.391   .     A
C1832  H1837   1.084   .     S
H1834  C425    1.064   1_556 S
C1838  C1843   1.398   .     A
C1838  C1839   1.407   .     A
C1839  C1840   1.390   .     A
C1839  H1844   1.084   .     S
C1840  H1845   1.081   .     S
C1840  C1841   1.393   .     A
C1841  C1842   1.384   .     A
C1841  H442    1.063   1_556 S
C1842  C1843   1.392   .     A
C1842  H443    1.078   1_556 S
C1843  H1848   1.082   .     S
C1849  C1850   1.404   .     A
C1849  C1854   1.398   .     A
C1850  C1851   1.398   .     A
C1850  H1855   1.065   .     S
C1851  C1852   1.391   .     A
C1851  H1856   1.080   .     S
C1852  C1853   1.394   .     A
C1853  C1854   1.400   .     A
C1854  H1859   1.082   .     S
H1857  C1696   1.083   1_655 S
H1858  C1697   1.081   1_655 S
C1860  C1861   1.400   .     A
C1860  C1865   1.398   .     A
C1861  H1866   1.049   .     S
C1861  C1862   1.394   .     A
C1862  H1867   1.083   .     S
C1862  C1707   1.389   1_655 S
C1863  H1868   1.082   .     S
C1863  C1864   1.397   .     A
C1864  H1869   1.075   .     S
C1865  H1870   1.072   .     S
C1865  C1708   1.396   1_655 S
O1873  C1877   1.320   .     A
O1873  Cu1885  1.994   .     S
O1874  C1878   1.325   .     A
O1874  Cu1886  1.994   .     S
O1875  Cu1886  1.983   .     S
O1875  C1877   1.311   .     A
O1876  Cu1885  1.983   .     S
O1876  C1878   1.311   .     A
C1877  C1898   1.473   .     S
C1878  C1897   1.483   .     S
O1879  C1883   1.312   .     A
O1879  Cu1885  1.998   .     S
O1880  C1884   1.311   .     A
O1880  Cu1886  1.998   .     S
O1881  Cu1886  1.985   .     S
O1881  C1883   1.308   .     A
O1882  C1884   1.309   .     A
O1882  Cu1885  1.985   .     S
C1883  C1889   1.450   .     S
C1884  C1890   1.449   .     S
Cu1885 Cu1886  2.743   .     S
Cu1885 N1887   2.061   .     S
Cu1886 N1888   2.061   .     S
N1887  C1901   1.353   .     A
N1887  C1900   1.399   .     A
N1888  C1902   1.361   .     A
N1888  C1899   1.408   .     A
C1889  C2046   1.331   1_455 S
C1889  H2059   1.087   1_455 S
C1890  C1967   1.331   .     S
C1890  H1982   1.084   .     S
C1891  H1893   1.074   .     S
C1891  C1898   1.394   .     A
C1892  C1897   1.399   .     A
C1892  H1894   1.070   .     S
C1892  C1428   1.391   1_565 S
C1895  C1905   1.452   .     S
C1895  C1897   1.403   .     A
C1895  C1423   1.390   1_565 S
C1896  C1898   1.405   .     A
C1896  C1916   1.467   .     S
C1899  C1927   1.490   .     S
C1900  C1938   1.487   .     S
C1900  C498    1.432   1_556 S
C1901  H1949   1.083   .     S
C1901  C495    1.427   1_556 S
C1902  H1950   1.083   .     S
H1903  C1967   1.087   .     S
H1904  C2046   1.084   1_455 S
C1905  C1906   1.391   .     A
C1905  C1910   1.401   .     A
C1906  C1907   1.382   .     A
C1906  H1911   1.083   .     S
C1908  H1913   1.076   .     S
C1908  C503    1.392   1_556 S
C1908  C505    1.399   1_556 S
C1909  H1914   1.077   .     S
C1909  C1910   1.391   .     A
C1910  H1915   1.084   .     S
H1912  C503    1.064   1_556 S
C1916  C1921   1.398   .     A
C1916  C1917   1.407   .     A
C1917  C1918   1.390   .     A
C1917  H1922   1.084   .     S
C1918  H1923   1.081   .     S
C1918  C1919   1.393   .     A
C1919  C1920   1.384   .     A
C1919  H520    1.063   1_556 S
C1920  C1921   1.392   .     A
C1920  H521    1.078   1_556 S
C1921  H1926   1.082   .     S
C1927  C1928   1.404   .     A
C1927  C1932   1.398   .     A
C1928  C1929   1.398   .     A
C1928  H1933   1.065   .     S
C1929  C1930   1.391   .     A
C1929  H1934   1.080   .     S
C1930  C1931   1.394   .     A
C1930  H2091   1.083   1_455 S
C1931  C1932   1.400   .     A
C1931  H2092   1.081   1_455 S
C1932  H1937   1.082   .     S
H1935  C2008   1.083   .     S
H1936  C2009   1.081   .     S
C1938  C1939   1.400   .     A
C1938  C1943   1.398   .     A
C1939  H1944   1.049   .     S
C1939  C1940   1.394   .     A
C1940  H1945   1.083   .     S
C1940  C2019   1.389   .     S
C1941  H1946   1.082   .     S
C1941  C1942   1.397   .     A
C1941  C2096   1.389   1_455 S
C1942  H1947   1.075   .     S
C1942  C2099   1.396   1_455 S
C1943  H1948   1.072   .     S
C1943  C2020   1.396   .     S
O1951  C1955   1.320   .     A
O1951  Cu1963  1.994   .     S
O1952  C1956   1.325   .     A
O1952  Cu1964  1.994   .     S
O1953  Cu1964  1.983   .     S
O1953  C1955   1.311   .     A
O1954  Cu1963  1.983   .     S
O1954  C1956   1.311   .     A
C1955  C1976   1.473   .     S
C1956  C1975   1.483   .     S
O1957  C1961   1.312   .     A
O1957  Cu1963  1.998   .     S
O1958  C1962   1.311   .     A
O1958  Cu1964  1.998   .     S
O1959  Cu1964  1.985   .     S
O1959  C1961   1.308   .     A
O1960  C1962   1.309   .     A
O1960  Cu1963  1.985   .     S
C1961  C1967   1.450   .     S
C1962  C1968   1.449   .     S
Cu1963 Cu1964  2.743   .     S
Cu1963 N1965   2.061   .     S
Cu1964 N1966   2.061   .     S
N1965  C1979   1.353   .     A
N1965  C1978   1.399   .     A
N1966  C1980   1.361   .     A
N1966  C1977   1.408   .     A
C1968  C2045   1.331   .     S
C1968  H2060   1.084   .     S
C1969  H1971   1.074   .     S
C1969  C1976   1.394   .     A
C1970  C1975   1.399   .     A
C1970  H1972   1.070   .     S
C1970  C1506   1.391   1_565 S
C1973  C1983   1.452   .     S
C1973  C1975   1.403   .     A
C1973  C1501   1.390   1_565 S
C1974  C1976   1.405   .     A
C1974  C1994   1.467   .     S
C1977  C2005   1.490   .     S
C1978  C2016   1.487   .     S
C1978  C576    1.432   1_556 S
C1979  H2027   1.083   .     S
C1979  C573    1.427   1_556 S
C1980  H2028   1.083   .     S
H1981  C2045   1.087   .     S
C1983  C1984   1.391   .     A
C1983  C1988   1.401   .     A
C1984  C1985   1.382   .     A
C1984  H1989   1.083   .     S
C1986  H1991   1.076   .     S
C1986  C581    1.392   1_556 S
C1986  C583    1.399   1_556 S
C1987  H1992   1.077   .     S
C1987  C1988   1.391   .     A
C1988  H1993   1.084   .     S
H1990  C581    1.064   1_556 S
C1994  C1999   1.398   .     A
C1994  C1995   1.407   .     A
C1995  C1996   1.390   .     A
C1995  H2000   1.084   .     S
C1996  H2001   1.081   .     S
C1996  C1997   1.393   .     A
C1997  C1998   1.384   .     A
C1997  H598    1.063   1_556 S
C1998  C1999   1.392   .     A
C1998  H599    1.078   1_556 S
C1999  H2004   1.082   .     S
C2005  C2006   1.404   .     A
C2005  C2010   1.398   .     A
C2006  C2007   1.398   .     A
C2006  H2011   1.065   .     S
C2007  C2008   1.391   .     A
C2007  H2012   1.080   .     S
C2008  C2009   1.394   .     A
C2009  C2010   1.400   .     A
C2010  H2015   1.082   .     S
H2013  C2086   1.083   .     S
H2014  C2087   1.081   .     S
C2016  C2017   1.400   .     A
C2016  C2021   1.398   .     A
C2017  H2022   1.049   .     S
C2017  C2018   1.394   .     A
C2018  H2023   1.083   .     S
C2018  C2097   1.389   .     S
C2019  H2024   1.082   .     S
C2019  C2020   1.397   .     A
C2020  H2025   1.075   .     S
C2021  H2026   1.072   .     S
C2021  C2098   1.396   .     S
O2029  C2033   1.320   .     A
O2029  Cu2041  1.994   .     S
O2030  C2034   1.325   .     A
O2030  Cu2042  1.994   .     S
O2031  Cu2042  1.983   .     S
O2031  C2033   1.311   .     A
O2032  Cu2041  1.983   .     S
O2032  C2034   1.311   .     A
C2033  C2054   1.473   .     S
C2034  C2053   1.483   .     S
O2035  C2039   1.312   .     A
O2035  Cu2041  1.998   .     S
O2036  C2040   1.311   .     A
O2036  Cu2042  1.998   .     S
O2037  Cu2042  1.985   .     S
O2037  C2039   1.308   .     A
O2038  C2040   1.309   .     A
O2038  Cu2041  1.985   .     S
C2039  C2045   1.450   .     S
C2040  C2046   1.449   .     S
Cu2041 Cu2042  2.743   .     S
Cu2041 N2043   2.061   .     S
Cu2042 N2044   2.061   .     S
N2043  C2057   1.353   .     A
N2043  C2056   1.399   .     A
N2044  C2058   1.361   .     A
N2044  C2055   1.408   .     A
C2046  C1889   1.331   1_655 S
C2046  H1904   1.084   1_655 S
C2047  H2049   1.074   .     S
C2047  C2054   1.394   .     A
C2048  C2053   1.399   .     A
C2048  H2050   1.070   .     S
C2048  C1584   1.391   1_565 S
C2051  C2061   1.452   .     S
C2051  C2053   1.403   .     A
C2051  C1579   1.390   1_565 S
C2052  C2054   1.405   .     A
C2052  C2072   1.467   .     S
C2055  C2083   1.490   .     S
C2056  C2094   1.487   .     S
C2056  C654    1.432   1_556 S
C2057  H2105   1.083   .     S
C2057  C651    1.427   1_556 S
C2058  H2106   1.083   .     S
H2059  C1889   1.087   1_655 S
C2061  C2062   1.391   .     A
C2061  C2066   1.401   .     A
C2062  C2063   1.382   .     A
C2062  H2067   1.083   .     S
C2064  H2069   1.076   .     S
C2064  C659    1.392   1_556 S
C2064  C661    1.399   1_556 S
C2065  H2070   1.077   .     S
C2065  C2066   1.391   .     A
C2066  H2071   1.084   .     S
H2068  C659    1.064   1_556 S
C2072  C2077   1.398   .     A
C2072  C2073   1.407   .     A
C2073  C2074   1.390   .     A
C2073  H2078   1.084   .     S
C2074  H2079   1.081   .     S
C2074  C2075   1.393   .     A
C2075  C2076   1.384   .     A
C2075  H676    1.063   1_556 S
C2076  C2077   1.392   .     A
C2076  H677    1.078   1_556 S
C2077  H2082   1.082   .     S
C2083  C2084   1.404   .     A
C2083  C2088   1.398   .     A
C2084  C2085   1.398   .     A
C2084  H2089   1.065   .     S
C2085  C2086   1.391   .     A
C2085  H2090   1.080   .     S
C2086  C2087   1.394   .     A
C2087  C2088   1.400   .     A
C2088  H2093   1.082   .     S
H2091  C1930   1.083   1_655 S
H2092  C1931   1.081   1_655 S
C2094  C2095   1.400   .     A
C2094  C2099   1.398   .     A
C2095  H2100   1.049   .     S
C2095  C2096   1.394   .     A
C2096  H2101   1.083   .     S
C2096  C1941   1.389   1_655 S
C2097  H2102   1.082   .     S
C2097  C2098   1.397   .     A
C2098  H2103   1.075   .     S
C2099  H2104   1.072   .     S
C2099  C1942   1.396   1_655 S
