data_str_m2_o1_o2_pcu_sym.81
_audit_creation_date              2020-01-03
_audit_creation_method            'Materials Studio'
_symmetry_space_group_name_H-M    'P1'
_symmetry_Int_Tables_number       1
_symmetry_cell_setting            triclinic
loop_
_symmetry_equiv_pos_as_xyz
  x,y,z
_cell_length_a                    32.5173
_cell_length_b                    28.9216
_cell_length_c                    30.3891
_cell_angle_alpha                 89.7910
_cell_angle_beta                  93.6004
_cell_angle_gamma                 90.0392
loop_
_atom_site_label
_atom_site_type_symbol
_atom_site_fract_x
_atom_site_fract_y
_atom_site_fract_z
_atom_site_U_iso_or_equiv
_atom_site_adp_type
_atom_site_occupancy
C1     C     0.08748   0.16667   0.25013   0.00000  Uiso   1.00
C2     C     0.31213   0.20872   0.25084   0.00000  Uiso   1.00
C3     C     0.31199   0.12480   0.24944   0.00000  Uiso   1.00
C4     C     0.02138   0.20870   0.25112   0.00000  Uiso   1.00
C5     C     0.13575   0.18125   0.04276   0.00000  Uiso   1.00
C6     C     0.13531   0.13089   0.44912   0.00000  Uiso   1.00
C7     C     0.19717   0.17874   0.45727   0.00000  Uiso   1.00
C8     C     0.19476   0.12946   0.05050   0.00000  Uiso   1.00
C9     C     0.13735   0.18825   0.08871   0.00000  Uiso   1.00
C10    C     0.13410   0.13666   0.40300   0.00000  Uiso   1.00
C11    C     0.19557   0.18668   0.41137   0.00000  Uiso   1.00
C12    C     0.24586   0.16669   0.24996   0.00000  Uiso   1.00
C13    C     0.19791   0.13654   0.09686   0.00000  Uiso   1.00
C14    C     0.16807   0.16511   0.11623   0.00000  Uiso   1.00
C15    C     0.16460   0.16444   0.38366   0.00000  Uiso   1.00
C16    C     0.16519   0.15368   0.02426   0.00000  Uiso   1.00
C17    C     0.16637   0.15290   0.47589   0.00000  Uiso   1.00
C18    C     0.29055   0.16674   0.25009   0.00000  Uiso   1.00
C19    C     0.04279   0.16672   0.25005   0.00000  Uiso   1.00
C20    C     0.10653   0.22121   0.10707   0.00000  Uiso   1.00
C21    C     0.07146   0.19462   0.12732   0.00000  Uiso   1.00
C22    C     0.03459   0.22566   0.13462   0.00000  Uiso   1.00
C23    C     0.16683   0.16661   0.16494   0.00000  Uiso   1.00
C24    C     0.09931   0.11226   0.37608   0.00000  Uiso   1.00
C25    C     0.05769   0.13648   0.37983   0.00000  Uiso   1.00
C26    C     0.02219   0.10417   0.36547   0.00000  Uiso   1.00
C27    C     0.22623   0.22034   0.39346   0.00000  Uiso   1.00
C28    C     0.26186   0.19487   0.37328   0.00000  Uiso   1.00
C29    C     0.29840   0.22694   0.36709   0.00000  Uiso   1.00
C30    C     0.23397   0.11498   0.12451   0.00000  Uiso   1.00
C31    C     0.27591   0.13381   0.11186   0.00000  Uiso   1.00
C32    C     0.31072   0.10128   0.12774   0.00000  Uiso   1.00
C33    C     0.16601   0.16641   0.33501   0.00000  Uiso   1.00
C34    C     0.13516   0.02464   0.22887   0.00000  Uiso   1.00
C35    C     0.19845   0.30905   0.27056   0.00000  Uiso   1.00
C36    C     0.19815   0.02453   0.27117   0.00000  Uiso   1.00
C37    C     0.13487   0.30917   0.22948   0.00000  Uiso   1.00
C38    C     0.02119   0.12480   0.24889   0.00000  Uiso   1.00
Cu39   Cu    0.16667   0.21355   0.25000   0.00000  Uiso   1.00
Cu40   Cu    0.16667   0.11978   0.25000   0.00000  Uiso   1.00
H41    H     0.03706   0.09195   0.24795   0.00000  Uiso   1.00
H42    H     0.11330   0.09622   0.49812   0.00000  Uiso   1.00
H43    H     0.25454   0.19331   0.47138   0.00000  Uiso   1.00
H44    H     0.23203   0.07638   0.04983   0.00000  Uiso   1.00
H45    H     0.04400   0.25619   0.15473   0.00000  Uiso   1.00
H46    H     0.02019   0.23758   0.10246   0.00000  Uiso   1.00
H47    H     0.01138   0.20593   0.15224   0.00000  Uiso   1.00
H48    H     0.06096   0.16626   0.10477   0.00000  Uiso   1.00
H49    H     0.08264   0.17894   0.15916   0.00000  Uiso   1.00
H50    H     0.12267   0.24499   0.13039   0.00000  Uiso   1.00
H51    H     0.09343   0.24519   0.08127   0.00000  Uiso   1.00
H52    H     0.29623   0.24157   0.25144   0.00000  Uiso   1.00
H53    H     0.02734   0.08842   0.33307   0.00000  Uiso   1.00
H54    H     0.01954   0.07610   0.39017   0.00000  Uiso   1.00
H55    H     0.32614   0.12361   0.36261   0.00000  Uiso   1.00
H56    H     0.05355   0.14779   0.41417   0.00000  Uiso   1.00
H57    H     0.05656   0.16773   0.35838   0.00000  Uiso   1.00
H58    H     0.10414   0.10962   0.34063   0.00000  Uiso   1.00
H59    H     0.09764   0.07584   0.38777   0.00000  Uiso   1.00
H60    H     0.28873   0.25789   0.34752   0.00000  Uiso   1.00
H61    H     0.31223   0.23817   0.39966   0.00000  Uiso   1.00
H62    H     0.32221   0.20840   0.34944   0.00000  Uiso   1.00
H63    H     0.29598   0.09193   0.24888   0.00000  Uiso   1.00
H64    H     0.27253   0.16599   0.39536   0.00000  Uiso   1.00
H65    H     0.25118   0.17998   0.34101   0.00000  Uiso   1.00
H66    H     0.21010   0.24433   0.37014   0.00000  Uiso   1.00
H67    H     0.23877   0.24408   0.41963   0.00000  Uiso   1.00
H68    H     0.31002   0.09486   0.16364   0.00000  Uiso   1.00
H69    H     0.30766   0.06776   0.11012   0.00000  Uiso   1.00
H70    H     0.00751   0.11675   0.12101   0.00000  Uiso   1.00
H71    H     0.27718   0.13843   0.07572   0.00000  Uiso   1.00
H72    H     0.28102   0.16831   0.12721   0.00000  Uiso   1.00
H73    H     0.23300   0.12164   0.16016   0.00000  Uiso   1.00
H74    H     0.03742   0.24154   0.25198   0.00000  Uiso   1.00
H75    H     0.23240   0.07674   0.12139   0.00000  Uiso   1.00
H76    H     0.11370   0.07424   0.19214   0.00000  Uiso   1.00
H77    H     0.22160   0.25852   0.30353   0.00000  Uiso   1.00
H78    H     0.21945   0.07391   0.30795   0.00000  Uiso   1.00
H79    H     0.11174   0.25883   0.19664   0.00000  Uiso   1.00
H80    H     0.07891   0.19697   0.02772   0.00000  Uiso   1.00
N81    N     0.16667   0.28402   0.25000   0.00000  Uiso   1.00
N82    N     0.16667   0.04931   0.25000   0.00000  Uiso   1.00
O83    O     0.10655   0.20625   0.24999   0.00000  Uiso   1.00
O84    O     0.23143   0.28807   0.29257   0.00000  Uiso   1.00
O85    O     0.23028   0.04584   0.29468   0.00000  Uiso   1.00
O86    O     0.10189   0.28831   0.20749   0.00000  Uiso   1.00
O87    O     0.10581   0.20138   0.01467   0.00000  Uiso   1.00
O88    O     0.10563   0.10320   0.46679   0.00000  Uiso   1.00
O89    O     0.22802   0.19714   0.48531   0.00000  Uiso   1.00
O90    O     0.22032   0.09993   0.02908   0.00000  Uiso   1.00
O91    O     0.22679   0.12709   0.25000   0.00000  Uiso   1.00
O92    O     0.22679   0.20625   0.25000   0.00000  Uiso   1.00
O93    O     0.10655   0.12709   0.24999   0.00000  Uiso   1.00
O94    O     0.16666   0.20626   0.18573   0.00000  Uiso   1.00
O95    O     0.16667   0.12707   0.31427   0.00000  Uiso   1.00
O96    O     0.16667   0.20626   0.31427   0.00000  Uiso   1.00
O97    O     0.16666   0.12707   0.18573   0.00000  Uiso   1.00
O98    O     0.10295   0.04606   0.20547   0.00000  Uiso   1.00
C99    C     0.42081   0.16667   0.25013   0.00000  Uiso   1.00
C100   C     0.64546   0.20872   0.25084   0.00000  Uiso   1.00
C101   C     0.64532   0.12480   0.24944   0.00000  Uiso   1.00
C102   C     0.35472   0.20870   0.25112   0.00000  Uiso   1.00
C103   C     0.46909   0.18125   0.04276   0.00000  Uiso   1.00
C104   C     0.46864   0.13089   0.44912   0.00000  Uiso   1.00
C105   C     0.53050   0.17874   0.45727   0.00000  Uiso   1.00
C106   C     0.52809   0.12946   0.05050   0.00000  Uiso   1.00
C107   C     0.47068   0.18825   0.08871   0.00000  Uiso   1.00
C108   C     0.46744   0.13666   0.40300   0.00000  Uiso   1.00
C109   C     0.52890   0.18668   0.41137   0.00000  Uiso   1.00
C110   C     0.57920   0.16669   0.24996   0.00000  Uiso   1.00
C111   C     0.53125   0.13654   0.09686   0.00000  Uiso   1.00
C112   C     0.50140   0.16511   0.11623   0.00000  Uiso   1.00
C113   C     0.49793   0.16444   0.38366   0.00000  Uiso   1.00
C114   C     0.49852   0.15368   0.02426   0.00000  Uiso   1.00
C115   C     0.49970   0.15290   0.47589   0.00000  Uiso   1.00
C116   C     0.62389   0.16674   0.25009   0.00000  Uiso   1.00
C117   C     0.37612   0.16672   0.25005   0.00000  Uiso   1.00
C118   C     0.43987   0.22121   0.10707   0.00000  Uiso   1.00
C119   C     0.40480   0.19462   0.12732   0.00000  Uiso   1.00
C120   C     0.36792   0.22566   0.13462   0.00000  Uiso   1.00
C121   C     0.50016   0.16661   0.16494   0.00000  Uiso   1.00
C122   C     0.43264   0.11226   0.37608   0.00000  Uiso   1.00
C123   C     0.39102   0.13648   0.37983   0.00000  Uiso   1.00
C124   C     0.35552   0.10417   0.36547   0.00000  Uiso   1.00
C125   C     0.55957   0.22034   0.39346   0.00000  Uiso   1.00
C126   C     0.59519   0.19487   0.37328   0.00000  Uiso   1.00
C127   C     0.63173   0.22694   0.36709   0.00000  Uiso   1.00
C128   C     0.56731   0.11498   0.12451   0.00000  Uiso   1.00
C129   C     0.60924   0.13381   0.11186   0.00000  Uiso   1.00
C130   C     0.64406   0.10128   0.12774   0.00000  Uiso   1.00
C131   C     0.49934   0.16641   0.33501   0.00000  Uiso   1.00
C132   C     0.46849   0.02464   0.22887   0.00000  Uiso   1.00
C133   C     0.53179   0.30905   0.27056   0.00000  Uiso   1.00
C134   C     0.53149   0.02453   0.27117   0.00000  Uiso   1.00
C135   C     0.46820   0.30917   0.22948   0.00000  Uiso   1.00
C136   C     0.35452   0.12480   0.24889   0.00000  Uiso   1.00
Cu137  Cu    0.50000   0.21355   0.25000   0.00000  Uiso   1.00
Cu138  Cu    0.50000   0.11978   0.25000   0.00000  Uiso   1.00
H139   H     0.37039   0.09195   0.24795   0.00000  Uiso   1.00
H140   H     0.44664   0.09622   0.49812   0.00000  Uiso   1.00
H141   H     0.58787   0.19331   0.47138   0.00000  Uiso   1.00
H142   H     0.56537   0.07638   0.04983   0.00000  Uiso   1.00
H143   H     0.37733   0.25619   0.15473   0.00000  Uiso   1.00
H144   H     0.35352   0.23758   0.10246   0.00000  Uiso   1.00
H145   H     0.34471   0.20593   0.15224   0.00000  Uiso   1.00
H146   H     0.39429   0.16626   0.10477   0.00000  Uiso   1.00
H147   H     0.41597   0.17894   0.15916   0.00000  Uiso   1.00
H148   H     0.45601   0.24499   0.13039   0.00000  Uiso   1.00
H149   H     0.42676   0.24519   0.08127   0.00000  Uiso   1.00
H150   H     0.62956   0.24157   0.25144   0.00000  Uiso   1.00
H151   H     0.36067   0.08842   0.33307   0.00000  Uiso   1.00
H152   H     0.35288   0.07610   0.39017   0.00000  Uiso   1.00
H153   H     0.65947   0.12361   0.36261   0.00000  Uiso   1.00
H154   H     0.38688   0.14779   0.41417   0.00000  Uiso   1.00
H155   H     0.38989   0.16773   0.35838   0.00000  Uiso   1.00
H156   H     0.43747   0.10962   0.34063   0.00000  Uiso   1.00
H157   H     0.43097   0.07584   0.38777   0.00000  Uiso   1.00
H158   H     0.62207   0.25789   0.34752   0.00000  Uiso   1.00
H159   H     0.64557   0.23817   0.39966   0.00000  Uiso   1.00
H160   H     0.65554   0.20840   0.34944   0.00000  Uiso   1.00
H161   H     0.62932   0.09193   0.24888   0.00000  Uiso   1.00
H162   H     0.60587   0.16599   0.39536   0.00000  Uiso   1.00
H163   H     0.58451   0.17998   0.34101   0.00000  Uiso   1.00
H164   H     0.54343   0.24433   0.37014   0.00000  Uiso   1.00
H165   H     0.57210   0.24408   0.41963   0.00000  Uiso   1.00
H166   H     0.64335   0.09486   0.16364   0.00000  Uiso   1.00
H167   H     0.64099   0.06776   0.11012   0.00000  Uiso   1.00
H168   H     0.34084   0.11675   0.12101   0.00000  Uiso   1.00
H169   H     0.61051   0.13843   0.07572   0.00000  Uiso   1.00
H170   H     0.61435   0.16831   0.12721   0.00000  Uiso   1.00
H171   H     0.56633   0.12164   0.16016   0.00000  Uiso   1.00
H172   H     0.37075   0.24154   0.25198   0.00000  Uiso   1.00
H173   H     0.56573   0.07674   0.12139   0.00000  Uiso   1.00
H174   H     0.44703   0.07424   0.19214   0.00000  Uiso   1.00
H175   H     0.55494   0.25852   0.30353   0.00000  Uiso   1.00
H176   H     0.55279   0.07391   0.30795   0.00000  Uiso   1.00
H177   H     0.44508   0.25883   0.19664   0.00000  Uiso   1.00
H178   H     0.41224   0.19697   0.02772   0.00000  Uiso   1.00
N179   N     0.50000   0.28402   0.25000   0.00000  Uiso   1.00
N180   N     0.50000   0.04931   0.25000   0.00000  Uiso   1.00
O181   O     0.43988   0.20625   0.24999   0.00000  Uiso   1.00
O182   O     0.56476   0.28807   0.29257   0.00000  Uiso   1.00
O183   O     0.56361   0.04584   0.29468   0.00000  Uiso   1.00
O184   O     0.43523   0.28831   0.20749   0.00000  Uiso   1.00
O185   O     0.43915   0.20138   0.01467   0.00000  Uiso   1.00
O186   O     0.43897   0.10320   0.46679   0.00000  Uiso   1.00
O187   O     0.56135   0.19714   0.48531   0.00000  Uiso   1.00
O188   O     0.55365   0.09993   0.02908   0.00000  Uiso   1.00
O189   O     0.56012   0.12709   0.25000   0.00000  Uiso   1.00
O190   O     0.56012   0.20625   0.25000   0.00000  Uiso   1.00
O191   O     0.43988   0.12709   0.24999   0.00000  Uiso   1.00
O192   O     0.50000   0.20626   0.18573   0.00000  Uiso   1.00
O193   O     0.50000   0.12707   0.31427   0.00000  Uiso   1.00
O194   O     0.50000   0.20626   0.31427   0.00000  Uiso   1.00
O195   O     0.50000   0.12707   0.18573   0.00000  Uiso   1.00
O196   O     0.43628   0.04606   0.20547   0.00000  Uiso   1.00
C197   C     0.75414   0.16667   0.25013   0.00000  Uiso   1.00
C198   C     0.97879   0.20872   0.25084   0.00000  Uiso   1.00
C199   C     0.97866   0.12480   0.24944   0.00000  Uiso   1.00
C200   C     0.68805   0.20870   0.25112   0.00000  Uiso   1.00
C201   C     0.80242   0.18125   0.04276   0.00000  Uiso   1.00
C202   C     0.80198   0.13089   0.44912   0.00000  Uiso   1.00
C203   C     0.86384   0.17874   0.45727   0.00000  Uiso   1.00
C204   C     0.86143   0.12946   0.05050   0.00000  Uiso   1.00
C205   C     0.80401   0.18825   0.08871   0.00000  Uiso   1.00
C206   C     0.80077   0.13666   0.40300   0.00000  Uiso   1.00
C207   C     0.86224   0.18668   0.41137   0.00000  Uiso   1.00
C208   C     0.91253   0.16669   0.24996   0.00000  Uiso   1.00
C209   C     0.86458   0.13654   0.09686   0.00000  Uiso   1.00
C210   C     0.83474   0.16511   0.11623   0.00000  Uiso   1.00
C211   C     0.83126   0.16444   0.38366   0.00000  Uiso   1.00
C212   C     0.83185   0.15368   0.02426   0.00000  Uiso   1.00
C213   C     0.83303   0.15290   0.47589   0.00000  Uiso   1.00
C214   C     0.95722   0.16674   0.25009   0.00000  Uiso   1.00
C215   C     0.70946   0.16672   0.25005   0.00000  Uiso   1.00
C216   C     0.77320   0.22121   0.10707   0.00000  Uiso   1.00
C217   C     0.73813   0.19462   0.12732   0.00000  Uiso   1.00
C218   C     0.70126   0.22566   0.13462   0.00000  Uiso   1.00
C219   C     0.83350   0.16661   0.16494   0.00000  Uiso   1.00
C220   C     0.76598   0.11226   0.37608   0.00000  Uiso   1.00
C221   C     0.72435   0.13648   0.37983   0.00000  Uiso   1.00
C222   C     0.68885   0.10417   0.36547   0.00000  Uiso   1.00
C223   C     0.89290   0.22034   0.39346   0.00000  Uiso   1.00
C224   C     0.92852   0.19487   0.37328   0.00000  Uiso   1.00
C225   C     0.96506   0.22694   0.36709   0.00000  Uiso   1.00
C226   C     0.90064   0.11498   0.12451   0.00000  Uiso   1.00
C227   C     0.94257   0.13381   0.11186   0.00000  Uiso   1.00
C228   C     0.97739   0.10128   0.12774   0.00000  Uiso   1.00
C229   C     0.83268   0.16641   0.33501   0.00000  Uiso   1.00
C230   C     0.80183   0.02464   0.22887   0.00000  Uiso   1.00
C231   C     0.86512   0.30905   0.27056   0.00000  Uiso   1.00
C232   C     0.86482   0.02453   0.27117   0.00000  Uiso   1.00
C233   C     0.80154   0.30917   0.22948   0.00000  Uiso   1.00
C234   C     0.68785   0.12480   0.24889   0.00000  Uiso   1.00
Cu235  Cu    0.83333   0.21355   0.25000   0.00000  Uiso   1.00
Cu236  Cu    0.83333   0.11978   0.25000   0.00000  Uiso   1.00
H237   H     0.70373   0.09195   0.24795   0.00000  Uiso   1.00
H238   H     0.77997   0.09622   0.49812   0.00000  Uiso   1.00
H239   H     0.92120   0.19331   0.47138   0.00000  Uiso   1.00
H240   H     0.89870   0.07638   0.04983   0.00000  Uiso   1.00
H241   H     0.71067   0.25619   0.15473   0.00000  Uiso   1.00
H242   H     0.68686   0.23758   0.10246   0.00000  Uiso   1.00
H243   H     0.67805   0.20593   0.15224   0.00000  Uiso   1.00
H244   H     0.72762   0.16626   0.10477   0.00000  Uiso   1.00
H245   H     0.74930   0.17894   0.15916   0.00000  Uiso   1.00
H246   H     0.78934   0.24499   0.13039   0.00000  Uiso   1.00
H247   H     0.76010   0.24519   0.08127   0.00000  Uiso   1.00
H248   H     0.96290   0.24157   0.25144   0.00000  Uiso   1.00
H249   H     0.69400   0.08842   0.33307   0.00000  Uiso   1.00
H250   H     0.68621   0.07610   0.39017   0.00000  Uiso   1.00
H251   H     0.99281   0.12361   0.36261   0.00000  Uiso   1.00
H252   H     0.72021   0.14779   0.41417   0.00000  Uiso   1.00
H253   H     0.72323   0.16773   0.35838   0.00000  Uiso   1.00
H254   H     0.77080   0.10962   0.34063   0.00000  Uiso   1.00
H255   H     0.76430   0.07584   0.38777   0.00000  Uiso   1.00
H256   H     0.95540   0.25789   0.34752   0.00000  Uiso   1.00
H257   H     0.97890   0.23817   0.39966   0.00000  Uiso   1.00
H258   H     0.98887   0.20840   0.34944   0.00000  Uiso   1.00
H259   H     0.96265   0.09193   0.24888   0.00000  Uiso   1.00
H260   H     0.93920   0.16599   0.39536   0.00000  Uiso   1.00
H261   H     0.91785   0.17998   0.34101   0.00000  Uiso   1.00
H262   H     0.87676   0.24433   0.37014   0.00000  Uiso   1.00
H263   H     0.90544   0.24408   0.41963   0.00000  Uiso   1.00
H264   H     0.97669   0.09486   0.16364   0.00000  Uiso   1.00
H265   H     0.97433   0.06776   0.11012   0.00000  Uiso   1.00
H266   H     0.67418   0.11675   0.12101   0.00000  Uiso   1.00
H267   H     0.94385   0.13843   0.07572   0.00000  Uiso   1.00
H268   H     0.94769   0.16831   0.12721   0.00000  Uiso   1.00
H269   H     0.89967   0.12164   0.16016   0.00000  Uiso   1.00
H270   H     0.70408   0.24154   0.25198   0.00000  Uiso   1.00
H271   H     0.89906   0.07674   0.12139   0.00000  Uiso   1.00
H272   H     0.78037   0.07424   0.19214   0.00000  Uiso   1.00
H273   H     0.88827   0.25852   0.30353   0.00000  Uiso   1.00
H274   H     0.88612   0.07391   0.30795   0.00000  Uiso   1.00
H275   H     0.77841   0.25883   0.19664   0.00000  Uiso   1.00
H276   H     0.74557   0.19697   0.02772   0.00000  Uiso   1.00
N277   N     0.83333   0.28402   0.25000   0.00000  Uiso   1.00
N278   N     0.83333   0.04931   0.25000   0.00000  Uiso   1.00
O279   O     0.77321   0.20625   0.24999   0.00000  Uiso   1.00
O280   O     0.89810   0.28807   0.29257   0.00000  Uiso   1.00
O281   O     0.89695   0.04584   0.29468   0.00000  Uiso   1.00
O282   O     0.76856   0.28831   0.20749   0.00000  Uiso   1.00
O283   O     0.77248   0.20138   0.01467   0.00000  Uiso   1.00
O284   O     0.77230   0.10320   0.46679   0.00000  Uiso   1.00
O285   O     0.89468   0.19714   0.48531   0.00000  Uiso   1.00
O286   O     0.88699   0.09993   0.02908   0.00000  Uiso   1.00
O287   O     0.89345   0.12709   0.25000   0.00000  Uiso   1.00
O288   O     0.89345   0.20625   0.25000   0.00000  Uiso   1.00
O289   O     0.77321   0.12709   0.24999   0.00000  Uiso   1.00
O290   O     0.83333   0.20626   0.18573   0.00000  Uiso   1.00
O291   O     0.83334   0.12707   0.31427   0.00000  Uiso   1.00
O292   O     0.83334   0.20626   0.31427   0.00000  Uiso   1.00
O293   O     0.83333   0.12707   0.18573   0.00000  Uiso   1.00
O294   O     0.76962   0.04606   0.20547   0.00000  Uiso   1.00
C295   C     0.08748   0.50000   0.25013   0.00000  Uiso   1.00
C296   C     0.31213   0.54205   0.25084   0.00000  Uiso   1.00
C297   C     0.31199   0.45813   0.24944   0.00000  Uiso   1.00
C298   C     0.02138   0.54204   0.25112   0.00000  Uiso   1.00
C299   C     0.13575   0.51459   0.04276   0.00000  Uiso   1.00
C300   C     0.13531   0.46422   0.44912   0.00000  Uiso   1.00
C301   C     0.19717   0.51207   0.45727   0.00000  Uiso   1.00
C302   C     0.19476   0.46280   0.05050   0.00000  Uiso   1.00
C303   C     0.13735   0.52158   0.08871   0.00000  Uiso   1.00
C304   C     0.13410   0.46999   0.40300   0.00000  Uiso   1.00
C305   C     0.19557   0.52002   0.41137   0.00000  Uiso   1.00
C306   C     0.24586   0.50002   0.24996   0.00000  Uiso   1.00
C307   C     0.19791   0.46987   0.09686   0.00000  Uiso   1.00
C308   C     0.16807   0.49844   0.11623   0.00000  Uiso   1.00
C309   C     0.16460   0.49777   0.38366   0.00000  Uiso   1.00
C310   C     0.16519   0.48701   0.02426   0.00000  Uiso   1.00
C311   C     0.16637   0.48623   0.47589   0.00000  Uiso   1.00
C312   C     0.29055   0.50008   0.25009   0.00000  Uiso   1.00
C313   C     0.04279   0.50006   0.25005   0.00000  Uiso   1.00
C314   C     0.10653   0.55454   0.10707   0.00000  Uiso   1.00
C315   C     0.07146   0.52795   0.12732   0.00000  Uiso   1.00
C316   C     0.03459   0.55900   0.13462   0.00000  Uiso   1.00
C317   C     0.16683   0.49994   0.16494   0.00000  Uiso   1.00
C318   C     0.09931   0.44559   0.37608   0.00000  Uiso   1.00
C319   C     0.05769   0.46981   0.37983   0.00000  Uiso   1.00
C320   C     0.02219   0.43751   0.36547   0.00000  Uiso   1.00
C321   C     0.22623   0.55368   0.39346   0.00000  Uiso   1.00
C322   C     0.26186   0.52820   0.37328   0.00000  Uiso   1.00
C323   C     0.29840   0.56027   0.36709   0.00000  Uiso   1.00
C324   C     0.23397   0.44831   0.12451   0.00000  Uiso   1.00
C325   C     0.27591   0.46714   0.11186   0.00000  Uiso   1.00
C326   C     0.31072   0.43461   0.12774   0.00000  Uiso   1.00
C327   C     0.16601   0.49974   0.33501   0.00000  Uiso   1.00
C328   C     0.13516   0.35798   0.22887   0.00000  Uiso   1.00
C329   C     0.19845   0.64239   0.27056   0.00000  Uiso   1.00
C330   C     0.19815   0.35787   0.27117   0.00000  Uiso   1.00
C331   C     0.13487   0.64250   0.22948   0.00000  Uiso   1.00
C332   C     0.02119   0.45813   0.24889   0.00000  Uiso   1.00
Cu333  Cu    0.16667   0.54689   0.25000   0.00000  Uiso   1.00
Cu334  Cu    0.16667   0.45311   0.25000   0.00000  Uiso   1.00
H335   H     0.03706   0.42528   0.24795   0.00000  Uiso   1.00
H336   H     0.11330   0.42956   0.49812   0.00000  Uiso   1.00
H337   H     0.25454   0.52665   0.47138   0.00000  Uiso   1.00
H338   H     0.23203   0.40971   0.04983   0.00000  Uiso   1.00
H339   H     0.04400   0.58953   0.15473   0.00000  Uiso   1.00
H340   H     0.02019   0.57092   0.10246   0.00000  Uiso   1.00
H341   H     0.01138   0.53926   0.15224   0.00000  Uiso   1.00
H342   H     0.06096   0.49959   0.10477   0.00000  Uiso   1.00
H343   H     0.08264   0.51227   0.15916   0.00000  Uiso   1.00
H344   H     0.12267   0.57832   0.13039   0.00000  Uiso   1.00
H345   H     0.09343   0.57852   0.08127   0.00000  Uiso   1.00
H346   H     0.29623   0.57491   0.25144   0.00000  Uiso   1.00
H347   H     0.02734   0.42175   0.33307   0.00000  Uiso   1.00
H348   H     0.01954   0.40943   0.39017   0.00000  Uiso   1.00
H349   H     0.32614   0.45694   0.36261   0.00000  Uiso   1.00
H350   H     0.05355   0.48112   0.41417   0.00000  Uiso   1.00
H351   H     0.05656   0.50106   0.35838   0.00000  Uiso   1.00
H352   H     0.10414   0.44295   0.34063   0.00000  Uiso   1.00
H353   H     0.09764   0.40917   0.38777   0.00000  Uiso   1.00
H354   H     0.28873   0.59123   0.34752   0.00000  Uiso   1.00
H355   H     0.31223   0.57151   0.39966   0.00000  Uiso   1.00
H356   H     0.32221   0.54173   0.34944   0.00000  Uiso   1.00
H357   H     0.29598   0.42527   0.24888   0.00000  Uiso   1.00
H358   H     0.27253   0.49932   0.39536   0.00000  Uiso   1.00
H359   H     0.25118   0.51332   0.34101   0.00000  Uiso   1.00
H360   H     0.21010   0.57767   0.37014   0.00000  Uiso   1.00
H361   H     0.23877   0.57741   0.41963   0.00000  Uiso   1.00
H362   H     0.31002   0.42819   0.16364   0.00000  Uiso   1.00
H363   H     0.30766   0.40109   0.11012   0.00000  Uiso   1.00
H364   H     0.00751   0.45008   0.12101   0.00000  Uiso   1.00
H365   H     0.27718   0.47176   0.07572   0.00000  Uiso   1.00
H366   H     0.28102   0.50165   0.12721   0.00000  Uiso   1.00
H367   H     0.23300   0.45498   0.16016   0.00000  Uiso   1.00
H368   H     0.03742   0.57488   0.25198   0.00000  Uiso   1.00
H369   H     0.23240   0.41008   0.12139   0.00000  Uiso   1.00
H370   H     0.11370   0.40758   0.19214   0.00000  Uiso   1.00
H371   H     0.22160   0.59185   0.30353   0.00000  Uiso   1.00
H372   H     0.21945   0.40724   0.30795   0.00000  Uiso   1.00
H373   H     0.11174   0.59216   0.19664   0.00000  Uiso   1.00
H374   H     0.07891   0.53031   0.02772   0.00000  Uiso   1.00
N375   N     0.16667   0.61736   0.25000   0.00000  Uiso   1.00
N376   N     0.16667   0.38264   0.25000   0.00000  Uiso   1.00
O377   O     0.10655   0.53958   0.24999   0.00000  Uiso   1.00
O378   O     0.23143   0.62140   0.29257   0.00000  Uiso   1.00
O379   O     0.23028   0.37917   0.29468   0.00000  Uiso   1.00
O380   O     0.10189   0.62164   0.20749   0.00000  Uiso   1.00
O381   O     0.10581   0.53472   0.01467   0.00000  Uiso   1.00
O382   O     0.10563   0.43653   0.46679   0.00000  Uiso   1.00
O383   O     0.22802   0.53048   0.48531   0.00000  Uiso   1.00
O384   O     0.22032   0.43326   0.02908   0.00000  Uiso   1.00
O385   O     0.22679   0.46042   0.25000   0.00000  Uiso   1.00
O386   O     0.22679   0.53958   0.25000   0.00000  Uiso   1.00
O387   O     0.10655   0.46042   0.24999   0.00000  Uiso   1.00
O388   O     0.16666   0.53959   0.18573   0.00000  Uiso   1.00
O389   O     0.16667   0.46041   0.31427   0.00000  Uiso   1.00
O390   O     0.16667   0.53959   0.31427   0.00000  Uiso   1.00
O391   O     0.16666   0.46041   0.18573   0.00000  Uiso   1.00
O392   O     0.10295   0.37939   0.20547   0.00000  Uiso   1.00
C393   C     0.42081   0.50000   0.25013   0.00000  Uiso   1.00
C394   C     0.64546   0.54205   0.25084   0.00000  Uiso   1.00
C395   C     0.64532   0.45813   0.24944   0.00000  Uiso   1.00
C396   C     0.35472   0.54204   0.25112   0.00000  Uiso   1.00
C397   C     0.46909   0.51459   0.04276   0.00000  Uiso   1.00
C398   C     0.46864   0.46422   0.44912   0.00000  Uiso   1.00
C399   C     0.53050   0.51207   0.45727   0.00000  Uiso   1.00
C400   C     0.52809   0.46280   0.05050   0.00000  Uiso   1.00
C401   C     0.47068   0.52158   0.08871   0.00000  Uiso   1.00
C402   C     0.46744   0.46999   0.40300   0.00000  Uiso   1.00
C403   C     0.52890   0.52002   0.41137   0.00000  Uiso   1.00
C404   C     0.57920   0.50002   0.24996   0.00000  Uiso   1.00
C405   C     0.53125   0.46987   0.09686   0.00000  Uiso   1.00
C406   C     0.50140   0.49844   0.11623   0.00000  Uiso   1.00
C407   C     0.49793   0.49777   0.38366   0.00000  Uiso   1.00
C408   C     0.49852   0.48701   0.02426   0.00000  Uiso   1.00
C409   C     0.49970   0.48623   0.47589   0.00000  Uiso   1.00
C410   C     0.62389   0.50008   0.25009   0.00000  Uiso   1.00
C411   C     0.37612   0.50006   0.25005   0.00000  Uiso   1.00
C412   C     0.43987   0.55454   0.10707   0.00000  Uiso   1.00
C413   C     0.40480   0.52795   0.12732   0.00000  Uiso   1.00
C414   C     0.36792   0.55900   0.13462   0.00000  Uiso   1.00
C415   C     0.50016   0.49994   0.16494   0.00000  Uiso   1.00
C416   C     0.43264   0.44559   0.37608   0.00000  Uiso   1.00
C417   C     0.39102   0.46981   0.37983   0.00000  Uiso   1.00
C418   C     0.35552   0.43751   0.36547   0.00000  Uiso   1.00
C419   C     0.55957   0.55368   0.39346   0.00000  Uiso   1.00
C420   C     0.59519   0.52820   0.37328   0.00000  Uiso   1.00
C421   C     0.63173   0.56027   0.36709   0.00000  Uiso   1.00
C422   C     0.56731   0.44831   0.12451   0.00000  Uiso   1.00
C423   C     0.60924   0.46714   0.11186   0.00000  Uiso   1.00
C424   C     0.64406   0.43461   0.12774   0.00000  Uiso   1.00
C425   C     0.49934   0.49974   0.33501   0.00000  Uiso   1.00
C426   C     0.46849   0.35798   0.22887   0.00000  Uiso   1.00
C427   C     0.53179   0.64239   0.27056   0.00000  Uiso   1.00
C428   C     0.53149   0.35787   0.27117   0.00000  Uiso   1.00
C429   C     0.46820   0.64250   0.22948   0.00000  Uiso   1.00
C430   C     0.35452   0.45813   0.24889   0.00000  Uiso   1.00
Cu431  Cu    0.50000   0.54689   0.25000   0.00000  Uiso   1.00
Cu432  Cu    0.50000   0.45311   0.25000   0.00000  Uiso   1.00
H433   H     0.37039   0.42528   0.24795   0.00000  Uiso   1.00
H434   H     0.44664   0.42956   0.49812   0.00000  Uiso   1.00
H435   H     0.58787   0.52665   0.47138   0.00000  Uiso   1.00
H436   H     0.56537   0.40971   0.04983   0.00000  Uiso   1.00
H437   H     0.37733   0.58953   0.15473   0.00000  Uiso   1.00
H438   H     0.35352   0.57092   0.10246   0.00000  Uiso   1.00
H439   H     0.34471   0.53926   0.15224   0.00000  Uiso   1.00
H440   H     0.39429   0.49959   0.10477   0.00000  Uiso   1.00
H441   H     0.41597   0.51227   0.15916   0.00000  Uiso   1.00
H442   H     0.45601   0.57832   0.13039   0.00000  Uiso   1.00
H443   H     0.42676   0.57852   0.08127   0.00000  Uiso   1.00
H444   H     0.62956   0.57491   0.25144   0.00000  Uiso   1.00
H445   H     0.36067   0.42175   0.33307   0.00000  Uiso   1.00
H446   H     0.35288   0.40943   0.39017   0.00000  Uiso   1.00
H447   H     0.65947   0.45694   0.36261   0.00000  Uiso   1.00
H448   H     0.38688   0.48112   0.41417   0.00000  Uiso   1.00
H449   H     0.38989   0.50106   0.35838   0.00000  Uiso   1.00
H450   H     0.43747   0.44295   0.34063   0.00000  Uiso   1.00
H451   H     0.43097   0.40917   0.38777   0.00000  Uiso   1.00
H452   H     0.62207   0.59123   0.34752   0.00000  Uiso   1.00
H453   H     0.64557   0.57151   0.39966   0.00000  Uiso   1.00
H454   H     0.65554   0.54173   0.34944   0.00000  Uiso   1.00
H455   H     0.62932   0.42527   0.24888   0.00000  Uiso   1.00
H456   H     0.60587   0.49932   0.39536   0.00000  Uiso   1.00
H457   H     0.58451   0.51332   0.34101   0.00000  Uiso   1.00
H458   H     0.54343   0.57767   0.37014   0.00000  Uiso   1.00
H459   H     0.57210   0.57741   0.41963   0.00000  Uiso   1.00
H460   H     0.64335   0.42819   0.16364   0.00000  Uiso   1.00
H461   H     0.64099   0.40109   0.11012   0.00000  Uiso   1.00
H462   H     0.34084   0.45008   0.12101   0.00000  Uiso   1.00
H463   H     0.61051   0.47176   0.07572   0.00000  Uiso   1.00
H464   H     0.61435   0.50165   0.12721   0.00000  Uiso   1.00
H465   H     0.56633   0.45498   0.16016   0.00000  Uiso   1.00
H466   H     0.37075   0.57488   0.25198   0.00000  Uiso   1.00
H467   H     0.56573   0.41008   0.12139   0.00000  Uiso   1.00
H468   H     0.44703   0.40758   0.19214   0.00000  Uiso   1.00
H469   H     0.55494   0.59185   0.30353   0.00000  Uiso   1.00
H470   H     0.55279   0.40724   0.30795   0.00000  Uiso   1.00
H471   H     0.44508   0.59216   0.19664   0.00000  Uiso   1.00
H472   H     0.41224   0.53031   0.02772   0.00000  Uiso   1.00
N473   N     0.50000   0.61736   0.25000   0.00000  Uiso   1.00
N474   N     0.50000   0.38264   0.25000   0.00000  Uiso   1.00
O475   O     0.43988   0.53958   0.24999   0.00000  Uiso   1.00
O476   O     0.56476   0.62140   0.29257   0.00000  Uiso   1.00
O477   O     0.56361   0.37917   0.29468   0.00000  Uiso   1.00
O478   O     0.43523   0.62164   0.20749   0.00000  Uiso   1.00
O479   O     0.43915   0.53472   0.01467   0.00000  Uiso   1.00
O480   O     0.43897   0.43653   0.46679   0.00000  Uiso   1.00
O481   O     0.56135   0.53048   0.48531   0.00000  Uiso   1.00
O482   O     0.55365   0.43326   0.02908   0.00000  Uiso   1.00
O483   O     0.56012   0.46042   0.25000   0.00000  Uiso   1.00
O484   O     0.56012   0.53958   0.25000   0.00000  Uiso   1.00
O485   O     0.43988   0.46042   0.24999   0.00000  Uiso   1.00
O486   O     0.50000   0.53959   0.18573   0.00000  Uiso   1.00
O487   O     0.50000   0.46041   0.31427   0.00000  Uiso   1.00
O488   O     0.50000   0.53959   0.31427   0.00000  Uiso   1.00
O489   O     0.50000   0.46041   0.18573   0.00000  Uiso   1.00
O490   O     0.43628   0.37939   0.20547   0.00000  Uiso   1.00
C491   C     0.75414   0.50000   0.25013   0.00000  Uiso   1.00
C492   C     0.97879   0.54205   0.25084   0.00000  Uiso   1.00
C493   C     0.97866   0.45813   0.24944   0.00000  Uiso   1.00
C494   C     0.68805   0.54204   0.25112   0.00000  Uiso   1.00
C495   C     0.80242   0.51459   0.04276   0.00000  Uiso   1.00
C496   C     0.80198   0.46422   0.44912   0.00000  Uiso   1.00
C497   C     0.86384   0.51207   0.45727   0.00000  Uiso   1.00
C498   C     0.86143   0.46280   0.05050   0.00000  Uiso   1.00
C499   C     0.80401   0.52158   0.08871   0.00000  Uiso   1.00
C500   C     0.80077   0.46999   0.40300   0.00000  Uiso   1.00
C501   C     0.86224   0.52002   0.41137   0.00000  Uiso   1.00
C502   C     0.91253   0.50002   0.24996   0.00000  Uiso   1.00
C503   C     0.86458   0.46987   0.09686   0.00000  Uiso   1.00
C504   C     0.83474   0.49844   0.11623   0.00000  Uiso   1.00
C505   C     0.83126   0.49777   0.38366   0.00000  Uiso   1.00
C506   C     0.83185   0.48701   0.02426   0.00000  Uiso   1.00
C507   C     0.83303   0.48623   0.47589   0.00000  Uiso   1.00
C508   C     0.95722   0.50008   0.25009   0.00000  Uiso   1.00
C509   C     0.70946   0.50006   0.25005   0.00000  Uiso   1.00
C510   C     0.77320   0.55454   0.10707   0.00000  Uiso   1.00
C511   C     0.73813   0.52795   0.12732   0.00000  Uiso   1.00
C512   C     0.70126   0.55900   0.13462   0.00000  Uiso   1.00
C513   C     0.83350   0.49994   0.16494   0.00000  Uiso   1.00
C514   C     0.76598   0.44559   0.37608   0.00000  Uiso   1.00
C515   C     0.72435   0.46981   0.37983   0.00000  Uiso   1.00
C516   C     0.68885   0.43751   0.36547   0.00000  Uiso   1.00
C517   C     0.89290   0.55368   0.39346   0.00000  Uiso   1.00
C518   C     0.92852   0.52820   0.37328   0.00000  Uiso   1.00
C519   C     0.96506   0.56027   0.36709   0.00000  Uiso   1.00
C520   C     0.90064   0.44831   0.12451   0.00000  Uiso   1.00
C521   C     0.94257   0.46714   0.11186   0.00000  Uiso   1.00
C522   C     0.97739   0.43461   0.12774   0.00000  Uiso   1.00
C523   C     0.83268   0.49974   0.33501   0.00000  Uiso   1.00
C524   C     0.80183   0.35798   0.22887   0.00000  Uiso   1.00
C525   C     0.86512   0.64239   0.27056   0.00000  Uiso   1.00
C526   C     0.86482   0.35787   0.27117   0.00000  Uiso   1.00
C527   C     0.80154   0.64250   0.22948   0.00000  Uiso   1.00
C528   C     0.68785   0.45813   0.24889   0.00000  Uiso   1.00
Cu529  Cu    0.83333   0.54689   0.25000   0.00000  Uiso   1.00
Cu530  Cu    0.83333   0.45311   0.25000   0.00000  Uiso   1.00
H531   H     0.70373   0.42528   0.24795   0.00000  Uiso   1.00
H532   H     0.77997   0.42956   0.49812   0.00000  Uiso   1.00
H533   H     0.92120   0.52665   0.47138   0.00000  Uiso   1.00
H534   H     0.89870   0.40971   0.04983   0.00000  Uiso   1.00
H535   H     0.71067   0.58953   0.15473   0.00000  Uiso   1.00
H536   H     0.68686   0.57092   0.10246   0.00000  Uiso   1.00
H537   H     0.67805   0.53926   0.15224   0.00000  Uiso   1.00
H538   H     0.72762   0.49959   0.10477   0.00000  Uiso   1.00
H539   H     0.74930   0.51227   0.15916   0.00000  Uiso   1.00
H540   H     0.78934   0.57832   0.13039   0.00000  Uiso   1.00
H541   H     0.76010   0.57852   0.08127   0.00000  Uiso   1.00
H542   H     0.96290   0.57491   0.25144   0.00000  Uiso   1.00
H543   H     0.69400   0.42175   0.33307   0.00000  Uiso   1.00
H544   H     0.68621   0.40943   0.39017   0.00000  Uiso   1.00
H545   H     0.99281   0.45694   0.36261   0.00000  Uiso   1.00
H546   H     0.72021   0.48112   0.41417   0.00000  Uiso   1.00
H547   H     0.72323   0.50106   0.35838   0.00000  Uiso   1.00
H548   H     0.77080   0.44295   0.34063   0.00000  Uiso   1.00
H549   H     0.76430   0.40917   0.38777   0.00000  Uiso   1.00
H550   H     0.95540   0.59123   0.34752   0.00000  Uiso   1.00
H551   H     0.97890   0.57151   0.39966   0.00000  Uiso   1.00
H552   H     0.98887   0.54173   0.34944   0.00000  Uiso   1.00
H553   H     0.96265   0.42527   0.24888   0.00000  Uiso   1.00
H554   H     0.93920   0.49932   0.39536   0.00000  Uiso   1.00
H555   H     0.91785   0.51332   0.34101   0.00000  Uiso   1.00
H556   H     0.87676   0.57767   0.37014   0.00000  Uiso   1.00
H557   H     0.90544   0.57741   0.41963   0.00000  Uiso   1.00
H558   H     0.97669   0.42819   0.16364   0.00000  Uiso   1.00
H559   H     0.97433   0.40109   0.11012   0.00000  Uiso   1.00
H560   H     0.67418   0.45008   0.12101   0.00000  Uiso   1.00
H561   H     0.94385   0.47176   0.07572   0.00000  Uiso   1.00
H562   H     0.94769   0.50165   0.12721   0.00000  Uiso   1.00
H563   H     0.89967   0.45498   0.16016   0.00000  Uiso   1.00
H564   H     0.70408   0.57488   0.25198   0.00000  Uiso   1.00
H565   H     0.89906   0.41008   0.12139   0.00000  Uiso   1.00
H566   H     0.78037   0.40758   0.19214   0.00000  Uiso   1.00
H567   H     0.88827   0.59185   0.30353   0.00000  Uiso   1.00
H568   H     0.88612   0.40724   0.30795   0.00000  Uiso   1.00
H569   H     0.77841   0.59216   0.19664   0.00000  Uiso   1.00
H570   H     0.74557   0.53031   0.02772   0.00000  Uiso   1.00
N571   N     0.83333   0.61736   0.25000   0.00000  Uiso   1.00
N572   N     0.83333   0.38264   0.25000   0.00000  Uiso   1.00
O573   O     0.77321   0.53958   0.24999   0.00000  Uiso   1.00
O574   O     0.89810   0.62140   0.29257   0.00000  Uiso   1.00
O575   O     0.89695   0.37917   0.29468   0.00000  Uiso   1.00
O576   O     0.76856   0.62164   0.20749   0.00000  Uiso   1.00
O577   O     0.77248   0.53472   0.01467   0.00000  Uiso   1.00
O578   O     0.77230   0.43653   0.46679   0.00000  Uiso   1.00
O579   O     0.89468   0.53048   0.48531   0.00000  Uiso   1.00
O580   O     0.88699   0.43326   0.02908   0.00000  Uiso   1.00
O581   O     0.89345   0.46042   0.25000   0.00000  Uiso   1.00
O582   O     0.89345   0.53958   0.25000   0.00000  Uiso   1.00
O583   O     0.77321   0.46042   0.24999   0.00000  Uiso   1.00
O584   O     0.83333   0.53959   0.18573   0.00000  Uiso   1.00
O585   O     0.83334   0.46041   0.31427   0.00000  Uiso   1.00
O586   O     0.83334   0.53959   0.31427   0.00000  Uiso   1.00
O587   O     0.83333   0.46041   0.18573   0.00000  Uiso   1.00
O588   O     0.76962   0.37939   0.20547   0.00000  Uiso   1.00
C589   C     0.08748   0.83333   0.25013   0.00000  Uiso   1.00
C590   C     0.31213   0.87539   0.25084   0.00000  Uiso   1.00
C591   C     0.31199   0.79146   0.24944   0.00000  Uiso   1.00
C592   C     0.02138   0.87537   0.25112   0.00000  Uiso   1.00
C593   C     0.13575   0.84792   0.04276   0.00000  Uiso   1.00
C594   C     0.13531   0.79755   0.44912   0.00000  Uiso   1.00
C595   C     0.19717   0.84541   0.45727   0.00000  Uiso   1.00
C596   C     0.19476   0.79613   0.05050   0.00000  Uiso   1.00
C597   C     0.13735   0.85492   0.08871   0.00000  Uiso   1.00
C598   C     0.13410   0.80332   0.40300   0.00000  Uiso   1.00
C599   C     0.19557   0.85335   0.41137   0.00000  Uiso   1.00
C600   C     0.24586   0.83335   0.24996   0.00000  Uiso   1.00
C601   C     0.19791   0.80321   0.09686   0.00000  Uiso   1.00
C602   C     0.16807   0.83177   0.11623   0.00000  Uiso   1.00
C603   C     0.16460   0.83110   0.38366   0.00000  Uiso   1.00
C604   C     0.16519   0.82035   0.02426   0.00000  Uiso   1.00
C605   C     0.16637   0.81957   0.47589   0.00000  Uiso   1.00
C606   C     0.29055   0.83341   0.25009   0.00000  Uiso   1.00
C607   C     0.04279   0.83339   0.25005   0.00000  Uiso   1.00
C608   C     0.10653   0.88788   0.10707   0.00000  Uiso   1.00
C609   C     0.07146   0.86128   0.12732   0.00000  Uiso   1.00
C610   C     0.03459   0.89233   0.13462   0.00000  Uiso   1.00
C611   C     0.16683   0.83327   0.16494   0.00000  Uiso   1.00
C612   C     0.09931   0.77892   0.37608   0.00000  Uiso   1.00
C613   C     0.05769   0.80315   0.37983   0.00000  Uiso   1.00
C614   C     0.02219   0.77084   0.36547   0.00000  Uiso   1.00
C615   C     0.22623   0.88701   0.39346   0.00000  Uiso   1.00
C616   C     0.26186   0.86154   0.37328   0.00000  Uiso   1.00
C617   C     0.29840   0.89360   0.36709   0.00000  Uiso   1.00
C618   C     0.23397   0.78164   0.12451   0.00000  Uiso   1.00
C619   C     0.27591   0.80048   0.11186   0.00000  Uiso   1.00
C620   C     0.31072   0.76794   0.12774   0.00000  Uiso   1.00
C621   C     0.16601   0.83307   0.33501   0.00000  Uiso   1.00
C622   C     0.13516   0.69131   0.22887   0.00000  Uiso   1.00
C623   C     0.19845   0.97572   0.27056   0.00000  Uiso   1.00
C624   C     0.19815   0.69120   0.27117   0.00000  Uiso   1.00
C625   C     0.13487   0.97583   0.22948   0.00000  Uiso   1.00
C626   C     0.02119   0.79147   0.24889   0.00000  Uiso   1.00
Cu627  Cu    0.16667   0.88022   0.25000   0.00000  Uiso   1.00
Cu628  Cu    0.16667   0.78645   0.25000   0.00000  Uiso   1.00
H629   H     0.03706   0.75862   0.24795   0.00000  Uiso   1.00
H630   H     0.11330   0.76289   0.49812   0.00000  Uiso   1.00
H631   H     0.25454   0.85998   0.47138   0.00000  Uiso   1.00
H632   H     0.23203   0.74304   0.04983   0.00000  Uiso   1.00
H633   H     0.04400   0.92286   0.15473   0.00000  Uiso   1.00
H634   H     0.02019   0.90425   0.10246   0.00000  Uiso   1.00
H635   H     0.01138   0.87259   0.15224   0.00000  Uiso   1.00
H636   H     0.06096   0.83292   0.10477   0.00000  Uiso   1.00
H637   H     0.08264   0.84560   0.15916   0.00000  Uiso   1.00
H638   H     0.12267   0.91165   0.13039   0.00000  Uiso   1.00
H639   H     0.09343   0.91186   0.08127   0.00000  Uiso   1.00
H640   H     0.29623   0.90824   0.25144   0.00000  Uiso   1.00
H641   H     0.02734   0.75509   0.33307   0.00000  Uiso   1.00
H642   H     0.01954   0.74276   0.39017   0.00000  Uiso   1.00
H643   H     0.32614   0.79027   0.36261   0.00000  Uiso   1.00
H644   H     0.05355   0.81445   0.41417   0.00000  Uiso   1.00
H645   H     0.05656   0.83440   0.35838   0.00000  Uiso   1.00
H646   H     0.10414   0.77629   0.34063   0.00000  Uiso   1.00
H647   H     0.09764   0.74251   0.38777   0.00000  Uiso   1.00
H648   H     0.28873   0.92456   0.34752   0.00000  Uiso   1.00
H649   H     0.31223   0.90484   0.39966   0.00000  Uiso   1.00
H650   H     0.32221   0.87506   0.34944   0.00000  Uiso   1.00
H651   H     0.29598   0.75860   0.24888   0.00000  Uiso   1.00
H652   H     0.27253   0.83266   0.39536   0.00000  Uiso   1.00
H653   H     0.25118   0.84665   0.34101   0.00000  Uiso   1.00
H654   H     0.21010   0.91100   0.37014   0.00000  Uiso   1.00
H655   H     0.23877   0.91074   0.41963   0.00000  Uiso   1.00
H656   H     0.31002   0.76153   0.16364   0.00000  Uiso   1.00
H657   H     0.30766   0.73442   0.11012   0.00000  Uiso   1.00
H658   H     0.00751   0.78341   0.12101   0.00000  Uiso   1.00
H659   H     0.27718   0.80510   0.07572   0.00000  Uiso   1.00
H660   H     0.28102   0.83498   0.12721   0.00000  Uiso   1.00
H661   H     0.23300   0.78831   0.16016   0.00000  Uiso   1.00
H662   H     0.03742   0.90821   0.25198   0.00000  Uiso   1.00
H663   H     0.23240   0.74341   0.12139   0.00000  Uiso   1.00
H664   H     0.11370   0.74091   0.19214   0.00000  Uiso   1.00
H665   H     0.22160   0.92518   0.30353   0.00000  Uiso   1.00
H666   H     0.21945   0.74058   0.30795   0.00000  Uiso   1.00
H667   H     0.11174   0.92550   0.19664   0.00000  Uiso   1.00
H668   H     0.07891   0.86364   0.02772   0.00000  Uiso   1.00
N669   N     0.16667   0.95069   0.25000   0.00000  Uiso   1.00
N670   N     0.16667   0.71598   0.25000   0.00000  Uiso   1.00
O671   O     0.10655   0.87291   0.24999   0.00000  Uiso   1.00
O672   O     0.23143   0.95473   0.29257   0.00000  Uiso   1.00
O673   O     0.23028   0.71251   0.29468   0.00000  Uiso   1.00
O674   O     0.10189   0.95498   0.20749   0.00000  Uiso   1.00
O675   O     0.10581   0.86805   0.01467   0.00000  Uiso   1.00
O676   O     0.10563   0.76986   0.46679   0.00000  Uiso   1.00
O677   O     0.22802   0.86381   0.48531   0.00000  Uiso   1.00
O678   O     0.22032   0.76660   0.02908   0.00000  Uiso   1.00
O679   O     0.22679   0.79375   0.25000   0.00000  Uiso   1.00
O680   O     0.22679   0.87291   0.25000   0.00000  Uiso   1.00
O681   O     0.10655   0.79375   0.24999   0.00000  Uiso   1.00
O682   O     0.16666   0.87293   0.18573   0.00000  Uiso   1.00
O683   O     0.16667   0.79374   0.31427   0.00000  Uiso   1.00
O684   O     0.16667   0.87293   0.31427   0.00000  Uiso   1.00
O685   O     0.16666   0.79374   0.18573   0.00000  Uiso   1.00
O686   O     0.10295   0.71272   0.20547   0.00000  Uiso   1.00
C687   C     0.42081   0.83333   0.25013   0.00000  Uiso   1.00
C688   C     0.64546   0.87539   0.25084   0.00000  Uiso   1.00
C689   C     0.64532   0.79146   0.24944   0.00000  Uiso   1.00
C690   C     0.35472   0.87537   0.25112   0.00000  Uiso   1.00
C691   C     0.46909   0.84792   0.04276   0.00000  Uiso   1.00
C692   C     0.46864   0.79755   0.44912   0.00000  Uiso   1.00
C693   C     0.53050   0.84541   0.45727   0.00000  Uiso   1.00
C694   C     0.52809   0.79613   0.05050   0.00000  Uiso   1.00
C695   C     0.47068   0.85492   0.08871   0.00000  Uiso   1.00
C696   C     0.46744   0.80332   0.40300   0.00000  Uiso   1.00
C697   C     0.52890   0.85335   0.41137   0.00000  Uiso   1.00
C698   C     0.57920   0.83335   0.24996   0.00000  Uiso   1.00
C699   C     0.53125   0.80321   0.09686   0.00000  Uiso   1.00
C700   C     0.50140   0.83177   0.11623   0.00000  Uiso   1.00
C701   C     0.49793   0.83110   0.38366   0.00000  Uiso   1.00
C702   C     0.49852   0.82035   0.02426   0.00000  Uiso   1.00
C703   C     0.49970   0.81957   0.47589   0.00000  Uiso   1.00
C704   C     0.62389   0.83341   0.25009   0.00000  Uiso   1.00
C705   C     0.37612   0.83339   0.25005   0.00000  Uiso   1.00
C706   C     0.43987   0.88788   0.10707   0.00000  Uiso   1.00
C707   C     0.40480   0.86128   0.12732   0.00000  Uiso   1.00
C708   C     0.36792   0.89233   0.13462   0.00000  Uiso   1.00
C709   C     0.50016   0.83327   0.16494   0.00000  Uiso   1.00
C710   C     0.43264   0.77892   0.37608   0.00000  Uiso   1.00
C711   C     0.39102   0.80315   0.37983   0.00000  Uiso   1.00
C712   C     0.35552   0.77084   0.36547   0.00000  Uiso   1.00
C713   C     0.55957   0.88701   0.39346   0.00000  Uiso   1.00
C714   C     0.59519   0.86154   0.37328   0.00000  Uiso   1.00
C715   C     0.63173   0.89360   0.36709   0.00000  Uiso   1.00
C716   C     0.56731   0.78164   0.12451   0.00000  Uiso   1.00
C717   C     0.60924   0.80048   0.11186   0.00000  Uiso   1.00
C718   C     0.64406   0.76794   0.12774   0.00000  Uiso   1.00
C719   C     0.49934   0.83307   0.33501   0.00000  Uiso   1.00
C720   C     0.46849   0.69131   0.22887   0.00000  Uiso   1.00
C721   C     0.53179   0.97572   0.27056   0.00000  Uiso   1.00
C722   C     0.53149   0.69120   0.27117   0.00000  Uiso   1.00
C723   C     0.46820   0.97583   0.22948   0.00000  Uiso   1.00
C724   C     0.35452   0.79147   0.24889   0.00000  Uiso   1.00
Cu725  Cu    0.50000   0.88022   0.25000   0.00000  Uiso   1.00
Cu726  Cu    0.50000   0.78645   0.25000   0.00000  Uiso   1.00
H727   H     0.37039   0.75862   0.24795   0.00000  Uiso   1.00
H728   H     0.44664   0.76289   0.49812   0.00000  Uiso   1.00
H729   H     0.58787   0.85998   0.47138   0.00000  Uiso   1.00
H730   H     0.56537   0.74304   0.04983   0.00000  Uiso   1.00
H731   H     0.37733   0.92286   0.15473   0.00000  Uiso   1.00
H732   H     0.35352   0.90425   0.10246   0.00000  Uiso   1.00
H733   H     0.34471   0.87259   0.15224   0.00000  Uiso   1.00
H734   H     0.39429   0.83292   0.10477   0.00000  Uiso   1.00
H735   H     0.41597   0.84560   0.15916   0.00000  Uiso   1.00
H736   H     0.45601   0.91165   0.13039   0.00000  Uiso   1.00
H737   H     0.42676   0.91186   0.08127   0.00000  Uiso   1.00
H738   H     0.62956   0.90824   0.25144   0.00000  Uiso   1.00
H739   H     0.36067   0.75509   0.33307   0.00000  Uiso   1.00
H740   H     0.35288   0.74276   0.39017   0.00000  Uiso   1.00
H741   H     0.65947   0.79027   0.36261   0.00000  Uiso   1.00
H742   H     0.38688   0.81445   0.41417   0.00000  Uiso   1.00
H743   H     0.38989   0.83440   0.35838   0.00000  Uiso   1.00
H744   H     0.43747   0.77629   0.34063   0.00000  Uiso   1.00
H745   H     0.43097   0.74251   0.38777   0.00000  Uiso   1.00
H746   H     0.62207   0.92456   0.34752   0.00000  Uiso   1.00
H747   H     0.64557   0.90484   0.39966   0.00000  Uiso   1.00
H748   H     0.65554   0.87506   0.34944   0.00000  Uiso   1.00
H749   H     0.62932   0.75860   0.24888   0.00000  Uiso   1.00
H750   H     0.60587   0.83266   0.39536   0.00000  Uiso   1.00
H751   H     0.58451   0.84665   0.34101   0.00000  Uiso   1.00
H752   H     0.54343   0.91100   0.37014   0.00000  Uiso   1.00
H753   H     0.57210   0.91074   0.41963   0.00000  Uiso   1.00
H754   H     0.64335   0.76153   0.16364   0.00000  Uiso   1.00
H755   H     0.64099   0.73442   0.11012   0.00000  Uiso   1.00
H756   H     0.34084   0.78341   0.12101   0.00000  Uiso   1.00
H757   H     0.61051   0.80510   0.07572   0.00000  Uiso   1.00
H758   H     0.61435   0.83498   0.12721   0.00000  Uiso   1.00
H759   H     0.56633   0.78831   0.16016   0.00000  Uiso   1.00
H760   H     0.37075   0.90821   0.25198   0.00000  Uiso   1.00
H761   H     0.56573   0.74341   0.12139   0.00000  Uiso   1.00
H762   H     0.44703   0.74091   0.19214   0.00000  Uiso   1.00
H763   H     0.55494   0.92518   0.30353   0.00000  Uiso   1.00
H764   H     0.55279   0.74058   0.30795   0.00000  Uiso   1.00
H765   H     0.44508   0.92550   0.19664   0.00000  Uiso   1.00
H766   H     0.41224   0.86364   0.02772   0.00000  Uiso   1.00
N767   N     0.50000   0.95069   0.25000   0.00000  Uiso   1.00
N768   N     0.50000   0.71598   0.25000   0.00000  Uiso   1.00
O769   O     0.43988   0.87291   0.24999   0.00000  Uiso   1.00
O770   O     0.56476   0.95473   0.29257   0.00000  Uiso   1.00
O771   O     0.56361   0.71251   0.29468   0.00000  Uiso   1.00
O772   O     0.43523   0.95498   0.20749   0.00000  Uiso   1.00
O773   O     0.43915   0.86805   0.01467   0.00000  Uiso   1.00
O774   O     0.43897   0.76986   0.46679   0.00000  Uiso   1.00
O775   O     0.56135   0.86381   0.48531   0.00000  Uiso   1.00
O776   O     0.55365   0.76660   0.02908   0.00000  Uiso   1.00
O777   O     0.56012   0.79375   0.25000   0.00000  Uiso   1.00
O778   O     0.56012   0.87291   0.25000   0.00000  Uiso   1.00
O779   O     0.43988   0.79375   0.24999   0.00000  Uiso   1.00
O780   O     0.50000   0.87293   0.18573   0.00000  Uiso   1.00
O781   O     0.50000   0.79374   0.31427   0.00000  Uiso   1.00
O782   O     0.50000   0.87293   0.31427   0.00000  Uiso   1.00
O783   O     0.50000   0.79374   0.18573   0.00000  Uiso   1.00
O784   O     0.43628   0.71272   0.20547   0.00000  Uiso   1.00
C785   C     0.75414   0.83333   0.25013   0.00000  Uiso   1.00
C786   C     0.97879   0.87539   0.25084   0.00000  Uiso   1.00
C787   C     0.97866   0.79146   0.24944   0.00000  Uiso   1.00
C788   C     0.68805   0.87537   0.25112   0.00000  Uiso   1.00
C789   C     0.80242   0.84792   0.04276   0.00000  Uiso   1.00
C790   C     0.80198   0.79755   0.44912   0.00000  Uiso   1.00
C791   C     0.86384   0.84541   0.45727   0.00000  Uiso   1.00
C792   C     0.86143   0.79613   0.05050   0.00000  Uiso   1.00
C793   C     0.80401   0.85492   0.08871   0.00000  Uiso   1.00
C794   C     0.80077   0.80332   0.40300   0.00000  Uiso   1.00
C795   C     0.86224   0.85335   0.41137   0.00000  Uiso   1.00
C796   C     0.91253   0.83335   0.24996   0.00000  Uiso   1.00
C797   C     0.86458   0.80321   0.09686   0.00000  Uiso   1.00
C798   C     0.83474   0.83177   0.11623   0.00000  Uiso   1.00
C799   C     0.83126   0.83110   0.38366   0.00000  Uiso   1.00
C800   C     0.83185   0.82035   0.02426   0.00000  Uiso   1.00
C801   C     0.83303   0.81957   0.47589   0.00000  Uiso   1.00
C802   C     0.95722   0.83341   0.25009   0.00000  Uiso   1.00
C803   C     0.70946   0.83339   0.25005   0.00000  Uiso   1.00
C804   C     0.77320   0.88788   0.10707   0.00000  Uiso   1.00
C805   C     0.73813   0.86128   0.12732   0.00000  Uiso   1.00
C806   C     0.70126   0.89233   0.13462   0.00000  Uiso   1.00
C807   C     0.83350   0.83327   0.16494   0.00000  Uiso   1.00
C808   C     0.76598   0.77892   0.37608   0.00000  Uiso   1.00
C809   C     0.72435   0.80315   0.37983   0.00000  Uiso   1.00
C810   C     0.68885   0.77084   0.36547   0.00000  Uiso   1.00
C811   C     0.89290   0.88701   0.39346   0.00000  Uiso   1.00
C812   C     0.92852   0.86154   0.37328   0.00000  Uiso   1.00
C813   C     0.96506   0.89360   0.36709   0.00000  Uiso   1.00
C814   C     0.90064   0.78164   0.12451   0.00000  Uiso   1.00
C815   C     0.94257   0.80048   0.11186   0.00000  Uiso   1.00
C816   C     0.97739   0.76794   0.12774   0.00000  Uiso   1.00
C817   C     0.83268   0.83307   0.33501   0.00000  Uiso   1.00
C818   C     0.80183   0.69131   0.22887   0.00000  Uiso   1.00
C819   C     0.86512   0.97572   0.27056   0.00000  Uiso   1.00
C820   C     0.86482   0.69120   0.27117   0.00000  Uiso   1.00
C821   C     0.80154   0.97583   0.22948   0.00000  Uiso   1.00
C822   C     0.68785   0.79147   0.24889   0.00000  Uiso   1.00
Cu823  Cu    0.83333   0.88022   0.25000   0.00000  Uiso   1.00
Cu824  Cu    0.83333   0.78645   0.25000   0.00000  Uiso   1.00
H825   H     0.70373   0.75862   0.24795   0.00000  Uiso   1.00
H826   H     0.77997   0.76289   0.49812   0.00000  Uiso   1.00
H827   H     0.92120   0.85998   0.47138   0.00000  Uiso   1.00
H828   H     0.89870   0.74304   0.04983   0.00000  Uiso   1.00
H829   H     0.71067   0.92286   0.15473   0.00000  Uiso   1.00
H830   H     0.68686   0.90425   0.10246   0.00000  Uiso   1.00
H831   H     0.67805   0.87259   0.15224   0.00000  Uiso   1.00
H832   H     0.72762   0.83292   0.10477   0.00000  Uiso   1.00
H833   H     0.74930   0.84560   0.15916   0.00000  Uiso   1.00
H834   H     0.78934   0.91165   0.13039   0.00000  Uiso   1.00
H835   H     0.76010   0.91186   0.08127   0.00000  Uiso   1.00
H836   H     0.96290   0.90824   0.25144   0.00000  Uiso   1.00
H837   H     0.69400   0.75509   0.33307   0.00000  Uiso   1.00
H838   H     0.68621   0.74276   0.39017   0.00000  Uiso   1.00
H839   H     0.99281   0.79027   0.36261   0.00000  Uiso   1.00
H840   H     0.72021   0.81445   0.41417   0.00000  Uiso   1.00
H841   H     0.72323   0.83440   0.35838   0.00000  Uiso   1.00
H842   H     0.77080   0.77629   0.34063   0.00000  Uiso   1.00
H843   H     0.76430   0.74251   0.38777   0.00000  Uiso   1.00
H844   H     0.95540   0.92456   0.34752   0.00000  Uiso   1.00
H845   H     0.97890   0.90484   0.39966   0.00000  Uiso   1.00
H846   H     0.98887   0.87506   0.34944   0.00000  Uiso   1.00
H847   H     0.96265   0.75860   0.24888   0.00000  Uiso   1.00
H848   H     0.93920   0.83266   0.39536   0.00000  Uiso   1.00
H849   H     0.91785   0.84665   0.34101   0.00000  Uiso   1.00
H850   H     0.87676   0.91100   0.37014   0.00000  Uiso   1.00
H851   H     0.90544   0.91074   0.41963   0.00000  Uiso   1.00
H852   H     0.97669   0.76153   0.16364   0.00000  Uiso   1.00
H853   H     0.97433   0.73442   0.11012   0.00000  Uiso   1.00
H854   H     0.67418   0.78341   0.12101   0.00000  Uiso   1.00
H855   H     0.94385   0.80510   0.07572   0.00000  Uiso   1.00
H856   H     0.94769   0.83498   0.12721   0.00000  Uiso   1.00
H857   H     0.89967   0.78831   0.16016   0.00000  Uiso   1.00
H858   H     0.70408   0.90821   0.25198   0.00000  Uiso   1.00
H859   H     0.89906   0.74341   0.12139   0.00000  Uiso   1.00
H860   H     0.78037   0.74091   0.19214   0.00000  Uiso   1.00
H861   H     0.88827   0.92518   0.30353   0.00000  Uiso   1.00
H862   H     0.88612   0.74058   0.30795   0.00000  Uiso   1.00
H863   H     0.77841   0.92550   0.19664   0.00000  Uiso   1.00
H864   H     0.74557   0.86364   0.02772   0.00000  Uiso   1.00
N865   N     0.83333   0.95069   0.25000   0.00000  Uiso   1.00
N866   N     0.83333   0.71598   0.25000   0.00000  Uiso   1.00
O867   O     0.77321   0.87291   0.24999   0.00000  Uiso   1.00
O868   O     0.89810   0.95473   0.29257   0.00000  Uiso   1.00
O869   O     0.89695   0.71251   0.29468   0.00000  Uiso   1.00
O870   O     0.76856   0.95498   0.20749   0.00000  Uiso   1.00
O871   O     0.77248   0.86805   0.01467   0.00000  Uiso   1.00
O872   O     0.77230   0.76986   0.46679   0.00000  Uiso   1.00
O873   O     0.89468   0.86381   0.48531   0.00000  Uiso   1.00
O874   O     0.88699   0.76660   0.02908   0.00000  Uiso   1.00
O875   O     0.89345   0.79375   0.25000   0.00000  Uiso   1.00
O876   O     0.89345   0.87291   0.25000   0.00000  Uiso   1.00
O877   O     0.77321   0.79375   0.24999   0.00000  Uiso   1.00
O878   O     0.83333   0.87293   0.18573   0.00000  Uiso   1.00
O879   O     0.83334   0.79374   0.31427   0.00000  Uiso   1.00
O880   O     0.83334   0.87293   0.31427   0.00000  Uiso   1.00
O881   O     0.83333   0.79374   0.18573   0.00000  Uiso   1.00
O882   O     0.76962   0.71272   0.20547   0.00000  Uiso   1.00
C883   C     0.08748   0.16667   0.75013   0.00000  Uiso   1.00
C884   C     0.31213   0.20872   0.75084   0.00000  Uiso   1.00
C885   C     0.31199   0.12480   0.74944   0.00000  Uiso   1.00
C886   C     0.02138   0.20870   0.75112   0.00000  Uiso   1.00
C887   C     0.13575   0.18125   0.54276   0.00000  Uiso   1.00
C888   C     0.13531   0.13089   0.94912   0.00000  Uiso   1.00
C889   C     0.19717   0.17874   0.95727   0.00000  Uiso   1.00
C890   C     0.19476   0.12946   0.55050   0.00000  Uiso   1.00
C891   C     0.13735   0.18825   0.58871   0.00000  Uiso   1.00
C892   C     0.13410   0.13666   0.90300   0.00000  Uiso   1.00
C893   C     0.19557   0.18668   0.91137   0.00000  Uiso   1.00
C894   C     0.24586   0.16669   0.74996   0.00000  Uiso   1.00
C895   C     0.19791   0.13654   0.59686   0.00000  Uiso   1.00
C896   C     0.16807   0.16511   0.61623   0.00000  Uiso   1.00
C897   C     0.16460   0.16444   0.88366   0.00000  Uiso   1.00
C898   C     0.16519   0.15368   0.52426   0.00000  Uiso   1.00
C899   C     0.16637   0.15290   0.97589   0.00000  Uiso   1.00
C900   C     0.29055   0.16674   0.75009   0.00000  Uiso   1.00
C901   C     0.04279   0.16672   0.75005   0.00000  Uiso   1.00
C902   C     0.10653   0.22121   0.60707   0.00000  Uiso   1.00
C903   C     0.07146   0.19462   0.62732   0.00000  Uiso   1.00
C904   C     0.03459   0.22566   0.63462   0.00000  Uiso   1.00
C905   C     0.16683   0.16661   0.66494   0.00000  Uiso   1.00
C906   C     0.09931   0.11226   0.87608   0.00000  Uiso   1.00
C907   C     0.05769   0.13648   0.87983   0.00000  Uiso   1.00
C908   C     0.02219   0.10417   0.86547   0.00000  Uiso   1.00
C909   C     0.22623   0.22034   0.89346   0.00000  Uiso   1.00
C910   C     0.26186   0.19487   0.87328   0.00000  Uiso   1.00
C911   C     0.29840   0.22694   0.86709   0.00000  Uiso   1.00
C912   C     0.23397   0.11498   0.62451   0.00000  Uiso   1.00
C913   C     0.27591   0.13381   0.61186   0.00000  Uiso   1.00
C914   C     0.31072   0.10128   0.62774   0.00000  Uiso   1.00
C915   C     0.16601   0.16641   0.83501   0.00000  Uiso   1.00
C916   C     0.13516   0.02464   0.72887   0.00000  Uiso   1.00
C917   C     0.19845   0.30905   0.77056   0.00000  Uiso   1.00
C918   C     0.19815   0.02453   0.77117   0.00000  Uiso   1.00
C919   C     0.13487   0.30917   0.72948   0.00000  Uiso   1.00
C920   C     0.02119   0.12480   0.74889   0.00000  Uiso   1.00
Cu921  Cu    0.16667   0.21355   0.75000   0.00000  Uiso   1.00
Cu922  Cu    0.16667   0.11978   0.75000   0.00000  Uiso   1.00
H923   H     0.03706   0.09195   0.74795   0.00000  Uiso   1.00
H924   H     0.11330   0.09622   0.99812   0.00000  Uiso   1.00
H925   H     0.25454   0.19331   0.97138   0.00000  Uiso   1.00
H926   H     0.23203   0.07638   0.54983   0.00000  Uiso   1.00
H927   H     0.04400   0.25619   0.65473   0.00000  Uiso   1.00
H928   H     0.02019   0.23758   0.60246   0.00000  Uiso   1.00
H929   H     0.01138   0.20593   0.65224   0.00000  Uiso   1.00
H930   H     0.06096   0.16626   0.60477   0.00000  Uiso   1.00
H931   H     0.08264   0.17894   0.65916   0.00000  Uiso   1.00
H932   H     0.12267   0.24499   0.63039   0.00000  Uiso   1.00
H933   H     0.09343   0.24519   0.58127   0.00000  Uiso   1.00
H934   H     0.29623   0.24157   0.75144   0.00000  Uiso   1.00
H935   H     0.02734   0.08842   0.83307   0.00000  Uiso   1.00
H936   H     0.01954   0.07610   0.89017   0.00000  Uiso   1.00
H937   H     0.32614   0.12361   0.86261   0.00000  Uiso   1.00
H938   H     0.05355   0.14779   0.91417   0.00000  Uiso   1.00
H939   H     0.05656   0.16773   0.85838   0.00000  Uiso   1.00
H940   H     0.10414   0.10962   0.84063   0.00000  Uiso   1.00
H941   H     0.09764   0.07584   0.88777   0.00000  Uiso   1.00
H942   H     0.28873   0.25789   0.84752   0.00000  Uiso   1.00
H943   H     0.31223   0.23817   0.89966   0.00000  Uiso   1.00
H944   H     0.32221   0.20840   0.84944   0.00000  Uiso   1.00
H945   H     0.29598   0.09193   0.74888   0.00000  Uiso   1.00
H946   H     0.27253   0.16599   0.89536   0.00000  Uiso   1.00
H947   H     0.25118   0.17998   0.84101   0.00000  Uiso   1.00
H948   H     0.21010   0.24433   0.87014   0.00000  Uiso   1.00
H949   H     0.23877   0.24408   0.91963   0.00000  Uiso   1.00
H950   H     0.31002   0.09486   0.66364   0.00000  Uiso   1.00
H951   H     0.30766   0.06776   0.61012   0.00000  Uiso   1.00
H952   H     0.00751   0.11675   0.62101   0.00000  Uiso   1.00
H953   H     0.27718   0.13843   0.57572   0.00000  Uiso   1.00
H954   H     0.28102   0.16831   0.62721   0.00000  Uiso   1.00
H955   H     0.23300   0.12164   0.66016   0.00000  Uiso   1.00
H956   H     0.03742   0.24154   0.75198   0.00000  Uiso   1.00
H957   H     0.23240   0.07674   0.62139   0.00000  Uiso   1.00
H958   H     0.11370   0.07424   0.69214   0.00000  Uiso   1.00
H959   H     0.22160   0.25852   0.80353   0.00000  Uiso   1.00
H960   H     0.21945   0.07391   0.80795   0.00000  Uiso   1.00
H961   H     0.11174   0.25883   0.69664   0.00000  Uiso   1.00
H962   H     0.07891   0.19697   0.52772   0.00000  Uiso   1.00
N963   N     0.16667   0.28402   0.75000   0.00000  Uiso   1.00
N964   N     0.16667   0.04931   0.75000   0.00000  Uiso   1.00
O965   O     0.10655   0.20625   0.74999   0.00000  Uiso   1.00
O966   O     0.23143   0.28807   0.79257   0.00000  Uiso   1.00
O967   O     0.23028   0.04584   0.79468   0.00000  Uiso   1.00
O968   O     0.10189   0.28831   0.70749   0.00000  Uiso   1.00
O969   O     0.10581   0.20138   0.51467   0.00000  Uiso   1.00
O970   O     0.10563   0.10320   0.96679   0.00000  Uiso   1.00
O971   O     0.22802   0.19714   0.98531   0.00000  Uiso   1.00
O972   O     0.22032   0.09993   0.52908   0.00000  Uiso   1.00
O973   O     0.22679   0.12709   0.75000   0.00000  Uiso   1.00
O974   O     0.22679   0.20625   0.75000   0.00000  Uiso   1.00
O975   O     0.10655   0.12709   0.74999   0.00000  Uiso   1.00
O976   O     0.16666   0.20626   0.68573   0.00000  Uiso   1.00
O977   O     0.16667   0.12707   0.81427   0.00000  Uiso   1.00
O978   O     0.16667   0.20626   0.81427   0.00000  Uiso   1.00
O979   O     0.16666   0.12707   0.68573   0.00000  Uiso   1.00
O980   O     0.10295   0.04606   0.70547   0.00000  Uiso   1.00
C981   C     0.42081   0.16667   0.75013   0.00000  Uiso   1.00
C982   C     0.64546   0.20872   0.75084   0.00000  Uiso   1.00
C983   C     0.64532   0.12480   0.74944   0.00000  Uiso   1.00
C984   C     0.35472   0.20870   0.75112   0.00000  Uiso   1.00
C985   C     0.46909   0.18125   0.54276   0.00000  Uiso   1.00
C986   C     0.46864   0.13089   0.94912   0.00000  Uiso   1.00
C987   C     0.53050   0.17874   0.95727   0.00000  Uiso   1.00
C988   C     0.52809   0.12946   0.55050   0.00000  Uiso   1.00
C989   C     0.47068   0.18825   0.58871   0.00000  Uiso   1.00
C990   C     0.46744   0.13666   0.90300   0.00000  Uiso   1.00
C991   C     0.52890   0.18668   0.91137   0.00000  Uiso   1.00
C992   C     0.57920   0.16669   0.74996   0.00000  Uiso   1.00
C993   C     0.53125   0.13654   0.59686   0.00000  Uiso   1.00
C994   C     0.50140   0.16511   0.61623   0.00000  Uiso   1.00
C995   C     0.49793   0.16444   0.88366   0.00000  Uiso   1.00
C996   C     0.49852   0.15368   0.52426   0.00000  Uiso   1.00
C997   C     0.49970   0.15290   0.97589   0.00000  Uiso   1.00
C998   C     0.62389   0.16674   0.75009   0.00000  Uiso   1.00
C999   C     0.37612   0.16672   0.75005   0.00000  Uiso   1.00
C1000  C     0.43987   0.22121   0.60707   0.00000  Uiso   1.00
C1001  C     0.40480   0.19462   0.62732   0.00000  Uiso   1.00
C1002  C     0.36792   0.22566   0.63462   0.00000  Uiso   1.00
C1003  C     0.50016   0.16661   0.66494   0.00000  Uiso   1.00
C1004  C     0.43264   0.11226   0.87608   0.00000  Uiso   1.00
C1005  C     0.39102   0.13648   0.87983   0.00000  Uiso   1.00
C1006  C     0.35552   0.10417   0.86547   0.00000  Uiso   1.00
C1007  C     0.55957   0.22034   0.89346   0.00000  Uiso   1.00
C1008  C     0.59519   0.19487   0.87328   0.00000  Uiso   1.00
C1009  C     0.63173   0.22694   0.86709   0.00000  Uiso   1.00
C1010  C     0.56731   0.11498   0.62451   0.00000  Uiso   1.00
C1011  C     0.60924   0.13381   0.61186   0.00000  Uiso   1.00
C1012  C     0.64406   0.10128   0.62774   0.00000  Uiso   1.00
C1013  C     0.49934   0.16641   0.83501   0.00000  Uiso   1.00
C1014  C     0.46849   0.02464   0.72887   0.00000  Uiso   1.00
C1015  C     0.53179   0.30905   0.77056   0.00000  Uiso   1.00
C1016  C     0.53149   0.02453   0.77117   0.00000  Uiso   1.00
C1017  C     0.46820   0.30917   0.72948   0.00000  Uiso   1.00
C1018  C     0.35452   0.12480   0.74889   0.00000  Uiso   1.00
Cu1019 Cu    0.50000   0.21355   0.75000   0.00000  Uiso   1.00
Cu1020 Cu    0.50000   0.11978   0.75000   0.00000  Uiso   1.00
H1021  H     0.37039   0.09195   0.74795   0.00000  Uiso   1.00
H1022  H     0.44664   0.09622   0.99812   0.00000  Uiso   1.00
H1023  H     0.58787   0.19331   0.97138   0.00000  Uiso   1.00
H1024  H     0.56537   0.07638   0.54983   0.00000  Uiso   1.00
H1025  H     0.37733   0.25619   0.65473   0.00000  Uiso   1.00
H1026  H     0.35352   0.23758   0.60246   0.00000  Uiso   1.00
H1027  H     0.34471   0.20593   0.65224   0.00000  Uiso   1.00
H1028  H     0.39429   0.16626   0.60477   0.00000  Uiso   1.00
H1029  H     0.41597   0.17894   0.65916   0.00000  Uiso   1.00
H1030  H     0.45601   0.24499   0.63039   0.00000  Uiso   1.00
H1031  H     0.42676   0.24519   0.58127   0.00000  Uiso   1.00
H1032  H     0.62956   0.24157   0.75144   0.00000  Uiso   1.00
H1033  H     0.36067   0.08842   0.83307   0.00000  Uiso   1.00
H1034  H     0.35288   0.07610   0.89017   0.00000  Uiso   1.00
H1035  H     0.65947   0.12361   0.86261   0.00000  Uiso   1.00
H1036  H     0.38688   0.14779   0.91417   0.00000  Uiso   1.00
H1037  H     0.38989   0.16773   0.85838   0.00000  Uiso   1.00
H1038  H     0.43747   0.10962   0.84063   0.00000  Uiso   1.00
H1039  H     0.43097   0.07584   0.88777   0.00000  Uiso   1.00
H1040  H     0.62207   0.25789   0.84752   0.00000  Uiso   1.00
H1041  H     0.64557   0.23817   0.89966   0.00000  Uiso   1.00
H1042  H     0.65554   0.20840   0.84944   0.00000  Uiso   1.00
H1043  H     0.62932   0.09193   0.74888   0.00000  Uiso   1.00
H1044  H     0.60587   0.16599   0.89536   0.00000  Uiso   1.00
H1045  H     0.58451   0.17998   0.84101   0.00000  Uiso   1.00
H1046  H     0.54343   0.24433   0.87014   0.00000  Uiso   1.00
H1047  H     0.57210   0.24408   0.91963   0.00000  Uiso   1.00
H1048  H     0.64335   0.09486   0.66364   0.00000  Uiso   1.00
H1049  H     0.64099   0.06776   0.61012   0.00000  Uiso   1.00
H1050  H     0.34084   0.11675   0.62101   0.00000  Uiso   1.00
H1051  H     0.61051   0.13843   0.57572   0.00000  Uiso   1.00
H1052  H     0.61435   0.16831   0.62721   0.00000  Uiso   1.00
H1053  H     0.56633   0.12164   0.66016   0.00000  Uiso   1.00
H1054  H     0.37075   0.24154   0.75198   0.00000  Uiso   1.00
H1055  H     0.56573   0.07674   0.62139   0.00000  Uiso   1.00
H1056  H     0.44703   0.07424   0.69214   0.00000  Uiso   1.00
H1057  H     0.55494   0.25852   0.80353   0.00000  Uiso   1.00
H1058  H     0.55279   0.07391   0.80795   0.00000  Uiso   1.00
H1059  H     0.44508   0.25883   0.69664   0.00000  Uiso   1.00
H1060  H     0.41224   0.19697   0.52772   0.00000  Uiso   1.00
N1061  N     0.50000   0.28402   0.75000   0.00000  Uiso   1.00
N1062  N     0.50000   0.04931   0.75000   0.00000  Uiso   1.00
O1063  O     0.43988   0.20625   0.74999   0.00000  Uiso   1.00
O1064  O     0.56476   0.28807   0.79257   0.00000  Uiso   1.00
O1065  O     0.56361   0.04584   0.79468   0.00000  Uiso   1.00
O1066  O     0.43523   0.28831   0.70749   0.00000  Uiso   1.00
O1067  O     0.43915   0.20138   0.51467   0.00000  Uiso   1.00
O1068  O     0.43897   0.10320   0.96679   0.00000  Uiso   1.00
O1069  O     0.56135   0.19714   0.98531   0.00000  Uiso   1.00
O1070  O     0.55365   0.09993   0.52908   0.00000  Uiso   1.00
O1071  O     0.56012   0.12709   0.75000   0.00000  Uiso   1.00
O1072  O     0.56012   0.20625   0.75000   0.00000  Uiso   1.00
O1073  O     0.43988   0.12709   0.74999   0.00000  Uiso   1.00
O1074  O     0.50000   0.20626   0.68573   0.00000  Uiso   1.00
O1075  O     0.50000   0.12707   0.81427   0.00000  Uiso   1.00
O1076  O     0.50000   0.20626   0.81427   0.00000  Uiso   1.00
O1077  O     0.50000   0.12707   0.68573   0.00000  Uiso   1.00
O1078  O     0.43628   0.04606   0.70547   0.00000  Uiso   1.00
C1079  C     0.75414   0.16667   0.75013   0.00000  Uiso   1.00
C1080  C     0.97879   0.20872   0.75084   0.00000  Uiso   1.00
C1081  C     0.97866   0.12480   0.74944   0.00000  Uiso   1.00
C1082  C     0.68805   0.20870   0.75112   0.00000  Uiso   1.00
C1083  C     0.80242   0.18125   0.54276   0.00000  Uiso   1.00
C1084  C     0.80198   0.13089   0.94912   0.00000  Uiso   1.00
C1085  C     0.86384   0.17874   0.95727   0.00000  Uiso   1.00
C1086  C     0.86143   0.12946   0.55050   0.00000  Uiso   1.00
C1087  C     0.80401   0.18825   0.58871   0.00000  Uiso   1.00
C1088  C     0.80077   0.13666   0.90300   0.00000  Uiso   1.00
C1089  C     0.86224   0.18668   0.91137   0.00000  Uiso   1.00
C1090  C     0.91253   0.16669   0.74996   0.00000  Uiso   1.00
C1091  C     0.86458   0.13654   0.59686   0.00000  Uiso   1.00
C1092  C     0.83474   0.16511   0.61623   0.00000  Uiso   1.00
C1093  C     0.83126   0.16444   0.88366   0.00000  Uiso   1.00
C1094  C     0.83185   0.15368   0.52426   0.00000  Uiso   1.00
C1095  C     0.83303   0.15290   0.97589   0.00000  Uiso   1.00
C1096  C     0.95722   0.16674   0.75009   0.00000  Uiso   1.00
C1097  C     0.70946   0.16672   0.75005   0.00000  Uiso   1.00
C1098  C     0.77320   0.22121   0.60707   0.00000  Uiso   1.00
C1099  C     0.73813   0.19462   0.62732   0.00000  Uiso   1.00
C1100  C     0.70126   0.22566   0.63462   0.00000  Uiso   1.00
C1101  C     0.83350   0.16661   0.66494   0.00000  Uiso   1.00
C1102  C     0.76598   0.11226   0.87608   0.00000  Uiso   1.00
C1103  C     0.72435   0.13648   0.87983   0.00000  Uiso   1.00
C1104  C     0.68885   0.10417   0.86547   0.00000  Uiso   1.00
C1105  C     0.89290   0.22034   0.89346   0.00000  Uiso   1.00
C1106  C     0.92852   0.19487   0.87328   0.00000  Uiso   1.00
C1107  C     0.96506   0.22694   0.86709   0.00000  Uiso   1.00
C1108  C     0.90064   0.11498   0.62451   0.00000  Uiso   1.00
C1109  C     0.94257   0.13381   0.61186   0.00000  Uiso   1.00
C1110  C     0.97739   0.10128   0.62774   0.00000  Uiso   1.00
C1111  C     0.83268   0.16641   0.83501   0.00000  Uiso   1.00
C1112  C     0.80183   0.02464   0.72887   0.00000  Uiso   1.00
C1113  C     0.86512   0.30905   0.77056   0.00000  Uiso   1.00
C1114  C     0.86482   0.02453   0.77117   0.00000  Uiso   1.00
C1115  C     0.80154   0.30917   0.72948   0.00000  Uiso   1.00
C1116  C     0.68785   0.12480   0.74889   0.00000  Uiso   1.00
Cu1117 Cu    0.83333   0.21355   0.75000   0.00000  Uiso   1.00
Cu1118 Cu    0.83333   0.11978   0.75000   0.00000  Uiso   1.00
H1119  H     0.70373   0.09195   0.74795   0.00000  Uiso   1.00
H1120  H     0.77997   0.09622   0.99812   0.00000  Uiso   1.00
H1121  H     0.92120   0.19331   0.97138   0.00000  Uiso   1.00
H1122  H     0.89870   0.07638   0.54983   0.00000  Uiso   1.00
H1123  H     0.71067   0.25619   0.65473   0.00000  Uiso   1.00
H1124  H     0.68686   0.23758   0.60246   0.00000  Uiso   1.00
H1125  H     0.67805   0.20593   0.65224   0.00000  Uiso   1.00
H1126  H     0.72762   0.16626   0.60477   0.00000  Uiso   1.00
H1127  H     0.74930   0.17894   0.65916   0.00000  Uiso   1.00
H1128  H     0.78934   0.24499   0.63039   0.00000  Uiso   1.00
H1129  H     0.76010   0.24519   0.58127   0.00000  Uiso   1.00
H1130  H     0.96290   0.24157   0.75144   0.00000  Uiso   1.00
H1131  H     0.69400   0.08842   0.83307   0.00000  Uiso   1.00
H1132  H     0.68621   0.07610   0.89017   0.00000  Uiso   1.00
H1133  H     0.99281   0.12361   0.86261   0.00000  Uiso   1.00
H1134  H     0.72021   0.14779   0.91417   0.00000  Uiso   1.00
H1135  H     0.72323   0.16773   0.85838   0.00000  Uiso   1.00
H1136  H     0.77080   0.10962   0.84063   0.00000  Uiso   1.00
H1137  H     0.76430   0.07584   0.88777   0.00000  Uiso   1.00
H1138  H     0.95540   0.25789   0.84752   0.00000  Uiso   1.00
H1139  H     0.97890   0.23817   0.89966   0.00000  Uiso   1.00
H1140  H     0.98887   0.20840   0.84944   0.00000  Uiso   1.00
H1141  H     0.96265   0.09193   0.74888   0.00000  Uiso   1.00
H1142  H     0.93920   0.16599   0.89536   0.00000  Uiso   1.00
H1143  H     0.91785   0.17998   0.84101   0.00000  Uiso   1.00
H1144  H     0.87676   0.24433   0.87014   0.00000  Uiso   1.00
H1145  H     0.90544   0.24408   0.91963   0.00000  Uiso   1.00
H1146  H     0.97669   0.09486   0.66364   0.00000  Uiso   1.00
H1147  H     0.97433   0.06776   0.61012   0.00000  Uiso   1.00
H1148  H     0.67418   0.11675   0.62101   0.00000  Uiso   1.00
H1149  H     0.94385   0.13843   0.57572   0.00000  Uiso   1.00
H1150  H     0.94769   0.16831   0.62721   0.00000  Uiso   1.00
H1151  H     0.89967   0.12164   0.66016   0.00000  Uiso   1.00
H1152  H     0.70408   0.24154   0.75198   0.00000  Uiso   1.00
H1153  H     0.89906   0.07674   0.62139   0.00000  Uiso   1.00
H1154  H     0.78037   0.07424   0.69214   0.00000  Uiso   1.00
H1155  H     0.88827   0.25852   0.80353   0.00000  Uiso   1.00
H1156  H     0.88612   0.07391   0.80795   0.00000  Uiso   1.00
H1157  H     0.77841   0.25883   0.69664   0.00000  Uiso   1.00
H1158  H     0.74557   0.19697   0.52772   0.00000  Uiso   1.00
N1159  N     0.83333   0.28402   0.75000   0.00000  Uiso   1.00
N1160  N     0.83333   0.04931   0.75000   0.00000  Uiso   1.00
O1161  O     0.77321   0.20625   0.74999   0.00000  Uiso   1.00
O1162  O     0.89810   0.28807   0.79257   0.00000  Uiso   1.00
O1163  O     0.89695   0.04584   0.79468   0.00000  Uiso   1.00
O1164  O     0.76856   0.28831   0.70749   0.00000  Uiso   1.00
O1165  O     0.77248   0.20138   0.51467   0.00000  Uiso   1.00
O1166  O     0.77230   0.10320   0.96679   0.00000  Uiso   1.00
O1167  O     0.89468   0.19714   0.98531   0.00000  Uiso   1.00
O1168  O     0.88699   0.09993   0.52908   0.00000  Uiso   1.00
O1169  O     0.89345   0.12709   0.75000   0.00000  Uiso   1.00
O1170  O     0.89345   0.20625   0.75000   0.00000  Uiso   1.00
O1171  O     0.77321   0.12709   0.74999   0.00000  Uiso   1.00
O1172  O     0.83333   0.20626   0.68573   0.00000  Uiso   1.00
O1173  O     0.83334   0.12707   0.81427   0.00000  Uiso   1.00
O1174  O     0.83334   0.20626   0.81427   0.00000  Uiso   1.00
O1175  O     0.83333   0.12707   0.68573   0.00000  Uiso   1.00
O1176  O     0.76962   0.04606   0.70547   0.00000  Uiso   1.00
C1177  C     0.08748   0.50000   0.75013   0.00000  Uiso   1.00
C1178  C     0.31213   0.54205   0.75084   0.00000  Uiso   1.00
C1179  C     0.31199   0.45813   0.74944   0.00000  Uiso   1.00
C1180  C     0.02138   0.54204   0.75112   0.00000  Uiso   1.00
C1181  C     0.13575   0.51459   0.54276   0.00000  Uiso   1.00
C1182  C     0.13531   0.46422   0.94912   0.00000  Uiso   1.00
C1183  C     0.19717   0.51207   0.95727   0.00000  Uiso   1.00
C1184  C     0.19476   0.46280   0.55050   0.00000  Uiso   1.00
C1185  C     0.13735   0.52158   0.58871   0.00000  Uiso   1.00
C1186  C     0.13410   0.46999   0.90300   0.00000  Uiso   1.00
C1187  C     0.19557   0.52002   0.91137   0.00000  Uiso   1.00
C1188  C     0.24586   0.50002   0.74996   0.00000  Uiso   1.00
C1189  C     0.19791   0.46987   0.59686   0.00000  Uiso   1.00
C1190  C     0.16807   0.49844   0.61623   0.00000  Uiso   1.00
C1191  C     0.16460   0.49777   0.88366   0.00000  Uiso   1.00
C1192  C     0.16519   0.48701   0.52426   0.00000  Uiso   1.00
C1193  C     0.16637   0.48623   0.97589   0.00000  Uiso   1.00
C1194  C     0.29055   0.50008   0.75009   0.00000  Uiso   1.00
C1195  C     0.04279   0.50006   0.75005   0.00000  Uiso   1.00
C1196  C     0.10653   0.55454   0.60707   0.00000  Uiso   1.00
C1197  C     0.07146   0.52795   0.62732   0.00000  Uiso   1.00
C1198  C     0.03459   0.55900   0.63462   0.00000  Uiso   1.00
C1199  C     0.16683   0.49994   0.66494   0.00000  Uiso   1.00
C1200  C     0.09931   0.44559   0.87608   0.00000  Uiso   1.00
C1201  C     0.05769   0.46981   0.87983   0.00000  Uiso   1.00
C1202  C     0.02219   0.43751   0.86547   0.00000  Uiso   1.00
C1203  C     0.22623   0.55368   0.89346   0.00000  Uiso   1.00
C1204  C     0.26186   0.52820   0.87328   0.00000  Uiso   1.00
C1205  C     0.29840   0.56027   0.86709   0.00000  Uiso   1.00
C1206  C     0.23397   0.44831   0.62451   0.00000  Uiso   1.00
C1207  C     0.27591   0.46714   0.61186   0.00000  Uiso   1.00
C1208  C     0.31072   0.43461   0.62774   0.00000  Uiso   1.00
C1209  C     0.16601   0.49974   0.83501   0.00000  Uiso   1.00
C1210  C     0.13516   0.35798   0.72887   0.00000  Uiso   1.00
C1211  C     0.19845   0.64239   0.77056   0.00000  Uiso   1.00
C1212  C     0.19815   0.35787   0.77117   0.00000  Uiso   1.00
C1213  C     0.13487   0.64250   0.72948   0.00000  Uiso   1.00
C1214  C     0.02119   0.45813   0.74889   0.00000  Uiso   1.00
Cu1215 Cu    0.16667   0.54689   0.75000   0.00000  Uiso   1.00
Cu1216 Cu    0.16667   0.45311   0.75000   0.00000  Uiso   1.00
H1217  H     0.03706   0.42528   0.74795   0.00000  Uiso   1.00
H1218  H     0.11330   0.42956   0.99812   0.00000  Uiso   1.00
H1219  H     0.25454   0.52665   0.97138   0.00000  Uiso   1.00
H1220  H     0.23203   0.40971   0.54983   0.00000  Uiso   1.00
H1221  H     0.04400   0.58953   0.65473   0.00000  Uiso   1.00
H1222  H     0.02019   0.57092   0.60246   0.00000  Uiso   1.00
H1223  H     0.01138   0.53926   0.65224   0.00000  Uiso   1.00
H1224  H     0.06096   0.49959   0.60477   0.00000  Uiso   1.00
H1225  H     0.08264   0.51227   0.65916   0.00000  Uiso   1.00
H1226  H     0.12267   0.57832   0.63039   0.00000  Uiso   1.00
H1227  H     0.09343   0.57852   0.58127   0.00000  Uiso   1.00
H1228  H     0.29623   0.57491   0.75144   0.00000  Uiso   1.00
H1229  H     0.02734   0.42175   0.83307   0.00000  Uiso   1.00
H1230  H     0.01954   0.40943   0.89017   0.00000  Uiso   1.00
H1231  H     0.32614   0.45694   0.86261   0.00000  Uiso   1.00
H1232  H     0.05355   0.48112   0.91417   0.00000  Uiso   1.00
H1233  H     0.05656   0.50106   0.85838   0.00000  Uiso   1.00
H1234  H     0.10414   0.44295   0.84063   0.00000  Uiso   1.00
H1235  H     0.09764   0.40917   0.88777   0.00000  Uiso   1.00
H1236  H     0.28873   0.59123   0.84752   0.00000  Uiso   1.00
H1237  H     0.31223   0.57151   0.89966   0.00000  Uiso   1.00
H1238  H     0.32221   0.54173   0.84944   0.00000  Uiso   1.00
H1239  H     0.29598   0.42527   0.74888   0.00000  Uiso   1.00
H1240  H     0.27253   0.49932   0.89536   0.00000  Uiso   1.00
H1241  H     0.25118   0.51332   0.84101   0.00000  Uiso   1.00
H1242  H     0.21010   0.57767   0.87014   0.00000  Uiso   1.00
H1243  H     0.23877   0.57741   0.91963   0.00000  Uiso   1.00
H1244  H     0.31002   0.42819   0.66364   0.00000  Uiso   1.00
H1245  H     0.30766   0.40109   0.61012   0.00000  Uiso   1.00
H1246  H     0.00751   0.45008   0.62101   0.00000  Uiso   1.00
H1247  H     0.27718   0.47176   0.57572   0.00000  Uiso   1.00
H1248  H     0.28102   0.50165   0.62721   0.00000  Uiso   1.00
H1249  H     0.23300   0.45498   0.66016   0.00000  Uiso   1.00
H1250  H     0.03742   0.57488   0.75198   0.00000  Uiso   1.00
H1251  H     0.23240   0.41008   0.62139   0.00000  Uiso   1.00
H1252  H     0.11370   0.40758   0.69214   0.00000  Uiso   1.00
H1253  H     0.22160   0.59185   0.80353   0.00000  Uiso   1.00
H1254  H     0.21945   0.40724   0.80795   0.00000  Uiso   1.00
H1255  H     0.11174   0.59216   0.69664   0.00000  Uiso   1.00
H1256  H     0.07891   0.53031   0.52772   0.00000  Uiso   1.00
N1257  N     0.16667   0.61736   0.75000   0.00000  Uiso   1.00
N1258  N     0.16667   0.38264   0.75000   0.00000  Uiso   1.00
O1259  O     0.10655   0.53958   0.74999   0.00000  Uiso   1.00
O1260  O     0.23143   0.62140   0.79257   0.00000  Uiso   1.00
O1261  O     0.23028   0.37917   0.79468   0.00000  Uiso   1.00
O1262  O     0.10189   0.62164   0.70749   0.00000  Uiso   1.00
O1263  O     0.10581   0.53472   0.51467   0.00000  Uiso   1.00
O1264  O     0.10563   0.43653   0.96679   0.00000  Uiso   1.00
O1265  O     0.22802   0.53048   0.98531   0.00000  Uiso   1.00
O1266  O     0.22032   0.43326   0.52908   0.00000  Uiso   1.00
O1267  O     0.22679   0.46042   0.75000   0.00000  Uiso   1.00
O1268  O     0.22679   0.53958   0.75000   0.00000  Uiso   1.00
O1269  O     0.10655   0.46042   0.74999   0.00000  Uiso   1.00
O1270  O     0.16666   0.53959   0.68573   0.00000  Uiso   1.00
O1271  O     0.16667   0.46041   0.81427   0.00000  Uiso   1.00
O1272  O     0.16667   0.53959   0.81427   0.00000  Uiso   1.00
O1273  O     0.16666   0.46041   0.68573   0.00000  Uiso   1.00
O1274  O     0.10295   0.37939   0.70547   0.00000  Uiso   1.00
C1275  C     0.42081   0.50000   0.75013   0.00000  Uiso   1.00
C1276  C     0.64546   0.54205   0.75084   0.00000  Uiso   1.00
C1277  C     0.64532   0.45813   0.74944   0.00000  Uiso   1.00
C1278  C     0.35472   0.54204   0.75112   0.00000  Uiso   1.00
C1279  C     0.46909   0.51459   0.54276   0.00000  Uiso   1.00
C1280  C     0.46864   0.46422   0.94912   0.00000  Uiso   1.00
C1281  C     0.53050   0.51207   0.95727   0.00000  Uiso   1.00
C1282  C     0.52809   0.46280   0.55050   0.00000  Uiso   1.00
C1283  C     0.47068   0.52158   0.58871   0.00000  Uiso   1.00
C1284  C     0.46744   0.46999   0.90300   0.00000  Uiso   1.00
C1285  C     0.52890   0.52002   0.91137   0.00000  Uiso   1.00
C1286  C     0.57920   0.50002   0.74996   0.00000  Uiso   1.00
C1287  C     0.53125   0.46987   0.59686   0.00000  Uiso   1.00
C1288  C     0.50140   0.49844   0.61623   0.00000  Uiso   1.00
C1289  C     0.49793   0.49777   0.88366   0.00000  Uiso   1.00
C1290  C     0.49852   0.48701   0.52426   0.00000  Uiso   1.00
C1291  C     0.49970   0.48623   0.97589   0.00000  Uiso   1.00
C1292  C     0.62389   0.50008   0.75009   0.00000  Uiso   1.00
C1293  C     0.37612   0.50006   0.75005   0.00000  Uiso   1.00
C1294  C     0.43987   0.55454   0.60707   0.00000  Uiso   1.00
C1295  C     0.40480   0.52795   0.62732   0.00000  Uiso   1.00
C1296  C     0.36792   0.55900   0.63462   0.00000  Uiso   1.00
C1297  C     0.50016   0.49994   0.66494   0.00000  Uiso   1.00
C1298  C     0.43264   0.44559   0.87608   0.00000  Uiso   1.00
C1299  C     0.39102   0.46981   0.87983   0.00000  Uiso   1.00
C1300  C     0.35552   0.43751   0.86547   0.00000  Uiso   1.00
C1301  C     0.55957   0.55368   0.89346   0.00000  Uiso   1.00
C1302  C     0.59519   0.52820   0.87328   0.00000  Uiso   1.00
C1303  C     0.63173   0.56027   0.86709   0.00000  Uiso   1.00
C1304  C     0.56731   0.44831   0.62451   0.00000  Uiso   1.00
C1305  C     0.60924   0.46714   0.61186   0.00000  Uiso   1.00
C1306  C     0.64406   0.43461   0.62774   0.00000  Uiso   1.00
C1307  C     0.49934   0.49974   0.83501   0.00000  Uiso   1.00
C1308  C     0.46849   0.35798   0.72887   0.00000  Uiso   1.00
C1309  C     0.53179   0.64239   0.77056   0.00000  Uiso   1.00
C1310  C     0.53149   0.35787   0.77117   0.00000  Uiso   1.00
C1311  C     0.46820   0.64250   0.72948   0.00000  Uiso   1.00
C1312  C     0.35452   0.45813   0.74889   0.00000  Uiso   1.00
Cu1313 Cu    0.50000   0.54689   0.75000   0.00000  Uiso   1.00
Cu1314 Cu    0.50000   0.45311   0.75000   0.00000  Uiso   1.00
H1315  H     0.37039   0.42528   0.74795   0.00000  Uiso   1.00
H1316  H     0.44664   0.42956   0.99812   0.00000  Uiso   1.00
H1317  H     0.58787   0.52665   0.97138   0.00000  Uiso   1.00
H1318  H     0.56537   0.40971   0.54983   0.00000  Uiso   1.00
H1319  H     0.37733   0.58953   0.65473   0.00000  Uiso   1.00
H1320  H     0.35352   0.57092   0.60246   0.00000  Uiso   1.00
H1321  H     0.34471   0.53926   0.65224   0.00000  Uiso   1.00
H1322  H     0.39429   0.49959   0.60477   0.00000  Uiso   1.00
H1323  H     0.41597   0.51227   0.65916   0.00000  Uiso   1.00
H1324  H     0.45601   0.57832   0.63039   0.00000  Uiso   1.00
H1325  H     0.42676   0.57852   0.58127   0.00000  Uiso   1.00
H1326  H     0.62956   0.57491   0.75144   0.00000  Uiso   1.00
H1327  H     0.36067   0.42175   0.83307   0.00000  Uiso   1.00
H1328  H     0.35288   0.40943   0.89017   0.00000  Uiso   1.00
H1329  H     0.65947   0.45694   0.86261   0.00000  Uiso   1.00
H1330  H     0.38688   0.48112   0.91417   0.00000  Uiso   1.00
H1331  H     0.38989   0.50106   0.85838   0.00000  Uiso   1.00
H1332  H     0.43747   0.44295   0.84063   0.00000  Uiso   1.00
H1333  H     0.43097   0.40917   0.88777   0.00000  Uiso   1.00
H1334  H     0.62207   0.59123   0.84752   0.00000  Uiso   1.00
H1335  H     0.64557   0.57151   0.89966   0.00000  Uiso   1.00
H1336  H     0.65554   0.54173   0.84944   0.00000  Uiso   1.00
H1337  H     0.62932   0.42527   0.74888   0.00000  Uiso   1.00
H1338  H     0.60587   0.49932   0.89536   0.00000  Uiso   1.00
H1339  H     0.58451   0.51332   0.84101   0.00000  Uiso   1.00
H1340  H     0.54343   0.57767   0.87014   0.00000  Uiso   1.00
H1341  H     0.57210   0.57741   0.91963   0.00000  Uiso   1.00
H1342  H     0.64335   0.42819   0.66364   0.00000  Uiso   1.00
H1343  H     0.64099   0.40109   0.61012   0.00000  Uiso   1.00
H1344  H     0.34084   0.45008   0.62101   0.00000  Uiso   1.00
H1345  H     0.61051   0.47176   0.57572   0.00000  Uiso   1.00
H1346  H     0.61435   0.50165   0.62721   0.00000  Uiso   1.00
H1347  H     0.56633   0.45498   0.66016   0.00000  Uiso   1.00
H1348  H     0.37075   0.57488   0.75198   0.00000  Uiso   1.00
H1349  H     0.56573   0.41008   0.62139   0.00000  Uiso   1.00
H1350  H     0.44703   0.40758   0.69214   0.00000  Uiso   1.00
H1351  H     0.55494   0.59185   0.80353   0.00000  Uiso   1.00
H1352  H     0.55279   0.40724   0.80795   0.00000  Uiso   1.00
H1353  H     0.44508   0.59216   0.69664   0.00000  Uiso   1.00
H1354  H     0.41224   0.53031   0.52772   0.00000  Uiso   1.00
N1355  N     0.50000   0.61736   0.75000   0.00000  Uiso   1.00
N1356  N     0.50000   0.38264   0.75000   0.00000  Uiso   1.00
O1357  O     0.43988   0.53958   0.74999   0.00000  Uiso   1.00
O1358  O     0.56476   0.62140   0.79257   0.00000  Uiso   1.00
O1359  O     0.56361   0.37917   0.79468   0.00000  Uiso   1.00
O1360  O     0.43523   0.62164   0.70749   0.00000  Uiso   1.00
O1361  O     0.43915   0.53472   0.51467   0.00000  Uiso   1.00
O1362  O     0.43897   0.43653   0.96679   0.00000  Uiso   1.00
O1363  O     0.56135   0.53048   0.98531   0.00000  Uiso   1.00
O1364  O     0.55365   0.43326   0.52908   0.00000  Uiso   1.00
O1365  O     0.56012   0.46042   0.75000   0.00000  Uiso   1.00
O1366  O     0.56012   0.53958   0.75000   0.00000  Uiso   1.00
O1367  O     0.43988   0.46042   0.74999   0.00000  Uiso   1.00
O1368  O     0.50000   0.53959   0.68573   0.00000  Uiso   1.00
O1369  O     0.50000   0.46041   0.81427   0.00000  Uiso   1.00
O1370  O     0.50000   0.53959   0.81427   0.00000  Uiso   1.00
O1371  O     0.50000   0.46041   0.68573   0.00000  Uiso   1.00
O1372  O     0.43628   0.37939   0.70547   0.00000  Uiso   1.00
C1373  C     0.75414   0.50000   0.75013   0.00000  Uiso   1.00
C1374  C     0.97879   0.54205   0.75084   0.00000  Uiso   1.00
C1375  C     0.97866   0.45813   0.74944   0.00000  Uiso   1.00
C1376  C     0.68805   0.54204   0.75112   0.00000  Uiso   1.00
C1377  C     0.80242   0.51459   0.54276   0.00000  Uiso   1.00
C1378  C     0.80198   0.46422   0.94912   0.00000  Uiso   1.00
C1379  C     0.86384   0.51207   0.95727   0.00000  Uiso   1.00
C1380  C     0.86143   0.46280   0.55050   0.00000  Uiso   1.00
C1381  C     0.80401   0.52158   0.58871   0.00000  Uiso   1.00
C1382  C     0.80077   0.46999   0.90300   0.00000  Uiso   1.00
C1383  C     0.86224   0.52002   0.91137   0.00000  Uiso   1.00
C1384  C     0.91253   0.50002   0.74996   0.00000  Uiso   1.00
C1385  C     0.86458   0.46987   0.59686   0.00000  Uiso   1.00
C1386  C     0.83474   0.49844   0.61623   0.00000  Uiso   1.00
C1387  C     0.83126   0.49777   0.88366   0.00000  Uiso   1.00
C1388  C     0.83185   0.48701   0.52426   0.00000  Uiso   1.00
C1389  C     0.83303   0.48623   0.97589   0.00000  Uiso   1.00
C1390  C     0.95722   0.50008   0.75009   0.00000  Uiso   1.00
C1391  C     0.70946   0.50006   0.75005   0.00000  Uiso   1.00
C1392  C     0.77320   0.55454   0.60707   0.00000  Uiso   1.00
C1393  C     0.73813   0.52795   0.62732   0.00000  Uiso   1.00
C1394  C     0.70126   0.55900   0.63462   0.00000  Uiso   1.00
C1395  C     0.83350   0.49994   0.66494   0.00000  Uiso   1.00
C1396  C     0.76598   0.44559   0.87608   0.00000  Uiso   1.00
C1397  C     0.72435   0.46981   0.87983   0.00000  Uiso   1.00
C1398  C     0.68885   0.43751   0.86547   0.00000  Uiso   1.00
C1399  C     0.89290   0.55368   0.89346   0.00000  Uiso   1.00
C1400  C     0.92852   0.52820   0.87328   0.00000  Uiso   1.00
C1401  C     0.96506   0.56027   0.86709   0.00000  Uiso   1.00
C1402  C     0.90064   0.44831   0.62451   0.00000  Uiso   1.00
C1403  C     0.94257   0.46714   0.61186   0.00000  Uiso   1.00
C1404  C     0.97739   0.43461   0.62774   0.00000  Uiso   1.00
C1405  C     0.83268   0.49974   0.83501   0.00000  Uiso   1.00
C1406  C     0.80183   0.35798   0.72887   0.00000  Uiso   1.00
C1407  C     0.86512   0.64239   0.77056   0.00000  Uiso   1.00
C1408  C     0.86482   0.35787   0.77117   0.00000  Uiso   1.00
C1409  C     0.80154   0.64250   0.72948   0.00000  Uiso   1.00
C1410  C     0.68785   0.45813   0.74889   0.00000  Uiso   1.00
Cu1411 Cu    0.83333   0.54689   0.75000   0.00000  Uiso   1.00
Cu1412 Cu    0.83333   0.45311   0.75000   0.00000  Uiso   1.00
H1413  H     0.70373   0.42528   0.74795   0.00000  Uiso   1.00
H1414  H     0.77997   0.42956   0.99812   0.00000  Uiso   1.00
H1415  H     0.92120   0.52665   0.97138   0.00000  Uiso   1.00
H1416  H     0.89870   0.40971   0.54983   0.00000  Uiso   1.00
H1417  H     0.71067   0.58953   0.65473   0.00000  Uiso   1.00
H1418  H     0.68686   0.57092   0.60246   0.00000  Uiso   1.00
H1419  H     0.67805   0.53926   0.65224   0.00000  Uiso   1.00
H1420  H     0.72762   0.49959   0.60477   0.00000  Uiso   1.00
H1421  H     0.74930   0.51227   0.65916   0.00000  Uiso   1.00
H1422  H     0.78934   0.57832   0.63039   0.00000  Uiso   1.00
H1423  H     0.76010   0.57852   0.58127   0.00000  Uiso   1.00
H1424  H     0.96290   0.57491   0.75144   0.00000  Uiso   1.00
H1425  H     0.69400   0.42175   0.83307   0.00000  Uiso   1.00
H1426  H     0.68621   0.40943   0.89017   0.00000  Uiso   1.00
H1427  H     0.99281   0.45694   0.86261   0.00000  Uiso   1.00
H1428  H     0.72021   0.48112   0.91417   0.00000  Uiso   1.00
H1429  H     0.72323   0.50106   0.85838   0.00000  Uiso   1.00
H1430  H     0.77080   0.44295   0.84063   0.00000  Uiso   1.00
H1431  H     0.76430   0.40917   0.88777   0.00000  Uiso   1.00
H1432  H     0.95540   0.59123   0.84752   0.00000  Uiso   1.00
H1433  H     0.97890   0.57151   0.89966   0.00000  Uiso   1.00
H1434  H     0.98887   0.54173   0.84944   0.00000  Uiso   1.00
H1435  H     0.96265   0.42527   0.74888   0.00000  Uiso   1.00
H1436  H     0.93920   0.49932   0.89536   0.00000  Uiso   1.00
H1437  H     0.91785   0.51332   0.84101   0.00000  Uiso   1.00
H1438  H     0.87676   0.57767   0.87014   0.00000  Uiso   1.00
H1439  H     0.90544   0.57741   0.91963   0.00000  Uiso   1.00
H1440  H     0.97669   0.42819   0.66364   0.00000  Uiso   1.00
H1441  H     0.97433   0.40109   0.61012   0.00000  Uiso   1.00
H1442  H     0.67418   0.45008   0.62101   0.00000  Uiso   1.00
H1443  H     0.94385   0.47176   0.57572   0.00000  Uiso   1.00
H1444  H     0.94769   0.50165   0.62721   0.00000  Uiso   1.00
H1445  H     0.89967   0.45498   0.66016   0.00000  Uiso   1.00
H1446  H     0.70408   0.57488   0.75198   0.00000  Uiso   1.00
H1447  H     0.89906   0.41008   0.62139   0.00000  Uiso   1.00
H1448  H     0.78037   0.40758   0.69214   0.00000  Uiso   1.00
H1449  H     0.88827   0.59185   0.80353   0.00000  Uiso   1.00
H1450  H     0.88612   0.40724   0.80795   0.00000  Uiso   1.00
H1451  H     0.77841   0.59216   0.69664   0.00000  Uiso   1.00
H1452  H     0.74557   0.53031   0.52772   0.00000  Uiso   1.00
N1453  N     0.83333   0.61736   0.75000   0.00000  Uiso   1.00
N1454  N     0.83333   0.38264   0.75000   0.00000  Uiso   1.00
O1455  O     0.77321   0.53958   0.74999   0.00000  Uiso   1.00
O1456  O     0.89810   0.62140   0.79257   0.00000  Uiso   1.00
O1457  O     0.89695   0.37917   0.79468   0.00000  Uiso   1.00
O1458  O     0.76856   0.62164   0.70749   0.00000  Uiso   1.00
O1459  O     0.77248   0.53472   0.51467   0.00000  Uiso   1.00
O1460  O     0.77230   0.43653   0.96679   0.00000  Uiso   1.00
O1461  O     0.89468   0.53048   0.98531   0.00000  Uiso   1.00
O1462  O     0.88699   0.43326   0.52908   0.00000  Uiso   1.00
O1463  O     0.89345   0.46042   0.75000   0.00000  Uiso   1.00
O1464  O     0.89345   0.53958   0.75000   0.00000  Uiso   1.00
O1465  O     0.77321   0.46042   0.74999   0.00000  Uiso   1.00
O1466  O     0.83333   0.53959   0.68573   0.00000  Uiso   1.00
O1467  O     0.83334   0.46041   0.81427   0.00000  Uiso   1.00
O1468  O     0.83334   0.53959   0.81427   0.00000  Uiso   1.00
O1469  O     0.83333   0.46041   0.68573   0.00000  Uiso   1.00
O1470  O     0.76962   0.37939   0.70547   0.00000  Uiso   1.00
C1471  C     0.08748   0.83333   0.75013   0.00000  Uiso   1.00
C1472  C     0.31213   0.87539   0.75084   0.00000  Uiso   1.00
C1473  C     0.31199   0.79146   0.74944   0.00000  Uiso   1.00
C1474  C     0.02138   0.87537   0.75112   0.00000  Uiso   1.00
C1475  C     0.13575   0.84792   0.54276   0.00000  Uiso   1.00
C1476  C     0.13531   0.79755   0.94912   0.00000  Uiso   1.00
C1477  C     0.19717   0.84541   0.95727   0.00000  Uiso   1.00
C1478  C     0.19476   0.79613   0.55050   0.00000  Uiso   1.00
C1479  C     0.13735   0.85492   0.58871   0.00000  Uiso   1.00
C1480  C     0.13410   0.80332   0.90300   0.00000  Uiso   1.00
C1481  C     0.19557   0.85335   0.91137   0.00000  Uiso   1.00
C1482  C     0.24586   0.83335   0.74996   0.00000  Uiso   1.00
C1483  C     0.19791   0.80321   0.59686   0.00000  Uiso   1.00
C1484  C     0.16807   0.83177   0.61623   0.00000  Uiso   1.00
C1485  C     0.16460   0.83110   0.88366   0.00000  Uiso   1.00
C1486  C     0.16519   0.82035   0.52426   0.00000  Uiso   1.00
C1487  C     0.16637   0.81957   0.97589   0.00000  Uiso   1.00
C1488  C     0.29055   0.83341   0.75009   0.00000  Uiso   1.00
C1489  C     0.04279   0.83339   0.75005   0.00000  Uiso   1.00
C1490  C     0.10653   0.88788   0.60707   0.00000  Uiso   1.00
C1491  C     0.07146   0.86128   0.62732   0.00000  Uiso   1.00
C1492  C     0.03459   0.89233   0.63462   0.00000  Uiso   1.00
C1493  C     0.16683   0.83327   0.66494   0.00000  Uiso   1.00
C1494  C     0.09931   0.77892   0.87608   0.00000  Uiso   1.00
C1495  C     0.05769   0.80315   0.87983   0.00000  Uiso   1.00
C1496  C     0.02219   0.77084   0.86547   0.00000  Uiso   1.00
C1497  C     0.22623   0.88701   0.89346   0.00000  Uiso   1.00
C1498  C     0.26186   0.86154   0.87328   0.00000  Uiso   1.00
C1499  C     0.29840   0.89360   0.86709   0.00000  Uiso   1.00
C1500  C     0.23397   0.78164   0.62451   0.00000  Uiso   1.00
C1501  C     0.27591   0.80048   0.61186   0.00000  Uiso   1.00
C1502  C     0.31072   0.76794   0.62774   0.00000  Uiso   1.00
C1503  C     0.16601   0.83307   0.83501   0.00000  Uiso   1.00
C1504  C     0.13516   0.69131   0.72887   0.00000  Uiso   1.00
C1505  C     0.19845   0.97572   0.77056   0.00000  Uiso   1.00
C1506  C     0.19815   0.69120   0.77117   0.00000  Uiso   1.00
C1507  C     0.13487   0.97583   0.72948   0.00000  Uiso   1.00
C1508  C     0.02119   0.79147   0.74889   0.00000  Uiso   1.00
Cu1509 Cu    0.16667   0.88022   0.75000   0.00000  Uiso   1.00
Cu1510 Cu    0.16667   0.78645   0.75000   0.00000  Uiso   1.00
H1511  H     0.03706   0.75862   0.74795   0.00000  Uiso   1.00
H1512  H     0.11330   0.76289   0.99812   0.00000  Uiso   1.00
H1513  H     0.25454   0.85998   0.97138   0.00000  Uiso   1.00
H1514  H     0.23203   0.74304   0.54983   0.00000  Uiso   1.00
H1515  H     0.04400   0.92286   0.65473   0.00000  Uiso   1.00
H1516  H     0.02019   0.90425   0.60246   0.00000  Uiso   1.00
H1517  H     0.01138   0.87259   0.65224   0.00000  Uiso   1.00
H1518  H     0.06096   0.83292   0.60477   0.00000  Uiso   1.00
H1519  H     0.08264   0.84560   0.65916   0.00000  Uiso   1.00
H1520  H     0.12267   0.91165   0.63039   0.00000  Uiso   1.00
H1521  H     0.09343   0.91186   0.58127   0.00000  Uiso   1.00
H1522  H     0.29623   0.90824   0.75144   0.00000  Uiso   1.00
H1523  H     0.02734   0.75509   0.83307   0.00000  Uiso   1.00
H1524  H     0.01954   0.74276   0.89017   0.00000  Uiso   1.00
H1525  H     0.32614   0.79027   0.86261   0.00000  Uiso   1.00
H1526  H     0.05355   0.81445   0.91417   0.00000  Uiso   1.00
H1527  H     0.05656   0.83440   0.85838   0.00000  Uiso   1.00
H1528  H     0.10414   0.77629   0.84063   0.00000  Uiso   1.00
H1529  H     0.09764   0.74251   0.88777   0.00000  Uiso   1.00
H1530  H     0.28873   0.92456   0.84752   0.00000  Uiso   1.00
H1531  H     0.31223   0.90484   0.89966   0.00000  Uiso   1.00
H1532  H     0.32221   0.87506   0.84944   0.00000  Uiso   1.00
H1533  H     0.29598   0.75860   0.74888   0.00000  Uiso   1.00
H1534  H     0.27253   0.83266   0.89536   0.00000  Uiso   1.00
H1535  H     0.25118   0.84665   0.84101   0.00000  Uiso   1.00
H1536  H     0.21010   0.91100   0.87014   0.00000  Uiso   1.00
H1537  H     0.23877   0.91074   0.91963   0.00000  Uiso   1.00
H1538  H     0.31002   0.76153   0.66364   0.00000  Uiso   1.00
H1539  H     0.30766   0.73442   0.61012   0.00000  Uiso   1.00
H1540  H     0.00751   0.78341   0.62101   0.00000  Uiso   1.00
H1541  H     0.27718   0.80510   0.57572   0.00000  Uiso   1.00
H1542  H     0.28102   0.83498   0.62721   0.00000  Uiso   1.00
H1543  H     0.23300   0.78831   0.66016   0.00000  Uiso   1.00
H1544  H     0.03742   0.90821   0.75198   0.00000  Uiso   1.00
H1545  H     0.23240   0.74341   0.62139   0.00000  Uiso   1.00
H1546  H     0.11370   0.74091   0.69214   0.00000  Uiso   1.00
H1547  H     0.22160   0.92518   0.80353   0.00000  Uiso   1.00
H1548  H     0.21945   0.74058   0.80795   0.00000  Uiso   1.00
H1549  H     0.11174   0.92550   0.69664   0.00000  Uiso   1.00
H1550  H     0.07891   0.86364   0.52772   0.00000  Uiso   1.00
N1551  N     0.16667   0.95069   0.75000   0.00000  Uiso   1.00
N1552  N     0.16667   0.71598   0.75000   0.00000  Uiso   1.00
O1553  O     0.10655   0.87291   0.74999   0.00000  Uiso   1.00
O1554  O     0.23143   0.95473   0.79257   0.00000  Uiso   1.00
O1555  O     0.23028   0.71251   0.79468   0.00000  Uiso   1.00
O1556  O     0.10189   0.95498   0.70749   0.00000  Uiso   1.00
O1557  O     0.10581   0.86805   0.51467   0.00000  Uiso   1.00
O1558  O     0.10563   0.76986   0.96679   0.00000  Uiso   1.00
O1559  O     0.22802   0.86381   0.98531   0.00000  Uiso   1.00
O1560  O     0.22032   0.76660   0.52908   0.00000  Uiso   1.00
O1561  O     0.22679   0.79375   0.75000   0.00000  Uiso   1.00
O1562  O     0.22679   0.87291   0.75000   0.00000  Uiso   1.00
O1563  O     0.10655   0.79375   0.74999   0.00000  Uiso   1.00
O1564  O     0.16666   0.87293   0.68573   0.00000  Uiso   1.00
O1565  O     0.16667   0.79374   0.81427   0.00000  Uiso   1.00
O1566  O     0.16667   0.87293   0.81427   0.00000  Uiso   1.00
O1567  O     0.16666   0.79374   0.68573   0.00000  Uiso   1.00
O1568  O     0.10295   0.71272   0.70547   0.00000  Uiso   1.00
C1569  C     0.42081   0.83333   0.75013   0.00000  Uiso   1.00
C1570  C     0.64546   0.87539   0.75084   0.00000  Uiso   1.00
C1571  C     0.64532   0.79146   0.74944   0.00000  Uiso   1.00
C1572  C     0.35472   0.87537   0.75112   0.00000  Uiso   1.00
C1573  C     0.46909   0.84792   0.54276   0.00000  Uiso   1.00
C1574  C     0.46864   0.79755   0.94912   0.00000  Uiso   1.00
C1575  C     0.53050   0.84541   0.95727   0.00000  Uiso   1.00
C1576  C     0.52809   0.79613   0.55050   0.00000  Uiso   1.00
C1577  C     0.47068   0.85492   0.58871   0.00000  Uiso   1.00
C1578  C     0.46744   0.80332   0.90300   0.00000  Uiso   1.00
C1579  C     0.52890   0.85335   0.91137   0.00000  Uiso   1.00
C1580  C     0.57920   0.83335   0.74996   0.00000  Uiso   1.00
C1581  C     0.53125   0.80321   0.59686   0.00000  Uiso   1.00
C1582  C     0.50140   0.83177   0.61623   0.00000  Uiso   1.00
C1583  C     0.49793   0.83110   0.88366   0.00000  Uiso   1.00
C1584  C     0.49852   0.82035   0.52426   0.00000  Uiso   1.00
C1585  C     0.49970   0.81957   0.97589   0.00000  Uiso   1.00
C1586  C     0.62389   0.83341   0.75009   0.00000  Uiso   1.00
C1587  C     0.37612   0.83339   0.75005   0.00000  Uiso   1.00
C1588  C     0.43987   0.88788   0.60707   0.00000  Uiso   1.00
C1589  C     0.40480   0.86128   0.62732   0.00000  Uiso   1.00
C1590  C     0.36792   0.89233   0.63462   0.00000  Uiso   1.00
C1591  C     0.50016   0.83327   0.66494   0.00000  Uiso   1.00
C1592  C     0.43264   0.77892   0.87608   0.00000  Uiso   1.00
C1593  C     0.39102   0.80315   0.87983   0.00000  Uiso   1.00
C1594  C     0.35552   0.77084   0.86547   0.00000  Uiso   1.00
C1595  C     0.55957   0.88701   0.89346   0.00000  Uiso   1.00
C1596  C     0.59519   0.86154   0.87328   0.00000  Uiso   1.00
C1597  C     0.63173   0.89360   0.86709   0.00000  Uiso   1.00
C1598  C     0.56731   0.78164   0.62451   0.00000  Uiso   1.00
C1599  C     0.60924   0.80048   0.61186   0.00000  Uiso   1.00
C1600  C     0.64406   0.76794   0.62774   0.00000  Uiso   1.00
C1601  C     0.49934   0.83307   0.83501   0.00000  Uiso   1.00
C1602  C     0.46849   0.69131   0.72887   0.00000  Uiso   1.00
C1603  C     0.53179   0.97572   0.77056   0.00000  Uiso   1.00
C1604  C     0.53149   0.69120   0.77117   0.00000  Uiso   1.00
C1605  C     0.46820   0.97583   0.72948   0.00000  Uiso   1.00
C1606  C     0.35452   0.79147   0.74889   0.00000  Uiso   1.00
Cu1607 Cu    0.50000   0.88022   0.75000   0.00000  Uiso   1.00
Cu1608 Cu    0.50000   0.78645   0.75000   0.00000  Uiso   1.00
H1609  H     0.37039   0.75862   0.74795   0.00000  Uiso   1.00
H1610  H     0.44664   0.76289   0.99812   0.00000  Uiso   1.00
H1611  H     0.58787   0.85998   0.97138   0.00000  Uiso   1.00
H1612  H     0.56537   0.74304   0.54983   0.00000  Uiso   1.00
H1613  H     0.37733   0.92286   0.65473   0.00000  Uiso   1.00
H1614  H     0.35352   0.90425   0.60246   0.00000  Uiso   1.00
H1615  H     0.34471   0.87259   0.65224   0.00000  Uiso   1.00
H1616  H     0.39429   0.83292   0.60477   0.00000  Uiso   1.00
H1617  H     0.41597   0.84560   0.65916   0.00000  Uiso   1.00
H1618  H     0.45601   0.91165   0.63039   0.00000  Uiso   1.00
H1619  H     0.42676   0.91186   0.58127   0.00000  Uiso   1.00
H1620  H     0.62956   0.90824   0.75144   0.00000  Uiso   1.00
H1621  H     0.36067   0.75509   0.83307   0.00000  Uiso   1.00
H1622  H     0.35288   0.74276   0.89017   0.00000  Uiso   1.00
H1623  H     0.65947   0.79027   0.86261   0.00000  Uiso   1.00
H1624  H     0.38688   0.81445   0.91417   0.00000  Uiso   1.00
H1625  H     0.38989   0.83440   0.85838   0.00000  Uiso   1.00
H1626  H     0.43747   0.77629   0.84063   0.00000  Uiso   1.00
H1627  H     0.43097   0.74251   0.88777   0.00000  Uiso   1.00
H1628  H     0.62207   0.92456   0.84752   0.00000  Uiso   1.00
H1629  H     0.64557   0.90484   0.89966   0.00000  Uiso   1.00
H1630  H     0.65554   0.87506   0.84944   0.00000  Uiso   1.00
H1631  H     0.62932   0.75860   0.74888   0.00000  Uiso   1.00
H1632  H     0.60587   0.83266   0.89536   0.00000  Uiso   1.00
H1633  H     0.58451   0.84665   0.84101   0.00000  Uiso   1.00
H1634  H     0.54343   0.91100   0.87014   0.00000  Uiso   1.00
H1635  H     0.57210   0.91074   0.91963   0.00000  Uiso   1.00
H1636  H     0.64335   0.76153   0.66364   0.00000  Uiso   1.00
H1637  H     0.64099   0.73442   0.61012   0.00000  Uiso   1.00
H1638  H     0.34084   0.78341   0.62101   0.00000  Uiso   1.00
H1639  H     0.61051   0.80510   0.57572   0.00000  Uiso   1.00
H1640  H     0.61435   0.83498   0.62721   0.00000  Uiso   1.00
H1641  H     0.56633   0.78831   0.66016   0.00000  Uiso   1.00
H1642  H     0.37075   0.90821   0.75198   0.00000  Uiso   1.00
H1643  H     0.56573   0.74341   0.62139   0.00000  Uiso   1.00
H1644  H     0.44703   0.74091   0.69214   0.00000  Uiso   1.00
H1645  H     0.55494   0.92518   0.80353   0.00000  Uiso   1.00
H1646  H     0.55279   0.74058   0.80795   0.00000  Uiso   1.00
H1647  H     0.44508   0.92550   0.69664   0.00000  Uiso   1.00
H1648  H     0.41224   0.86364   0.52772   0.00000  Uiso   1.00
N1649  N     0.50000   0.95069   0.75000   0.00000  Uiso   1.00
N1650  N     0.50000   0.71598   0.75000   0.00000  Uiso   1.00
O1651  O     0.43988   0.87291   0.74999   0.00000  Uiso   1.00
O1652  O     0.56476   0.95473   0.79257   0.00000  Uiso   1.00
O1653  O     0.56361   0.71251   0.79468   0.00000  Uiso   1.00
O1654  O     0.43523   0.95498   0.70749   0.00000  Uiso   1.00
O1655  O     0.43915   0.86805   0.51467   0.00000  Uiso   1.00
O1656  O     0.43897   0.76986   0.96679   0.00000  Uiso   1.00
O1657  O     0.56135   0.86381   0.98531   0.00000  Uiso   1.00
O1658  O     0.55365   0.76660   0.52908   0.00000  Uiso   1.00
O1659  O     0.56012   0.79375   0.75000   0.00000  Uiso   1.00
O1660  O     0.56012   0.87291   0.75000   0.00000  Uiso   1.00
O1661  O     0.43988   0.79375   0.74999   0.00000  Uiso   1.00
O1662  O     0.50000   0.87293   0.68573   0.00000  Uiso   1.00
O1663  O     0.50000   0.79374   0.81427   0.00000  Uiso   1.00
O1664  O     0.50000   0.87293   0.81427   0.00000  Uiso   1.00
O1665  O     0.50000   0.79374   0.68573   0.00000  Uiso   1.00
O1666  O     0.43628   0.71272   0.70547   0.00000  Uiso   1.00
C1667  C     0.75414   0.83333   0.75013   0.00000  Uiso   1.00
C1668  C     0.97879   0.87539   0.75084   0.00000  Uiso   1.00
C1669  C     0.97866   0.79146   0.74944   0.00000  Uiso   1.00
C1670  C     0.68805   0.87537   0.75112   0.00000  Uiso   1.00
C1671  C     0.80242   0.84792   0.54276   0.00000  Uiso   1.00
C1672  C     0.80198   0.79755   0.94912   0.00000  Uiso   1.00
C1673  C     0.86384   0.84541   0.95727   0.00000  Uiso   1.00
C1674  C     0.86143   0.79613   0.55050   0.00000  Uiso   1.00
C1675  C     0.80401   0.85492   0.58871   0.00000  Uiso   1.00
C1676  C     0.80077   0.80332   0.90300   0.00000  Uiso   1.00
C1677  C     0.86224   0.85335   0.91137   0.00000  Uiso   1.00
C1678  C     0.91253   0.83335   0.74996   0.00000  Uiso   1.00
C1679  C     0.86458   0.80321   0.59686   0.00000  Uiso   1.00
C1680  C     0.83474   0.83177   0.61623   0.00000  Uiso   1.00
C1681  C     0.83126   0.83110   0.88366   0.00000  Uiso   1.00
C1682  C     0.83185   0.82035   0.52426   0.00000  Uiso   1.00
C1683  C     0.83303   0.81957   0.97589   0.00000  Uiso   1.00
C1684  C     0.95722   0.83341   0.75009   0.00000  Uiso   1.00
C1685  C     0.70946   0.83339   0.75005   0.00000  Uiso   1.00
C1686  C     0.77320   0.88788   0.60707   0.00000  Uiso   1.00
C1687  C     0.73813   0.86128   0.62732   0.00000  Uiso   1.00
C1688  C     0.70126   0.89233   0.63462   0.00000  Uiso   1.00
C1689  C     0.83350   0.83327   0.66494   0.00000  Uiso   1.00
C1690  C     0.76598   0.77892   0.87608   0.00000  Uiso   1.00
C1691  C     0.72435   0.80315   0.87983   0.00000  Uiso   1.00
C1692  C     0.68885   0.77084   0.86547   0.00000  Uiso   1.00
C1693  C     0.89290   0.88701   0.89346   0.00000  Uiso   1.00
C1694  C     0.92852   0.86154   0.87328   0.00000  Uiso   1.00
C1695  C     0.96506   0.89360   0.86709   0.00000  Uiso   1.00
C1696  C     0.90064   0.78164   0.62451   0.00000  Uiso   1.00
C1697  C     0.94257   0.80048   0.61186   0.00000  Uiso   1.00
C1698  C     0.97739   0.76794   0.62774   0.00000  Uiso   1.00
C1699  C     0.83268   0.83307   0.83501   0.00000  Uiso   1.00
C1700  C     0.80183   0.69131   0.72887   0.00000  Uiso   1.00
C1701  C     0.86512   0.97572   0.77056   0.00000  Uiso   1.00
C1702  C     0.86482   0.69120   0.77117   0.00000  Uiso   1.00
C1703  C     0.80154   0.97583   0.72948   0.00000  Uiso   1.00
C1704  C     0.68785   0.79147   0.74889   0.00000  Uiso   1.00
Cu1705 Cu    0.83333   0.88022   0.75000   0.00000  Uiso   1.00
Cu1706 Cu    0.83333   0.78645   0.75000   0.00000  Uiso   1.00
H1707  H     0.70373   0.75862   0.74795   0.00000  Uiso   1.00
H1708  H     0.77997   0.76289   0.99812   0.00000  Uiso   1.00
H1709  H     0.92120   0.85998   0.97138   0.00000  Uiso   1.00
H1710  H     0.89870   0.74304   0.54983   0.00000  Uiso   1.00
H1711  H     0.71067   0.92286   0.65473   0.00000  Uiso   1.00
H1712  H     0.68686   0.90425   0.60246   0.00000  Uiso   1.00
H1713  H     0.67805   0.87259   0.65224   0.00000  Uiso   1.00
H1714  H     0.72762   0.83292   0.60477   0.00000  Uiso   1.00
H1715  H     0.74930   0.84560   0.65916   0.00000  Uiso   1.00
H1716  H     0.78934   0.91165   0.63039   0.00000  Uiso   1.00
H1717  H     0.76010   0.91186   0.58127   0.00000  Uiso   1.00
H1718  H     0.96290   0.90824   0.75144   0.00000  Uiso   1.00
H1719  H     0.69400   0.75509   0.83307   0.00000  Uiso   1.00
H1720  H     0.68621   0.74276   0.89017   0.00000  Uiso   1.00
H1721  H     0.99281   0.79027   0.86261   0.00000  Uiso   1.00
H1722  H     0.72021   0.81445   0.91417   0.00000  Uiso   1.00
H1723  H     0.72323   0.83440   0.85838   0.00000  Uiso   1.00
H1724  H     0.77080   0.77629   0.84063   0.00000  Uiso   1.00
H1725  H     0.76430   0.74251   0.88777   0.00000  Uiso   1.00
H1726  H     0.95540   0.92456   0.84752   0.00000  Uiso   1.00
H1727  H     0.97890   0.90484   0.89966   0.00000  Uiso   1.00
H1728  H     0.98887   0.87506   0.84944   0.00000  Uiso   1.00
H1729  H     0.96265   0.75860   0.74888   0.00000  Uiso   1.00
H1730  H     0.93920   0.83266   0.89536   0.00000  Uiso   1.00
H1731  H     0.91785   0.84665   0.84101   0.00000  Uiso   1.00
H1732  H     0.87676   0.91100   0.87014   0.00000  Uiso   1.00
H1733  H     0.90544   0.91074   0.91963   0.00000  Uiso   1.00
H1734  H     0.97669   0.76153   0.66364   0.00000  Uiso   1.00
H1735  H     0.97433   0.73442   0.61012   0.00000  Uiso   1.00
H1736  H     0.67418   0.78341   0.62101   0.00000  Uiso   1.00
H1737  H     0.94385   0.80510   0.57572   0.00000  Uiso   1.00
H1738  H     0.94769   0.83498   0.62721   0.00000  Uiso   1.00
H1739  H     0.89967   0.78831   0.66016   0.00000  Uiso   1.00
H1740  H     0.70408   0.90821   0.75198   0.00000  Uiso   1.00
H1741  H     0.89906   0.74341   0.62139   0.00000  Uiso   1.00
H1742  H     0.78037   0.74091   0.69214   0.00000  Uiso   1.00
H1743  H     0.88827   0.92518   0.80353   0.00000  Uiso   1.00
H1744  H     0.88612   0.74058   0.80795   0.00000  Uiso   1.00
H1745  H     0.77841   0.92550   0.69664   0.00000  Uiso   1.00
H1746  H     0.74557   0.86364   0.52772   0.00000  Uiso   1.00
N1747  N     0.83333   0.95069   0.75000   0.00000  Uiso   1.00
N1748  N     0.83333   0.71598   0.75000   0.00000  Uiso   1.00
O1749  O     0.77321   0.87291   0.74999   0.00000  Uiso   1.00
O1750  O     0.89810   0.95473   0.79257   0.00000  Uiso   1.00
O1751  O     0.89695   0.71251   0.79468   0.00000  Uiso   1.00
O1752  O     0.76856   0.95498   0.70749   0.00000  Uiso   1.00
O1753  O     0.77248   0.86805   0.51467   0.00000  Uiso   1.00
O1754  O     0.77230   0.76986   0.96679   0.00000  Uiso   1.00
O1755  O     0.89468   0.86381   0.98531   0.00000  Uiso   1.00
O1756  O     0.88699   0.76660   0.52908   0.00000  Uiso   1.00
O1757  O     0.89345   0.79375   0.75000   0.00000  Uiso   1.00
O1758  O     0.89345   0.87291   0.75000   0.00000  Uiso   1.00
O1759  O     0.77321   0.79375   0.74999   0.00000  Uiso   1.00
O1760  O     0.83333   0.87293   0.68573   0.00000  Uiso   1.00
O1761  O     0.83334   0.79374   0.81427   0.00000  Uiso   1.00
O1762  O     0.83334   0.87293   0.81427   0.00000  Uiso   1.00
O1763  O     0.83333   0.79374   0.68573   0.00000  Uiso   1.00
O1764  O     0.76962   0.71272   0.70547   0.00000  Uiso   1.00
loop_
_geom_bond_atom_site_label_1
_geom_bond_atom_site_label_2
_geom_bond_distance
_geom_bond_site_symmetry_2
_ccdc_geom_bond_type
C1     O83     1.302   .     A
C1     C19     1.453   .     S
C1     O93     1.302   .     A
C2     C18     1.401   .     A
C2     H52     1.083   .     S
C2     C102    1.384   .     S
C3     C18     1.400   .     A
C3     H63     1.083   .     S
C3     C136    1.384   .     S
C4     C19     1.401   .     A
C4     H74     1.083   .     S
C4     C198    1.384   1_455 S
C5     C16     1.393   .     A
C5     C9      1.409   .     A
C5     O87     1.381   .     S
C6     O88     1.386   .     S
C6     C17     1.409   .     A
C6     C10     1.409   .     A
C7     C11     1.411   .     A
C7     O89     1.382   .     S
C7     C17     1.396   .     A
C8     C13     1.421   .     A
C8     C16     1.397   .     A
C8     O90     1.385   .     S
C9     C14     1.427   .     A
C9     C20     1.516   .     S
C10    C15     1.429   .     A
C10    C24     1.528   .     S
C11    C15     1.426   .     A
C11    C27     1.517   .     S
C12    O91     1.302   .     A
C12    O92     1.302   .     A
C12    C18     1.453   .     S
C13    C14     1.431   .     A
C13    C30     1.531   .     S
C14    C23     1.484   .     S
C15    C33     1.483   .     S
C16    C899    1.473   1_554 S
C17    C898    1.473   .     S
C19    C38     1.400   .     A
C20    H50     1.099   .     S
C20    H51     1.110   .     S
C20    C21     1.534   .     S
C21    H49     1.108   .     S
C21    H48     1.111   .     S
C21    C22     1.526   .     S
C22    H47     1.109   .     S
C22    H46     1.111   .     S
C22    H45     1.108   .     S
C23    O97     1.304   .     A
C23    O94     1.312   .     A
C24    C25     1.535   .     S
C24    H58     1.101   .     S
C24    H59     1.113   .     S
C25    H56     1.111   .     S
C25    H57     1.112   .     S
C25    C26     1.528   .     S
C26    H53     1.109   .     S
C26    H54     1.111   .     S
C26    H251    1.107   1_455 S
C27    H66     1.099   .     S
C27    H67     1.110   .     S
C27    C28     1.534   .     S
C28    C29     1.527   .     S
C28    H64     1.111   .     S
C28    H65     1.108   .     S
C29    H61     1.111   .     S
C29    H60     1.108   .     S
C29    H62     1.109   .     S
C30    C31     1.539   .     S
C30    H73     1.103   .     S
C30    H75     1.111   .     S
C31    H71     1.109   .     S
C31    C32     1.526   .     S
C31    H72     1.111   .     S
C32    H68     1.108   .     S
C32    H69     1.111   .     S
C32    H168    1.107   .     S
C33    O95     1.303   .     A
C33    O96     1.313   .     A
C34    O98     1.375   .     S
C34    N82     1.375   .     A
C34    C625    1.412   1_545 S
C35    N81     1.380   .     A
C35    O84     1.369   .     S
C35    C330    1.412   .     S
C36    N82     1.375   .     A
C36    O85     1.375   .     S
C36    C623    1.412   1_545 S
C37    N81     1.380   .     A
C37    O86     1.368   .     S
C37    C328    1.412   .     S
C38    H41     1.083   .     S
C38    C199    1.384   1_455 S
Cu39   N81     2.038   .     S
Cu39   O94     1.965   .     S
Cu39   O92     1.966   .     S
Cu39   Cu40    2.712   .     S
Cu39   O83     1.966   .     S
Cu39   O96     1.964   .     S
Cu40   O93     1.966   .     S
Cu40   N82     2.038   .     S
Cu40   O97     1.964   .     S
Cu40   O95     1.965   .     S
Cu40   O91     1.966   .     S
H42    O88     0.989   .     S
H43    O89     0.991   .     S
H44    O90     0.987   .     S
H55    C124    1.107   .     S
H70    C228    1.107   1_455 S
H76    O98     0.983   .     S
H77    O84     0.977   .     S
H78    O85     0.983   .     S
H79    O86     0.977   .     S
H80    O87     0.991   .     S
C99    O181    1.302   .     A
C99    C117    1.453   .     S
C99    O191    1.302   .     A
C100   C116    1.401   .     A
C100   H150    1.083   .     S
C100   C200    1.384   .     S
C101   C116    1.400   .     A
C101   H161    1.083   .     S
C101   C234    1.384   .     S
C102   C117    1.401   .     A
C102   H172    1.083   .     S
C103   C114    1.393   .     A
C103   C107    1.409   .     A
C103   O185    1.381   .     S
C104   O186    1.386   .     S
C104   C115    1.409   .     A
C104   C108    1.409   .     A
C105   C109    1.411   .     A
C105   O187    1.382   .     S
C105   C115    1.396   .     A
C106   C111    1.421   .     A
C106   C114    1.397   .     A
C106   O188    1.385   .     S
C107   C112    1.427   .     A
C107   C118    1.516   .     S
C108   C113    1.429   .     A
C108   C122    1.528   .     S
C109   C113    1.426   .     A
C109   C125    1.517   .     S
C110   O189    1.302   .     A
C110   O190    1.302   .     A
C110   C116    1.453   .     S
C111   C112    1.431   .     A
C111   C128    1.531   .     S
C112   C121    1.484   .     S
C113   C131    1.483   .     S
C114   C997    1.473   1_554 S
C115   C996    1.473   .     S
C117   C136    1.400   .     A
C118   H148    1.099   .     S
C118   H149    1.110   .     S
C118   C119    1.534   .     S
C119   H147    1.108   .     S
C119   H146    1.111   .     S
C119   C120    1.526   .     S
C120   H145    1.109   .     S
C120   H144    1.111   .     S
C120   H143    1.108   .     S
C121   O195    1.304   .     A
C121   O192    1.312   .     A
C122   C123    1.535   .     S
C122   H156    1.101   .     S
C122   H157    1.113   .     S
C123   H154    1.111   .     S
C123   H155    1.112   .     S
C123   C124    1.528   .     S
C124   H151    1.109   .     S
C124   H152    1.111   .     S
C125   H164    1.099   .     S
C125   H165    1.110   .     S
C125   C126    1.534   .     S
C126   C127    1.527   .     S
C126   H162    1.111   .     S
C126   H163    1.108   .     S
C127   H159    1.111   .     S
C127   H158    1.108   .     S
C127   H160    1.109   .     S
C128   C129    1.539   .     S
C128   H171    1.103   .     S
C128   H173    1.111   .     S
C129   H169    1.109   .     S
C129   C130    1.526   .     S
C129   H170    1.111   .     S
C130   H166    1.108   .     S
C130   H167    1.111   .     S
C130   H266    1.107   .     S
C131   O193    1.303   .     A
C131   O194    1.313   .     A
C132   O196    1.375   .     S
C132   N180    1.375   .     A
C132   C723    1.412   1_545 S
C133   N179    1.380   .     A
C133   O182    1.369   .     S
C133   C428    1.412   .     S
C134   N180    1.375   .     A
C134   O183    1.375   .     S
C134   C721    1.412   1_545 S
C135   N179    1.380   .     A
C135   O184    1.368   .     S
C135   C426    1.412   .     S
C136   H139    1.083   .     S
Cu137  N179    2.038   .     S
Cu137  O192    1.965   .     S
Cu137  O190    1.966   .     S
Cu137  Cu138   2.712   .     S
Cu137  O181    1.966   .     S
Cu137  O194    1.964   .     S
Cu138  O191    1.966   .     S
Cu138  N180    2.038   .     S
Cu138  O195    1.964   .     S
Cu138  O193    1.965   .     S
Cu138  O189    1.966   .     S
H140   O186    0.989   .     S
H141   O187    0.991   .     S
H142   O188    0.987   .     S
H153   C222    1.107   .     S
H174   O196    0.983   .     S
H175   O182    0.977   .     S
H176   O183    0.983   .     S
H177   O184    0.977   .     S
H178   O185    0.991   .     S
C197   O279    1.302   .     A
C197   C215    1.453   .     S
C197   O289    1.302   .     A
C198   C214    1.401   .     A
C198   H248    1.083   .     S
C198   C4      1.384   1_655 S
C199   C214    1.400   .     A
C199   H259    1.083   .     S
C199   C38     1.384   1_655 S
C200   C215    1.401   .     A
C200   H270    1.083   .     S
C201   C212    1.393   .     A
C201   C205    1.409   .     A
C201   O283    1.381   .     S
C202   O284    1.386   .     S
C202   C213    1.409   .     A
C202   C206    1.409   .     A
C203   C207    1.411   .     A
C203   O285    1.382   .     S
C203   C213    1.396   .     A
C204   C209    1.421   .     A
C204   C212    1.397   .     A
C204   O286    1.385   .     S
C205   C210    1.427   .     A
C205   C216    1.516   .     S
C206   C211    1.429   .     A
C206   C220    1.528   .     S
C207   C211    1.426   .     A
C207   C223    1.517   .     S
C208   O287    1.302   .     A
C208   O288    1.302   .     A
C208   C214    1.453   .     S
C209   C210    1.431   .     A
C209   C226    1.531   .     S
C210   C219    1.484   .     S
C211   C229    1.483   .     S
C212   C1095   1.473   1_554 S
C213   C1094   1.473   .     S
C215   C234    1.400   .     A
C216   H246    1.099   .     S
C216   H247    1.110   .     S
C216   C217    1.534   .     S
C217   H245    1.108   .     S
C217   H244    1.111   .     S
C217   C218    1.526   .     S
C218   H243    1.109   .     S
C218   H242    1.111   .     S
C218   H241    1.108   .     S
C219   O293    1.304   .     A
C219   O290    1.312   .     A
C220   C221    1.535   .     S
C220   H254    1.101   .     S
C220   H255    1.113   .     S
C221   H252    1.111   .     S
C221   H253    1.112   .     S
C221   C222    1.528   .     S
C222   H249    1.109   .     S
C222   H250    1.111   .     S
C223   H262    1.099   .     S
C223   H263    1.110   .     S
C223   C224    1.534   .     S
C224   C225    1.527   .     S
C224   H260    1.111   .     S
C224   H261    1.108   .     S
C225   H257    1.111   .     S
C225   H256    1.108   .     S
C225   H258    1.109   .     S
C226   C227    1.539   .     S
C226   H269    1.103   .     S
C226   H271    1.111   .     S
C227   H267    1.109   .     S
C227   C228    1.526   .     S
C227   H268    1.111   .     S
C228   H264    1.108   .     S
C228   H265    1.111   .     S
C228   H70     1.107   1_655 S
C229   O291    1.303   .     A
C229   O292    1.313   .     A
C230   O294    1.375   .     S
C230   N278    1.375   .     A
C230   C821    1.412   1_545 S
C231   N277    1.380   .     A
C231   O280    1.369   .     S
C231   C526    1.412   .     S
C232   N278    1.375   .     A
C232   O281    1.375   .     S
C232   C819    1.412   1_545 S
C233   N277    1.380   .     A
C233   O282    1.368   .     S
C233   C524    1.412   .     S
C234   H237    1.083   .     S
Cu235  N277    2.038   .     S
Cu235  O290    1.965   .     S
Cu235  O288    1.966   .     S
Cu235  Cu236   2.712   .     S
Cu235  O279    1.966   .     S
Cu235  O292    1.964   .     S
Cu236  O289    1.966   .     S
Cu236  N278    2.038   .     S
Cu236  O293    1.964   .     S
Cu236  O291    1.965   .     S
Cu236  O287    1.966   .     S
H238   O284    0.989   .     S
H239   O285    0.991   .     S
H240   O286    0.987   .     S
H251   C26     1.107   1_655 S
H272   O294    0.983   .     S
H273   O280    0.977   .     S
H274   O281    0.983   .     S
H275   O282    0.977   .     S
H276   O283    0.991   .     S
C295   O377    1.302   .     A
C295   C313    1.453   .     S
C295   O387    1.302   .     A
C296   C312    1.401   .     A
C296   H346    1.083   .     S
C296   C396    1.384   .     S
C297   C312    1.400   .     A
C297   H357    1.083   .     S
C297   C430    1.384   .     S
C298   C313    1.401   .     A
C298   H368    1.083   .     S
C298   C492    1.384   1_455 S
C299   C310    1.393   .     A
C299   C303    1.409   .     A
C299   O381    1.381   .     S
C300   O382    1.386   .     S
C300   C311    1.409   .     A
C300   C304    1.409   .     A
C301   C305    1.411   .     A
C301   O383    1.382   .     S
C301   C311    1.396   .     A
C302   C307    1.421   .     A
C302   C310    1.397   .     A
C302   O384    1.385   .     S
C303   C308    1.427   .     A
C303   C314    1.516   .     S
C304   C309    1.429   .     A
C304   C318    1.528   .     S
C305   C309    1.426   .     A
C305   C321    1.517   .     S
C306   O385    1.302   .     A
C306   O386    1.302   .     A
C306   C312    1.453   .     S
C307   C308    1.431   .     A
C307   C324    1.531   .     S
C308   C317    1.484   .     S
C309   C327    1.483   .     S
C310   C1193   1.473   1_554 S
C311   C1192   1.473   .     S
C313   C332    1.400   .     A
C314   H344    1.099   .     S
C314   H345    1.110   .     S
C314   C315    1.534   .     S
C315   H343    1.108   .     S
C315   H342    1.111   .     S
C315   C316    1.526   .     S
C316   H341    1.109   .     S
C316   H340    1.111   .     S
C316   H339    1.108   .     S
C317   O391    1.304   .     A
C317   O388    1.312   .     A
C318   C319    1.535   .     S
C318   H352    1.101   .     S
C318   H353    1.113   .     S
C319   H350    1.111   .     S
C319   H351    1.112   .     S
C319   C320    1.528   .     S
C320   H347    1.109   .     S
C320   H348    1.111   .     S
C320   H545    1.107   1_455 S
C321   H360    1.099   .     S
C321   H361    1.110   .     S
C321   C322    1.534   .     S
C322   C323    1.527   .     S
C322   H358    1.111   .     S
C322   H359    1.108   .     S
C323   H355    1.111   .     S
C323   H354    1.108   .     S
C323   H356    1.109   .     S
C324   C325    1.539   .     S
C324   H367    1.103   .     S
C324   H369    1.111   .     S
C325   H365    1.109   .     S
C325   C326    1.526   .     S
C325   H366    1.111   .     S
C326   H362    1.108   .     S
C326   H363    1.111   .     S
C326   H462    1.107   .     S
C327   O389    1.303   .     A
C327   O390    1.313   .     A
C328   O392    1.375   .     S
C328   N376    1.375   .     A
C329   N375    1.380   .     A
C329   O378    1.369   .     S
C329   C624    1.412   .     S
C330   N376    1.375   .     A
C330   O379    1.375   .     S
C331   N375    1.380   .     A
C331   O380    1.368   .     S
C331   C622    1.412   .     S
C332   H335    1.083   .     S
C332   C493    1.384   1_455 S
Cu333  N375    2.038   .     S
Cu333  O388    1.965   .     S
Cu333  O386    1.966   .     S
Cu333  Cu334   2.712   .     S
Cu333  O377    1.966   .     S
Cu333  O390    1.964   .     S
Cu334  O387    1.966   .     S
Cu334  N376    2.038   .     S
Cu334  O391    1.964   .     S
Cu334  O389    1.965   .     S
Cu334  O385    1.966   .     S
H336   O382    0.989   .     S
H337   O383    0.991   .     S
H338   O384    0.987   .     S
H349   C418    1.107   .     S
H364   C522    1.107   1_455 S
H370   O392    0.983   .     S
H371   O378    0.977   .     S
H372   O379    0.983   .     S
H373   O380    0.977   .     S
H374   O381    0.991   .     S
C393   O475    1.302   .     A
C393   C411    1.453   .     S
C393   O485    1.302   .     A
C394   C410    1.401   .     A
C394   H444    1.083   .     S
C394   C494    1.384   .     S
C395   C410    1.400   .     A
C395   H455    1.083   .     S
C395   C528    1.384   .     S
C396   C411    1.401   .     A
C396   H466    1.083   .     S
C397   C408    1.393   .     A
C397   C401    1.409   .     A
C397   O479    1.381   .     S
C398   O480    1.386   .     S
C398   C409    1.409   .     A
C398   C402    1.409   .     A
C399   C403    1.411   .     A
C399   O481    1.382   .     S
C399   C409    1.396   .     A
C400   C405    1.421   .     A
C400   C408    1.397   .     A
C400   O482    1.385   .     S
C401   C406    1.427   .     A
C401   C412    1.516   .     S
C402   C407    1.429   .     A
C402   C416    1.528   .     S
C403   C407    1.426   .     A
C403   C419    1.517   .     S
C404   O483    1.302   .     A
C404   O484    1.302   .     A
C404   C410    1.453   .     S
C405   C406    1.431   .     A
C405   C422    1.531   .     S
C406   C415    1.484   .     S
C407   C425    1.483   .     S
C408   C1291   1.473   1_554 S
C409   C1290   1.473   .     S
C411   C430    1.400   .     A
C412   H442    1.099   .     S
C412   H443    1.110   .     S
C412   C413    1.534   .     S
C413   H441    1.108   .     S
C413   H440    1.111   .     S
C413   C414    1.526   .     S
C414   H439    1.109   .     S
C414   H438    1.111   .     S
C414   H437    1.108   .     S
C415   O489    1.304   .     A
C415   O486    1.312   .     A
C416   C417    1.535   .     S
C416   H450    1.101   .     S
C416   H451    1.113   .     S
C417   H448    1.111   .     S
C417   H449    1.112   .     S
C417   C418    1.528   .     S
C418   H445    1.109   .     S
C418   H446    1.111   .     S
C419   H458    1.099   .     S
C419   H459    1.110   .     S
C419   C420    1.534   .     S
C420   C421    1.527   .     S
C420   H456    1.111   .     S
C420   H457    1.108   .     S
C421   H453    1.111   .     S
C421   H452    1.108   .     S
C421   H454    1.109   .     S
C422   C423    1.539   .     S
C422   H465    1.103   .     S
C422   H467    1.111   .     S
C423   H463    1.109   .     S
C423   C424    1.526   .     S
C423   H464    1.111   .     S
C424   H460    1.108   .     S
C424   H461    1.111   .     S
C424   H560    1.107   .     S
C425   O487    1.303   .     A
C425   O488    1.313   .     A
C426   O490    1.375   .     S
C426   N474    1.375   .     A
C427   N473    1.380   .     A
C427   O476    1.369   .     S
C427   C722    1.412   .     S
C428   N474    1.375   .     A
C428   O477    1.375   .     S
C429   N473    1.380   .     A
C429   O478    1.368   .     S
C429   C720    1.412   .     S
C430   H433    1.083   .     S
Cu431  N473    2.038   .     S
Cu431  O486    1.965   .     S
Cu431  O484    1.966   .     S
Cu431  Cu432   2.712   .     S
Cu431  O475    1.966   .     S
Cu431  O488    1.964   .     S
Cu432  O485    1.966   .     S
Cu432  N474    2.038   .     S
Cu432  O489    1.964   .     S
Cu432  O487    1.965   .     S
Cu432  O483    1.966   .     S
H434   O480    0.989   .     S
H435   O481    0.991   .     S
H436   O482    0.987   .     S
H447   C516    1.107   .     S
H468   O490    0.983   .     S
H469   O476    0.977   .     S
H470   O477    0.983   .     S
H471   O478    0.977   .     S
H472   O479    0.991   .     S
C491   O573    1.302   .     A
C491   C509    1.453   .     S
C491   O583    1.302   .     A
C492   C508    1.401   .     A
C492   H542    1.083   .     S
C492   C298    1.384   1_655 S
C493   C508    1.400   .     A
C493   H553    1.083   .     S
C493   C332    1.384   1_655 S
C494   C509    1.401   .     A
C494   H564    1.083   .     S
C495   C506    1.393   .     A
C495   C499    1.409   .     A
C495   O577    1.381   .     S
C496   O578    1.386   .     S
C496   C507    1.409   .     A
C496   C500    1.409   .     A
C497   C501    1.411   .     A
C497   O579    1.382   .     S
C497   C507    1.396   .     A
C498   C503    1.421   .     A
C498   C506    1.397   .     A
C498   O580    1.385   .     S
C499   C504    1.427   .     A
C499   C510    1.516   .     S
C500   C505    1.429   .     A
C500   C514    1.528   .     S
C501   C505    1.426   .     A
C501   C517    1.517   .     S
C502   O581    1.302   .     A
C502   O582    1.302   .     A
C502   C508    1.453   .     S
C503   C504    1.431   .     A
C503   C520    1.531   .     S
C504   C513    1.484   .     S
C505   C523    1.483   .     S
C506   C1389   1.473   1_554 S
C507   C1388   1.473   .     S
C509   C528    1.400   .     A
C510   H540    1.099   .     S
C510   H541    1.110   .     S
C510   C511    1.534   .     S
C511   H539    1.108   .     S
C511   H538    1.111   .     S
C511   C512    1.526   .     S
C512   H537    1.109   .     S
C512   H536    1.111   .     S
C512   H535    1.108   .     S
C513   O587    1.304   .     A
C513   O584    1.312   .     A
C514   C515    1.535   .     S
C514   H548    1.101   .     S
C514   H549    1.113   .     S
C515   H546    1.111   .     S
C515   H547    1.112   .     S
C515   C516    1.528   .     S
C516   H543    1.109   .     S
C516   H544    1.111   .     S
C517   H556    1.099   .     S
C517   H557    1.110   .     S
C517   C518    1.534   .     S
C518   C519    1.527   .     S
C518   H554    1.111   .     S
C518   H555    1.108   .     S
C519   H551    1.111   .     S
C519   H550    1.108   .     S
C519   H552    1.109   .     S
C520   C521    1.539   .     S
C520   H563    1.103   .     S
C520   H565    1.111   .     S
C521   H561    1.109   .     S
C521   C522    1.526   .     S
C521   H562    1.111   .     S
C522   H558    1.108   .     S
C522   H559    1.111   .     S
C522   H364    1.107   1_655 S
C523   O585    1.303   .     A
C523   O586    1.313   .     A
C524   O588    1.375   .     S
C524   N572    1.375   .     A
C525   N571    1.380   .     A
C525   O574    1.369   .     S
C525   C820    1.412   .     S
C526   N572    1.375   .     A
C526   O575    1.375   .     S
C527   N571    1.380   .     A
C527   O576    1.368   .     S
C527   C818    1.412   .     S
C528   H531    1.083   .     S
Cu529  N571    2.038   .     S
Cu529  O584    1.965   .     S
Cu529  O582    1.966   .     S
Cu529  Cu530   2.712   .     S
Cu529  O573    1.966   .     S
Cu529  O586    1.964   .     S
Cu530  O583    1.966   .     S
Cu530  N572    2.038   .     S
Cu530  O587    1.964   .     S
Cu530  O585    1.965   .     S
Cu530  O581    1.966   .     S
H532   O578    0.989   .     S
H533   O579    0.991   .     S
H534   O580    0.987   .     S
H545   C320    1.107   1_655 S
H566   O588    0.983   .     S
H567   O574    0.977   .     S
H568   O575    0.983   .     S
H569   O576    0.977   .     S
H570   O577    0.991   .     S
C589   O671    1.302   .     A
C589   C607    1.453   .     S
C589   O681    1.302   .     A
C590   C606    1.401   .     A
C590   H640    1.083   .     S
C590   C690    1.384   .     S
C591   C606    1.400   .     A
C591   H651    1.083   .     S
C591   C724    1.384   .     S
C592   C607    1.401   .     A
C592   H662    1.083   .     S
C592   C786    1.384   1_455 S
C593   C604    1.393   .     A
C593   C597    1.409   .     A
C593   O675    1.381   .     S
C594   O676    1.386   .     S
C594   C605    1.409   .     A
C594   C598    1.409   .     A
C595   C599    1.411   .     A
C595   O677    1.382   .     S
C595   C605    1.396   .     A
C596   C601    1.421   .     A
C596   C604    1.397   .     A
C596   O678    1.385   .     S
C597   C602    1.427   .     A
C597   C608    1.516   .     S
C598   C603    1.429   .     A
C598   C612    1.528   .     S
C599   C603    1.426   .     A
C599   C615    1.517   .     S
C600   O679    1.302   .     A
C600   O680    1.302   .     A
C600   C606    1.453   .     S
C601   C602    1.431   .     A
C601   C618    1.531   .     S
C602   C611    1.484   .     S
C603   C621    1.483   .     S
C604   C1487   1.473   1_554 S
C605   C1486   1.473   .     S
C607   C626    1.400   .     A
C608   H638    1.099   .     S
C608   H639    1.110   .     S
C608   C609    1.534   .     S
C609   H637    1.108   .     S
C609   H636    1.111   .     S
C609   C610    1.526   .     S
C610   H635    1.109   .     S
C610   H634    1.111   .     S
C610   H633    1.108   .     S
C611   O685    1.304   .     A
C611   O682    1.312   .     A
C612   C613    1.535   .     S
C612   H646    1.101   .     S
C612   H647    1.113   .     S
C613   H644    1.111   .     S
C613   H645    1.112   .     S
C613   C614    1.528   .     S
C614   H641    1.109   .     S
C614   H642    1.111   .     S
C614   H839    1.107   1_455 S
C615   H654    1.099   .     S
C615   H655    1.110   .     S
C615   C616    1.534   .     S
C616   C617    1.527   .     S
C616   H652    1.111   .     S
C616   H653    1.108   .     S
C617   H649    1.111   .     S
C617   H648    1.108   .     S
C617   H650    1.109   .     S
C618   C619    1.539   .     S
C618   H661    1.103   .     S
C618   H663    1.111   .     S
C619   H659    1.109   .     S
C619   C620    1.526   .     S
C619   H660    1.111   .     S
C620   H656    1.108   .     S
C620   H657    1.111   .     S
C620   H756    1.107   .     S
C621   O683    1.303   .     A
C621   O684    1.313   .     A
C622   O686    1.375   .     S
C622   N670    1.375   .     A
C623   N669    1.380   .     A
C623   O672    1.369   .     S
C623   C36     1.412   1_565 S
C624   N670    1.375   .     A
C624   O673    1.375   .     S
C625   N669    1.380   .     A
C625   O674    1.368   .     S
C625   C34     1.412   1_565 S
C626   H629    1.083   .     S
C626   C787    1.384   1_455 S
Cu627  N669    2.038   .     S
Cu627  O682    1.965   .     S
Cu627  O680    1.966   .     S
Cu627  Cu628   2.712   .     S
Cu627  O671    1.966   .     S
Cu627  O684    1.964   .     S
Cu628  O681    1.966   .     S
Cu628  N670    2.038   .     S
Cu628  O685    1.964   .     S
Cu628  O683    1.965   .     S
Cu628  O679    1.966   .     S
H630   O676    0.989   .     S
H631   O677    0.991   .     S
H632   O678    0.987   .     S
H643   C712    1.107   .     S
H658   C816    1.107   1_455 S
H664   O686    0.983   .     S
H665   O672    0.977   .     S
H666   O673    0.983   .     S
H667   O674    0.977   .     S
H668   O675    0.991   .     S
C687   O769    1.302   .     A
C687   C705    1.453   .     S
C687   O779    1.302   .     A
C688   C704    1.401   .     A
C688   H738    1.083   .     S
C688   C788    1.384   .     S
C689   C704    1.400   .     A
C689   H749    1.083   .     S
C689   C822    1.384   .     S
C690   C705    1.401   .     A
C690   H760    1.083   .     S
C691   C702    1.393   .     A
C691   C695    1.409   .     A
C691   O773    1.381   .     S
C692   O774    1.386   .     S
C692   C703    1.409   .     A
C692   C696    1.409   .     A
C693   C697    1.411   .     A
C693   O775    1.382   .     S
C693   C703    1.396   .     A
C694   C699    1.421   .     A
C694   C702    1.397   .     A
C694   O776    1.385   .     S
C695   C700    1.427   .     A
C695   C706    1.516   .     S
C696   C701    1.429   .     A
C696   C710    1.528   .     S
C697   C701    1.426   .     A
C697   C713    1.517   .     S
C698   O777    1.302   .     A
C698   O778    1.302   .     A
C698   C704    1.453   .     S
C699   C700    1.431   .     A
C699   C716    1.531   .     S
C700   C709    1.484   .     S
C701   C719    1.483   .     S
C702   C1585   1.473   1_554 S
C703   C1584   1.473   .     S
C705   C724    1.400   .     A
C706   H736    1.099   .     S
C706   H737    1.110   .     S
C706   C707    1.534   .     S
C707   H735    1.108   .     S
C707   H734    1.111   .     S
C707   C708    1.526   .     S
C708   H733    1.109   .     S
C708   H732    1.111   .     S
C708   H731    1.108   .     S
C709   O783    1.304   .     A
C709   O780    1.312   .     A
C710   C711    1.535   .     S
C710   H744    1.101   .     S
C710   H745    1.113   .     S
C711   H742    1.111   .     S
C711   H743    1.112   .     S
C711   C712    1.528   .     S
C712   H739    1.109   .     S
C712   H740    1.111   .     S
C713   H752    1.099   .     S
C713   H753    1.110   .     S
C713   C714    1.534   .     S
C714   C715    1.527   .     S
C714   H750    1.111   .     S
C714   H751    1.108   .     S
C715   H747    1.111   .     S
C715   H746    1.108   .     S
C715   H748    1.109   .     S
C716   C717    1.539   .     S
C716   H759    1.103   .     S
C716   H761    1.111   .     S
C717   H757    1.109   .     S
C717   C718    1.526   .     S
C717   H758    1.111   .     S
C718   H754    1.108   .     S
C718   H755    1.111   .     S
C718   H854    1.107   .     S
C719   O781    1.303   .     A
C719   O782    1.313   .     A
C720   O784    1.375   .     S
C720   N768    1.375   .     A
C721   N767    1.380   .     A
C721   O770    1.369   .     S
C721   C134    1.412   1_565 S
C722   N768    1.375   .     A
C722   O771    1.375   .     S
C723   N767    1.380   .     A
C723   O772    1.368   .     S
C723   C132    1.412   1_565 S
C724   H727    1.083   .     S
Cu725  N767    2.038   .     S
Cu725  O780    1.965   .     S
Cu725  O778    1.966   .     S
Cu725  Cu726   2.712   .     S
Cu725  O769    1.966   .     S
Cu725  O782    1.964   .     S
Cu726  O779    1.966   .     S
Cu726  N768    2.038   .     S
Cu726  O783    1.964   .     S
Cu726  O781    1.965   .     S
Cu726  O777    1.966   .     S
H728   O774    0.989   .     S
H729   O775    0.991   .     S
H730   O776    0.987   .     S
H741   C810    1.107   .     S
H762   O784    0.983   .     S
H763   O770    0.977   .     S
H764   O771    0.983   .     S
H765   O772    0.977   .     S
H766   O773    0.991   .     S
C785   O867    1.302   .     A
C785   C803    1.453   .     S
C785   O877    1.302   .     A
C786   C802    1.401   .     A
C786   H836    1.083   .     S
C786   C592    1.384   1_655 S
C787   C802    1.400   .     A
C787   H847    1.083   .     S
C787   C626    1.384   1_655 S
C788   C803    1.401   .     A
C788   H858    1.083   .     S
C789   C800    1.393   .     A
C789   C793    1.409   .     A
C789   O871    1.381   .     S
C790   O872    1.386   .     S
C790   C801    1.409   .     A
C790   C794    1.409   .     A
C791   C795    1.411   .     A
C791   O873    1.382   .     S
C791   C801    1.396   .     A
C792   C797    1.421   .     A
C792   C800    1.397   .     A
C792   O874    1.385   .     S
C793   C798    1.427   .     A
C793   C804    1.516   .     S
C794   C799    1.429   .     A
C794   C808    1.528   .     S
C795   C799    1.426   .     A
C795   C811    1.517   .     S
C796   O875    1.302   .     A
C796   O876    1.302   .     A
C796   C802    1.453   .     S
C797   C798    1.431   .     A
C797   C814    1.531   .     S
C798   C807    1.484   .     S
C799   C817    1.483   .     S
C800   C1683   1.473   1_554 S
C801   C1682   1.473   .     S
C803   C822    1.400   .     A
C804   H834    1.099   .     S
C804   H835    1.110   .     S
C804   C805    1.534   .     S
C805   H833    1.108   .     S
C805   H832    1.111   .     S
C805   C806    1.526   .     S
C806   H831    1.109   .     S
C806   H830    1.111   .     S
C806   H829    1.108   .     S
C807   O881    1.304   .     A
C807   O878    1.312   .     A
C808   C809    1.535   .     S
C808   H842    1.101   .     S
C808   H843    1.113   .     S
C809   H840    1.111   .     S
C809   H841    1.112   .     S
C809   C810    1.528   .     S
C810   H837    1.109   .     S
C810   H838    1.111   .     S
C811   H850    1.099   .     S
C811   H851    1.110   .     S
C811   C812    1.534   .     S
C812   C813    1.527   .     S
C812   H848    1.111   .     S
C812   H849    1.108   .     S
C813   H845    1.111   .     S
C813   H844    1.108   .     S
C813   H846    1.109   .     S
C814   C815    1.539   .     S
C814   H857    1.103   .     S
C814   H859    1.111   .     S
C815   H855    1.109   .     S
C815   C816    1.526   .     S
C815   H856    1.111   .     S
C816   H852    1.108   .     S
C816   H853    1.111   .     S
C816   H658    1.107   1_655 S
C817   O879    1.303   .     A
C817   O880    1.313   .     A
C818   O882    1.375   .     S
C818   N866    1.375   .     A
C819   N865    1.380   .     A
C819   O868    1.369   .     S
C819   C232    1.412   1_565 S
C820   N866    1.375   .     A
C820   O869    1.375   .     S
C821   N865    1.380   .     A
C821   O870    1.368   .     S
C821   C230    1.412   1_565 S
C822   H825    1.083   .     S
Cu823  N865    2.038   .     S
Cu823  O878    1.965   .     S
Cu823  O876    1.966   .     S
Cu823  Cu824   2.712   .     S
Cu823  O867    1.966   .     S
Cu823  O880    1.964   .     S
Cu824  O877    1.966   .     S
Cu824  N866    2.038   .     S
Cu824  O881    1.964   .     S
Cu824  O879    1.965   .     S
Cu824  O875    1.966   .     S
H826   O872    0.989   .     S
H827   O873    0.991   .     S
H828   O874    0.987   .     S
H839   C614    1.107   1_655 S
H860   O882    0.983   .     S
H861   O868    0.977   .     S
H862   O869    0.983   .     S
H863   O870    0.977   .     S
H864   O871    0.991   .     S
C883   O965    1.302   .     A
C883   C901    1.453   .     S
C883   O975    1.302   .     A
C884   C900    1.401   .     A
C884   H934    1.083   .     S
C884   C984    1.384   .     S
C885   C900    1.400   .     A
C885   H945    1.083   .     S
C885   C1018   1.384   .     S
C886   C901    1.401   .     A
C886   H956    1.083   .     S
C886   C1080   1.384   1_455 S
C887   C898    1.393   .     A
C887   C891    1.409   .     A
C887   O969    1.381   .     S
C888   O970    1.386   .     S
C888   C899    1.409   .     A
C888   C892    1.409   .     A
C889   C893    1.411   .     A
C889   O971    1.382   .     S
C889   C899    1.396   .     A
C890   C895    1.421   .     A
C890   C898    1.397   .     A
C890   O972    1.385   .     S
C891   C896    1.427   .     A
C891   C902    1.516   .     S
C892   C897    1.429   .     A
C892   C906    1.528   .     S
C893   C897    1.426   .     A
C893   C909    1.517   .     S
C894   O973    1.302   .     A
C894   O974    1.302   .     A
C894   C900    1.453   .     S
C895   C896    1.431   .     A
C895   C912    1.531   .     S
C896   C905    1.484   .     S
C897   C915    1.483   .     S
C899   C16     1.473   1_556 S
C901   C920    1.400   .     A
C902   H932    1.099   .     S
C902   H933    1.110   .     S
C902   C903    1.534   .     S
C903   H931    1.108   .     S
C903   H930    1.111   .     S
C903   C904    1.526   .     S
C904   H929    1.109   .     S
C904   H928    1.111   .     S
C904   H927    1.108   .     S
C905   O979    1.304   .     A
C905   O976    1.312   .     A
C906   C907    1.535   .     S
C906   H940    1.101   .     S
C906   H941    1.113   .     S
C907   H938    1.111   .     S
C907   H939    1.112   .     S
C907   C908    1.528   .     S
C908   H935    1.109   .     S
C908   H936    1.111   .     S
C908   H1133   1.107   1_455 S
C909   H948    1.099   .     S
C909   H949    1.110   .     S
C909   C910    1.534   .     S
C910   C911    1.527   .     S
C910   H946    1.111   .     S
C910   H947    1.108   .     S
C911   H943    1.111   .     S
C911   H942    1.108   .     S
C911   H944    1.109   .     S
C912   C913    1.539   .     S
C912   H955    1.103   .     S
C912   H957    1.111   .     S
C913   H953    1.109   .     S
C913   C914    1.526   .     S
C913   H954    1.111   .     S
C914   H950    1.108   .     S
C914   H951    1.111   .     S
C914   H1050   1.107   .     S
C915   O977    1.303   .     A
C915   O978    1.313   .     A
C916   O980    1.375   .     S
C916   N964    1.375   .     A
C916   C1507   1.412   1_545 S
C917   N963    1.380   .     A
C917   O966    1.369   .     S
C917   C1212   1.412   .     S
C918   N964    1.375   .     A
C918   O967    1.375   .     S
C918   C1505   1.412   1_545 S
C919   N963    1.380   .     A
C919   O968    1.368   .     S
C919   C1210   1.412   .     S
C920   H923    1.083   .     S
C920   C1081   1.384   1_455 S
Cu921  N963    2.038   .     S
Cu921  O976    1.965   .     S
Cu921  O974    1.966   .     S
Cu921  Cu922   2.712   .     S
Cu921  O965    1.966   .     S
Cu921  O978    1.964   .     S
Cu922  O975    1.966   .     S
Cu922  N964    2.038   .     S
Cu922  O979    1.964   .     S
Cu922  O977    1.965   .     S
Cu922  O973    1.966   .     S
H924   O970    0.989   .     S
H925   O971    0.991   .     S
H926   O972    0.987   .     S
H937   C1006   1.107   .     S
H952   C1110   1.107   1_455 S
H958   O980    0.983   .     S
H959   O966    0.977   .     S
H960   O967    0.983   .     S
H961   O968    0.977   .     S
H962   O969    0.991   .     S
C981   O1063   1.302   .     A
C981   C999    1.453   .     S
C981   O1073   1.302   .     A
C982   C998    1.401   .     A
C982   H1032   1.083   .     S
C982   C1082   1.384   .     S
C983   C998    1.400   .     A
C983   H1043   1.083   .     S
C983   C1116   1.384   .     S
C984   C999    1.401   .     A
C984   H1054   1.083   .     S
C985   C996    1.393   .     A
C985   C989    1.409   .     A
C985   O1067   1.381   .     S
C986   O1068   1.386   .     S
C986   C997    1.409   .     A
C986   C990    1.409   .     A
C987   C991    1.411   .     A
C987   O1069   1.382   .     S
C987   C997    1.396   .     A
C988   C993    1.421   .     A
C988   C996    1.397   .     A
C988   O1070   1.385   .     S
C989   C994    1.427   .     A
C989   C1000   1.516   .     S
C990   C995    1.429   .     A
C990   C1004   1.528   .     S
C991   C995    1.426   .     A
C991   C1007   1.517   .     S
C992   O1071   1.302   .     A
C992   O1072   1.302   .     A
C992   C998    1.453   .     S
C993   C994    1.431   .     A
C993   C1010   1.531   .     S
C994   C1003   1.484   .     S
C995   C1013   1.483   .     S
C997   C114    1.473   1_556 S
C999   C1018   1.400   .     A
C1000  H1030   1.099   .     S
C1000  H1031   1.110   .     S
C1000  C1001   1.534   .     S
C1001  H1029   1.108   .     S
C1001  H1028   1.111   .     S
C1001  C1002   1.526   .     S
C1002  H1027   1.109   .     S
C1002  H1026   1.111   .     S
C1002  H1025   1.108   .     S
C1003  O1077   1.304   .     A
C1003  O1074   1.312   .     A
C1004  C1005   1.535   .     S
C1004  H1038   1.101   .     S
C1004  H1039   1.113   .     S
C1005  H1036   1.111   .     S
C1005  H1037   1.112   .     S
C1005  C1006   1.528   .     S
C1006  H1033   1.109   .     S
C1006  H1034   1.111   .     S
C1007  H1046   1.099   .     S
C1007  H1047   1.110   .     S
C1007  C1008   1.534   .     S
C1008  C1009   1.527   .     S
C1008  H1044   1.111   .     S
C1008  H1045   1.108   .     S
C1009  H1041   1.111   .     S
C1009  H1040   1.108   .     S
C1009  H1042   1.109   .     S
C1010  C1011   1.539   .     S
C1010  H1053   1.103   .     S
C1010  H1055   1.111   .     S
C1011  H1051   1.109   .     S
C1011  C1012   1.526   .     S
C1011  H1052   1.111   .     S
C1012  H1048   1.108   .     S
C1012  H1049   1.111   .     S
C1012  H1148   1.107   .     S
C1013  O1075   1.303   .     A
C1013  O1076   1.313   .     A
C1014  O1078   1.375   .     S
C1014  N1062   1.375   .     A
C1014  C1605   1.412   1_545 S
C1015  N1061   1.380   .     A
C1015  O1064   1.369   .     S
C1015  C1310   1.412   .     S
C1016  N1062   1.375   .     A
C1016  O1065   1.375   .     S
C1016  C1603   1.412   1_545 S
C1017  N1061   1.380   .     A
C1017  O1066   1.368   .     S
C1017  C1308   1.412   .     S
C1018  H1021   1.083   .     S
Cu1019 N1061   2.038   .     S
Cu1019 O1074   1.965   .     S
Cu1019 O1072   1.966   .     S
Cu1019 Cu1020  2.712   .     S
Cu1019 O1063   1.966   .     S
Cu1019 O1076   1.964   .     S
Cu1020 O1073   1.966   .     S
Cu1020 N1062   2.038   .     S
Cu1020 O1077   1.964   .     S
Cu1020 O1075   1.965   .     S
Cu1020 O1071   1.966   .     S
H1022  O1068   0.989   .     S
H1023  O1069   0.991   .     S
H1024  O1070   0.987   .     S
H1035  C1104   1.107   .     S
H1056  O1078   0.983   .     S
H1057  O1064   0.977   .     S
H1058  O1065   0.983   .     S
H1059  O1066   0.977   .     S
H1060  O1067   0.991   .     S
C1079  O1161   1.302   .     A
C1079  C1097   1.453   .     S
C1079  O1171   1.302   .     A
C1080  C1096   1.401   .     A
C1080  H1130   1.083   .     S
C1080  C886    1.384   1_655 S
C1081  C1096   1.400   .     A
C1081  H1141   1.083   .     S
C1081  C920    1.384   1_655 S
C1082  C1097   1.401   .     A
C1082  H1152   1.083   .     S
C1083  C1094   1.393   .     A
C1083  C1087   1.409   .     A
C1083  O1165   1.381   .     S
C1084  O1166   1.386   .     S
C1084  C1095   1.409   .     A
C1084  C1088   1.409   .     A
C1085  C1089   1.411   .     A
C1085  O1167   1.382   .     S
C1085  C1095   1.396   .     A
C1086  C1091   1.421   .     A
C1086  C1094   1.397   .     A
C1086  O1168   1.385   .     S
C1087  C1092   1.427   .     A
C1087  C1098   1.516   .     S
C1088  C1093   1.429   .     A
C1088  C1102   1.528   .     S
C1089  C1093   1.426   .     A
C1089  C1105   1.517   .     S
C1090  O1169   1.302   .     A
C1090  O1170   1.302   .     A
C1090  C1096   1.453   .     S
C1091  C1092   1.431   .     A
C1091  C1108   1.531   .     S
C1092  C1101   1.484   .     S
C1093  C1111   1.483   .     S
C1095  C212    1.473   1_556 S
C1097  C1116   1.400   .     A
C1098  H1128   1.099   .     S
C1098  H1129   1.110   .     S
C1098  C1099   1.534   .     S
C1099  H1127   1.108   .     S
C1099  H1126   1.111   .     S
C1099  C1100   1.526   .     S
C1100  H1125   1.109   .     S
C1100  H1124   1.111   .     S
C1100  H1123   1.108   .     S
C1101  O1175   1.304   .     A
C1101  O1172   1.312   .     A
C1102  C1103   1.535   .     S
C1102  H1136   1.101   .     S
C1102  H1137   1.113   .     S
C1103  H1134   1.111   .     S
C1103  H1135   1.112   .     S
C1103  C1104   1.528   .     S
C1104  H1131   1.109   .     S
C1104  H1132   1.111   .     S
C1105  H1144   1.099   .     S
C1105  H1145   1.110   .     S
C1105  C1106   1.534   .     S
C1106  C1107   1.527   .     S
C1106  H1142   1.111   .     S
C1106  H1143   1.108   .     S
C1107  H1139   1.111   .     S
C1107  H1138   1.108   .     S
C1107  H1140   1.109   .     S
C1108  C1109   1.539   .     S
C1108  H1151   1.103   .     S
C1108  H1153   1.111   .     S
C1109  H1149   1.109   .     S
C1109  C1110   1.526   .     S
C1109  H1150   1.111   .     S
C1110  H1146   1.108   .     S
C1110  H1147   1.111   .     S
C1110  H952    1.107   1_655 S
C1111  O1173   1.303   .     A
C1111  O1174   1.313   .     A
C1112  O1176   1.375   .     S
C1112  N1160   1.375   .     A
C1112  C1703   1.412   1_545 S
C1113  N1159   1.380   .     A
C1113  O1162   1.369   .     S
C1113  C1408   1.412   .     S
C1114  N1160   1.375   .     A
C1114  O1163   1.375   .     S
C1114  C1701   1.412   1_545 S
C1115  N1159   1.380   .     A
C1115  O1164   1.368   .     S
C1115  C1406   1.412   .     S
C1116  H1119   1.083   .     S
Cu1117 N1159   2.038   .     S
Cu1117 O1172   1.965   .     S
Cu1117 O1170   1.966   .     S
Cu1117 Cu1118  2.712   .     S
Cu1117 O1161   1.966   .     S
Cu1117 O1174   1.964   .     S
Cu1118 O1171   1.966   .     S
Cu1118 N1160   2.038   .     S
Cu1118 O1175   1.964   .     S
Cu1118 O1173   1.965   .     S
Cu1118 O1169   1.966   .     S
H1120  O1166   0.989   .     S
H1121  O1167   0.991   .     S
H1122  O1168   0.987   .     S
H1133  C908    1.107   1_655 S
H1154  O1176   0.983   .     S
H1155  O1162   0.977   .     S
H1156  O1163   0.983   .     S
H1157  O1164   0.977   .     S
H1158  O1165   0.991   .     S
C1177  O1259   1.302   .     A
C1177  C1195   1.453   .     S
C1177  O1269   1.302   .     A
C1178  C1194   1.401   .     A
C1178  H1228   1.083   .     S
C1178  C1278   1.384   .     S
C1179  C1194   1.400   .     A
C1179  H1239   1.083   .     S
C1179  C1312   1.384   .     S
C1180  C1195   1.401   .     A
C1180  H1250   1.083   .     S
C1180  C1374   1.384   1_455 S
C1181  C1192   1.393   .     A
C1181  C1185   1.409   .     A
C1181  O1263   1.381   .     S
C1182  O1264   1.386   .     S
C1182  C1193   1.409   .     A
C1182  C1186   1.409   .     A
C1183  C1187   1.411   .     A
C1183  O1265   1.382   .     S
C1183  C1193   1.396   .     A
C1184  C1189   1.421   .     A
C1184  C1192   1.397   .     A
C1184  O1266   1.385   .     S
C1185  C1190   1.427   .     A
C1185  C1196   1.516   .     S
C1186  C1191   1.429   .     A
C1186  C1200   1.528   .     S
C1187  C1191   1.426   .     A
C1187  C1203   1.517   .     S
C1188  O1267   1.302   .     A
C1188  O1268   1.302   .     A
C1188  C1194   1.453   .     S
C1189  C1190   1.431   .     A
C1189  C1206   1.531   .     S
C1190  C1199   1.484   .     S
C1191  C1209   1.483   .     S
C1193  C310    1.473   1_556 S
C1195  C1214   1.400   .     A
C1196  H1226   1.099   .     S
C1196  H1227   1.110   .     S
C1196  C1197   1.534   .     S
C1197  H1225   1.108   .     S
C1197  H1224   1.111   .     S
C1197  C1198   1.526   .     S
C1198  H1223   1.109   .     S
C1198  H1222   1.111   .     S
C1198  H1221   1.108   .     S
C1199  O1273   1.304   .     A
C1199  O1270   1.312   .     A
C1200  C1201   1.535   .     S
C1200  H1234   1.101   .     S
C1200  H1235   1.113   .     S
C1201  H1232   1.111   .     S
C1201  H1233   1.112   .     S
C1201  C1202   1.528   .     S
C1202  H1229   1.109   .     S
C1202  H1230   1.111   .     S
C1202  H1427   1.107   1_455 S
C1203  H1242   1.099   .     S
C1203  H1243   1.110   .     S
C1203  C1204   1.534   .     S
C1204  C1205   1.527   .     S
C1204  H1240   1.111   .     S
C1204  H1241   1.108   .     S
C1205  H1237   1.111   .     S
C1205  H1236   1.108   .     S
C1205  H1238   1.109   .     S
C1206  C1207   1.539   .     S
C1206  H1249   1.103   .     S
C1206  H1251   1.111   .     S
C1207  H1247   1.109   .     S
C1207  C1208   1.526   .     S
C1207  H1248   1.111   .     S
C1208  H1244   1.108   .     S
C1208  H1245   1.111   .     S
C1208  H1344   1.107   .     S
C1209  O1271   1.303   .     A
C1209  O1272   1.313   .     A
C1210  O1274   1.375   .     S
C1210  N1258   1.375   .     A
C1211  N1257   1.380   .     A
C1211  O1260   1.369   .     S
C1211  C1506   1.412   .     S
C1212  N1258   1.375   .     A
C1212  O1261   1.375   .     S
C1213  N1257   1.380   .     A
C1213  O1262   1.368   .     S
C1213  C1504   1.412   .     S
C1214  H1217   1.083   .     S
C1214  C1375   1.384   1_455 S
Cu1215 N1257   2.038   .     S
Cu1215 O1270   1.965   .     S
Cu1215 O1268   1.966   .     S
Cu1215 Cu1216  2.712   .     S
Cu1215 O1259   1.966   .     S
Cu1215 O1272   1.964   .     S
Cu1216 O1269   1.966   .     S
Cu1216 N1258   2.038   .     S
Cu1216 O1273   1.964   .     S
Cu1216 O1271   1.965   .     S
Cu1216 O1267   1.966   .     S
H1218  O1264   0.989   .     S
H1219  O1265   0.991   .     S
H1220  O1266   0.987   .     S
H1231  C1300   1.107   .     S
H1246  C1404   1.107   1_455 S
H1252  O1274   0.983   .     S
H1253  O1260   0.977   .     S
H1254  O1261   0.983   .     S
H1255  O1262   0.977   .     S
H1256  O1263   0.991   .     S
C1275  O1357   1.302   .     A
C1275  C1293   1.453   .     S
C1275  O1367   1.302   .     A
C1276  C1292   1.401   .     A
C1276  H1326   1.083   .     S
C1276  C1376   1.384   .     S
C1277  C1292   1.400   .     A
C1277  H1337   1.083   .     S
C1277  C1410   1.384   .     S
C1278  C1293   1.401   .     A
C1278  H1348   1.083   .     S
C1279  C1290   1.393   .     A
C1279  C1283   1.409   .     A
C1279  O1361   1.381   .     S
C1280  O1362   1.386   .     S
C1280  C1291   1.409   .     A
C1280  C1284   1.409   .     A
C1281  C1285   1.411   .     A
C1281  O1363   1.382   .     S
C1281  C1291   1.396   .     A
C1282  C1287   1.421   .     A
C1282  C1290   1.397   .     A
C1282  O1364   1.385   .     S
C1283  C1288   1.427   .     A
C1283  C1294   1.516   .     S
C1284  C1289   1.429   .     A
C1284  C1298   1.528   .     S
C1285  C1289   1.426   .     A
C1285  C1301   1.517   .     S
C1286  O1365   1.302   .     A
C1286  O1366   1.302   .     A
C1286  C1292   1.453   .     S
C1287  C1288   1.431   .     A
C1287  C1304   1.531   .     S
C1288  C1297   1.484   .     S
C1289  C1307   1.483   .     S
C1291  C408    1.473   1_556 S
C1293  C1312   1.400   .     A
C1294  H1324   1.099   .     S
C1294  H1325   1.110   .     S
C1294  C1295   1.534   .     S
C1295  H1323   1.108   .     S
C1295  H1322   1.111   .     S
C1295  C1296   1.526   .     S
C1296  H1321   1.109   .     S
C1296  H1320   1.111   .     S
C1296  H1319   1.108   .     S
C1297  O1371   1.304   .     A
C1297  O1368   1.312   .     A
C1298  C1299   1.535   .     S
C1298  H1332   1.101   .     S
C1298  H1333   1.113   .     S
C1299  H1330   1.111   .     S
C1299  H1331   1.112   .     S
C1299  C1300   1.528   .     S
C1300  H1327   1.109   .     S
C1300  H1328   1.111   .     S
C1301  H1340   1.099   .     S
C1301  H1341   1.110   .     S
C1301  C1302   1.534   .     S
C1302  C1303   1.527   .     S
C1302  H1338   1.111   .     S
C1302  H1339   1.108   .     S
C1303  H1335   1.111   .     S
C1303  H1334   1.108   .     S
C1303  H1336   1.109   .     S
C1304  C1305   1.539   .     S
C1304  H1347   1.103   .     S
C1304  H1349   1.111   .     S
C1305  H1345   1.109   .     S
C1305  C1306   1.526   .     S
C1305  H1346   1.111   .     S
C1306  H1342   1.108   .     S
C1306  H1343   1.111   .     S
C1306  H1442   1.107   .     S
C1307  O1369   1.303   .     A
C1307  O1370   1.313   .     A
C1308  O1372   1.375   .     S
C1308  N1356   1.375   .     A
C1309  N1355   1.380   .     A
C1309  O1358   1.369   .     S
C1309  C1604   1.412   .     S
C1310  N1356   1.375   .     A
C1310  O1359   1.375   .     S
C1311  N1355   1.380   .     A
C1311  O1360   1.368   .     S
C1311  C1602   1.412   .     S
C1312  H1315   1.083   .     S
Cu1313 N1355   2.038   .     S
Cu1313 O1368   1.965   .     S
Cu1313 O1366   1.966   .     S
Cu1313 Cu1314  2.712   .     S
Cu1313 O1357   1.966   .     S
Cu1313 O1370   1.964   .     S
Cu1314 O1367   1.966   .     S
Cu1314 N1356   2.038   .     S
Cu1314 O1371   1.964   .     S
Cu1314 O1369   1.965   .     S
Cu1314 O1365   1.966   .     S
H1316  O1362   0.989   .     S
H1317  O1363   0.991   .     S
H1318  O1364   0.987   .     S
H1329  C1398   1.107   .     S
H1350  O1372   0.983   .     S
H1351  O1358   0.977   .     S
H1352  O1359   0.983   .     S
H1353  O1360   0.977   .     S
H1354  O1361   0.991   .     S
C1373  O1455   1.302   .     A
C1373  C1391   1.453   .     S
C1373  O1465   1.302   .     A
C1374  C1390   1.401   .     A
C1374  H1424   1.083   .     S
C1374  C1180   1.384   1_655 S
C1375  C1390   1.400   .     A
C1375  H1435   1.083   .     S
C1375  C1214   1.384   1_655 S
C1376  C1391   1.401   .     A
C1376  H1446   1.083   .     S
C1377  C1388   1.393   .     A
C1377  C1381   1.409   .     A
C1377  O1459   1.381   .     S
C1378  O1460   1.386   .     S
C1378  C1389   1.409   .     A
C1378  C1382   1.409   .     A
C1379  C1383   1.411   .     A
C1379  O1461   1.382   .     S
C1379  C1389   1.396   .     A
C1380  C1385   1.421   .     A
C1380  C1388   1.397   .     A
C1380  O1462   1.385   .     S
C1381  C1386   1.427   .     A
C1381  C1392   1.516   .     S
C1382  C1387   1.429   .     A
C1382  C1396   1.528   .     S
C1383  C1387   1.426   .     A
C1383  C1399   1.517   .     S
C1384  O1463   1.302   .     A
C1384  O1464   1.302   .     A
C1384  C1390   1.453   .     S
C1385  C1386   1.431   .     A
C1385  C1402   1.531   .     S
C1386  C1395   1.484   .     S
C1387  C1405   1.483   .     S
C1389  C506    1.473   1_556 S
C1391  C1410   1.400   .     A
C1392  H1422   1.099   .     S
C1392  H1423   1.110   .     S
C1392  C1393   1.534   .     S
C1393  H1421   1.108   .     S
C1393  H1420   1.111   .     S
C1393  C1394   1.526   .     S
C1394  H1419   1.109   .     S
C1394  H1418   1.111   .     S
C1394  H1417   1.108   .     S
C1395  O1469   1.304   .     A
C1395  O1466   1.312   .     A
C1396  C1397   1.535   .     S
C1396  H1430   1.101   .     S
C1396  H1431   1.113   .     S
C1397  H1428   1.111   .     S
C1397  H1429   1.112   .     S
C1397  C1398   1.528   .     S
C1398  H1425   1.109   .     S
C1398  H1426   1.111   .     S
C1399  H1438   1.099   .     S
C1399  H1439   1.110   .     S
C1399  C1400   1.534   .     S
C1400  C1401   1.527   .     S
C1400  H1436   1.111   .     S
C1400  H1437   1.108   .     S
C1401  H1433   1.111   .     S
C1401  H1432   1.108   .     S
C1401  H1434   1.109   .     S
C1402  C1403   1.539   .     S
C1402  H1445   1.103   .     S
C1402  H1447   1.111   .     S
C1403  H1443   1.109   .     S
C1403  C1404   1.526   .     S
C1403  H1444   1.111   .     S
C1404  H1440   1.108   .     S
C1404  H1441   1.111   .     S
C1404  H1246   1.107   1_655 S
C1405  O1467   1.303   .     A
C1405  O1468   1.313   .     A
C1406  O1470   1.375   .     S
C1406  N1454   1.375   .     A
C1407  N1453   1.380   .     A
C1407  O1456   1.369   .     S
C1407  C1702   1.412   .     S
C1408  N1454   1.375   .     A
C1408  O1457   1.375   .     S
C1409  N1453   1.380   .     A
C1409  O1458   1.368   .     S
C1409  C1700   1.412   .     S
C1410  H1413   1.083   .     S
Cu1411 N1453   2.038   .     S
Cu1411 O1466   1.965   .     S
Cu1411 O1464   1.966   .     S
Cu1411 Cu1412  2.712   .     S
Cu1411 O1455   1.966   .     S
Cu1411 O1468   1.964   .     S
Cu1412 O1465   1.966   .     S
Cu1412 N1454   2.038   .     S
Cu1412 O1469   1.964   .     S
Cu1412 O1467   1.965   .     S
Cu1412 O1463   1.966   .     S
H1414  O1460   0.989   .     S
H1415  O1461   0.991   .     S
H1416  O1462   0.987   .     S
H1427  C1202   1.107   1_655 S
H1448  O1470   0.983   .     S
H1449  O1456   0.977   .     S
H1450  O1457   0.983   .     S
H1451  O1458   0.977   .     S
H1452  O1459   0.991   .     S
C1471  O1553   1.302   .     A
C1471  C1489   1.453   .     S
C1471  O1563   1.302   .     A
C1472  C1488   1.401   .     A
C1472  H1522   1.083   .     S
C1472  C1572   1.384   .     S
C1473  C1488   1.400   .     A
C1473  H1533   1.083   .     S
C1473  C1606   1.384   .     S
C1474  C1489   1.401   .     A
C1474  H1544   1.083   .     S
C1474  C1668   1.384   1_455 S
C1475  C1486   1.393   .     A
C1475  C1479   1.409   .     A
C1475  O1557   1.381   .     S
C1476  O1558   1.386   .     S
C1476  C1487   1.409   .     A
C1476  C1480   1.409   .     A
C1477  C1481   1.411   .     A
C1477  O1559   1.382   .     S
C1477  C1487   1.396   .     A
C1478  C1483   1.421   .     A
C1478  C1486   1.397   .     A
C1478  O1560   1.385   .     S
C1479  C1484   1.427   .     A
C1479  C1490   1.516   .     S
C1480  C1485   1.429   .     A
C1480  C1494   1.528   .     S
C1481  C1485   1.426   .     A
C1481  C1497   1.517   .     S
C1482  O1561   1.302   .     A
C1482  O1562   1.302   .     A
C1482  C1488   1.453   .     S
C1483  C1484   1.431   .     A
C1483  C1500   1.531   .     S
C1484  C1493   1.484   .     S
C1485  C1503   1.483   .     S
C1487  C604    1.473   1_556 S
C1489  C1508   1.400   .     A
C1490  H1520   1.099   .     S
C1490  H1521   1.110   .     S
C1490  C1491   1.534   .     S
C1491  H1519   1.108   .     S
C1491  H1518   1.111   .     S
C1491  C1492   1.526   .     S
C1492  H1517   1.109   .     S
C1492  H1516   1.111   .     S
C1492  H1515   1.108   .     S
C1493  O1567   1.304   .     A
C1493  O1564   1.312   .     A
C1494  C1495   1.535   .     S
C1494  H1528   1.101   .     S
C1494  H1529   1.113   .     S
C1495  H1526   1.111   .     S
C1495  H1527   1.112   .     S
C1495  C1496   1.528   .     S
C1496  H1523   1.109   .     S
C1496  H1524   1.111   .     S
C1496  H1721   1.107   1_455 S
C1497  H1536   1.099   .     S
C1497  H1537   1.110   .     S
C1497  C1498   1.534   .     S
C1498  C1499   1.527   .     S
C1498  H1534   1.111   .     S
C1498  H1535   1.108   .     S
C1499  H1531   1.111   .     S
C1499  H1530   1.108   .     S
C1499  H1532   1.109   .     S
C1500  C1501   1.539   .     S
C1500  H1543   1.103   .     S
C1500  H1545   1.111   .     S
C1501  H1541   1.109   .     S
C1501  C1502   1.526   .     S
C1501  H1542   1.111   .     S
C1502  H1538   1.108   .     S
C1502  H1539   1.111   .     S
C1502  H1638   1.107   .     S
C1503  O1565   1.303   .     A
C1503  O1566   1.313   .     A
C1504  O1568   1.375   .     S
C1504  N1552   1.375   .     A
C1505  N1551   1.380   .     A
C1505  O1554   1.369   .     S
C1505  C918    1.412   1_565 S
C1506  N1552   1.375   .     A
C1506  O1555   1.375   .     S
C1507  N1551   1.380   .     A
C1507  O1556   1.368   .     S
C1507  C916    1.412   1_565 S
C1508  H1511   1.083   .     S
C1508  C1669   1.384   1_455 S
Cu1509 N1551   2.038   .     S
Cu1509 O1564   1.965   .     S
Cu1509 O1562   1.966   .     S
Cu1509 Cu1510  2.712   .     S
Cu1509 O1553   1.966   .     S
Cu1509 O1566   1.964   .     S
Cu1510 O1563   1.966   .     S
Cu1510 N1552   2.038   .     S
Cu1510 O1567   1.964   .     S
Cu1510 O1565   1.965   .     S
Cu1510 O1561   1.966   .     S
H1512  O1558   0.989   .     S
H1513  O1559   0.991   .     S
H1514  O1560   0.987   .     S
H1525  C1594   1.107   .     S
H1540  C1698   1.107   1_455 S
H1546  O1568   0.983   .     S
H1547  O1554   0.977   .     S
H1548  O1555   0.983   .     S
H1549  O1556   0.977   .     S
H1550  O1557   0.991   .     S
C1569  O1651   1.302   .     A
C1569  C1587   1.453   .     S
C1569  O1661   1.302   .     A
C1570  C1586   1.401   .     A
C1570  H1620   1.083   .     S
C1570  C1670   1.384   .     S
C1571  C1586   1.400   .     A
C1571  H1631   1.083   .     S
C1571  C1704   1.384   .     S
C1572  C1587   1.401   .     A
C1572  H1642   1.083   .     S
C1573  C1584   1.393   .     A
C1573  C1577   1.409   .     A
C1573  O1655   1.381   .     S
C1574  O1656   1.386   .     S
C1574  C1585   1.409   .     A
C1574  C1578   1.409   .     A
C1575  C1579   1.411   .     A
C1575  O1657   1.382   .     S
C1575  C1585   1.396   .     A
C1576  C1581   1.421   .     A
C1576  C1584   1.397   .     A
C1576  O1658   1.385   .     S
C1577  C1582   1.427   .     A
C1577  C1588   1.516   .     S
C1578  C1583   1.429   .     A
C1578  C1592   1.528   .     S
C1579  C1583   1.426   .     A
C1579  C1595   1.517   .     S
C1580  O1659   1.302   .     A
C1580  O1660   1.302   .     A
C1580  C1586   1.453   .     S
C1581  C1582   1.431   .     A
C1581  C1598   1.531   .     S
C1582  C1591   1.484   .     S
C1583  C1601   1.483   .     S
C1585  C702    1.473   1_556 S
C1587  C1606   1.400   .     A
C1588  H1618   1.099   .     S
C1588  H1619   1.110   .     S
C1588  C1589   1.534   .     S
C1589  H1617   1.108   .     S
C1589  H1616   1.111   .     S
C1589  C1590   1.526   .     S
C1590  H1615   1.109   .     S
C1590  H1614   1.111   .     S
C1590  H1613   1.108   .     S
C1591  O1665   1.304   .     A
C1591  O1662   1.312   .     A
C1592  C1593   1.535   .     S
C1592  H1626   1.101   .     S
C1592  H1627   1.113   .     S
C1593  H1624   1.111   .     S
C1593  H1625   1.112   .     S
C1593  C1594   1.528   .     S
C1594  H1621   1.109   .     S
C1594  H1622   1.111   .     S
C1595  H1634   1.099   .     S
C1595  H1635   1.110   .     S
C1595  C1596   1.534   .     S
C1596  C1597   1.527   .     S
C1596  H1632   1.111   .     S
C1596  H1633   1.108   .     S
C1597  H1629   1.111   .     S
C1597  H1628   1.108   .     S
C1597  H1630   1.109   .     S
C1598  C1599   1.539   .     S
C1598  H1641   1.103   .     S
C1598  H1643   1.111   .     S
C1599  H1639   1.109   .     S
C1599  C1600   1.526   .     S
C1599  H1640   1.111   .     S
C1600  H1636   1.108   .     S
C1600  H1637   1.111   .     S
C1600  H1736   1.107   .     S
C1601  O1663   1.303   .     A
C1601  O1664   1.313   .     A
C1602  O1666   1.375   .     S
C1602  N1650   1.375   .     A
C1603  N1649   1.380   .     A
C1603  O1652   1.369   .     S
C1603  C1016   1.412   1_565 S
C1604  N1650   1.375   .     A
C1604  O1653   1.375   .     S
C1605  N1649   1.380   .     A
C1605  O1654   1.368   .     S
C1605  C1014   1.412   1_565 S
C1606  H1609   1.083   .     S
Cu1607 N1649   2.038   .     S
Cu1607 O1662   1.965   .     S
Cu1607 O1660   1.966   .     S
Cu1607 Cu1608  2.712   .     S
Cu1607 O1651   1.966   .     S
Cu1607 O1664   1.964   .     S
Cu1608 O1661   1.966   .     S
Cu1608 N1650   2.038   .     S
Cu1608 O1665   1.964   .     S
Cu1608 O1663   1.965   .     S
Cu1608 O1659   1.966   .     S
H1610  O1656   0.989   .     S
H1611  O1657   0.991   .     S
H1612  O1658   0.987   .     S
H1623  C1692   1.107   .     S
H1644  O1666   0.983   .     S
H1645  O1652   0.977   .     S
H1646  O1653   0.983   .     S
H1647  O1654   0.977   .     S
H1648  O1655   0.991   .     S
C1667  O1749   1.302   .     A
C1667  C1685   1.453   .     S
C1667  O1759   1.302   .     A
C1668  C1684   1.401   .     A
C1668  H1718   1.083   .     S
C1668  C1474   1.384   1_655 S
C1669  C1684   1.400   .     A
C1669  H1729   1.083   .     S
C1669  C1508   1.384   1_655 S
C1670  C1685   1.401   .     A
C1670  H1740   1.083   .     S
C1671  C1682   1.393   .     A
C1671  C1675   1.409   .     A
C1671  O1753   1.381   .     S
C1672  O1754   1.386   .     S
C1672  C1683   1.409   .     A
C1672  C1676   1.409   .     A
C1673  C1677   1.411   .     A
C1673  O1755   1.382   .     S
C1673  C1683   1.396   .     A
C1674  C1679   1.421   .     A
C1674  C1682   1.397   .     A
C1674  O1756   1.385   .     S
C1675  C1680   1.427   .     A
C1675  C1686   1.516   .     S
C1676  C1681   1.429   .     A
C1676  C1690   1.528   .     S
C1677  C1681   1.426   .     A
C1677  C1693   1.517   .     S
C1678  O1757   1.302   .     A
C1678  O1758   1.302   .     A
C1678  C1684   1.453   .     S
C1679  C1680   1.431   .     A
C1679  C1696   1.531   .     S
C1680  C1689   1.484   .     S
C1681  C1699   1.483   .     S
C1683  C800    1.473   1_556 S
C1685  C1704   1.400   .     A
C1686  H1716   1.099   .     S
C1686  H1717   1.110   .     S
C1686  C1687   1.534   .     S
C1687  H1715   1.108   .     S
C1687  H1714   1.111   .     S
C1687  C1688   1.526   .     S
C1688  H1713   1.109   .     S
C1688  H1712   1.111   .     S
C1688  H1711   1.108   .     S
C1689  O1763   1.304   .     A
C1689  O1760   1.312   .     A
C1690  C1691   1.535   .     S
C1690  H1724   1.101   .     S
C1690  H1725   1.113   .     S
C1691  H1722   1.111   .     S
C1691  H1723   1.112   .     S
C1691  C1692   1.528   .     S
C1692  H1719   1.109   .     S
C1692  H1720   1.111   .     S
C1693  H1732   1.099   .     S
C1693  H1733   1.110   .     S
C1693  C1694   1.534   .     S
C1694  C1695   1.527   .     S
C1694  H1730   1.111   .     S
C1694  H1731   1.108   .     S
C1695  H1727   1.111   .     S
C1695  H1726   1.108   .     S
C1695  H1728   1.109   .     S
C1696  C1697   1.539   .     S
C1696  H1739   1.103   .     S
C1696  H1741   1.111   .     S
C1697  H1737   1.109   .     S
C1697  C1698   1.526   .     S
C1697  H1738   1.111   .     S
C1698  H1734   1.108   .     S
C1698  H1735   1.111   .     S
C1698  H1540   1.107   1_655 S
C1699  O1761   1.303   .     A
C1699  O1762   1.313   .     A
C1700  O1764   1.375   .     S
C1700  N1748   1.375   .     A
C1701  N1747   1.380   .     A
C1701  O1750   1.369   .     S
C1701  C1114   1.412   1_565 S
C1702  N1748   1.375   .     A
C1702  O1751   1.375   .     S
C1703  N1747   1.380   .     A
C1703  O1752   1.368   .     S
C1703  C1112   1.412   1_565 S
C1704  H1707   1.083   .     S
Cu1705 N1747   2.038   .     S
Cu1705 O1760   1.965   .     S
Cu1705 O1758   1.966   .     S
Cu1705 Cu1706  2.712   .     S
Cu1705 O1749   1.966   .     S
Cu1705 O1762   1.964   .     S
Cu1706 O1759   1.966   .     S
Cu1706 N1748   2.038   .     S
Cu1706 O1763   1.964   .     S
Cu1706 O1761   1.965   .     S
Cu1706 O1757   1.966   .     S
H1708  O1754   0.989   .     S
H1709  O1755   0.991   .     S
H1710  O1756   0.987   .     S
H1721  C1496   1.107   1_655 S
H1742  O1764   0.983   .     S
H1743  O1750   0.977   .     S
H1744  O1751   0.983   .     S
H1745  O1752   0.977   .     S
H1746  O1753   0.991   .     S
