data_str_m2_o1_o16_pcu_sym.245
_audit_creation_date              2020-01-03
_audit_creation_method            'Materials Studio'
_symmetry_space_group_name_H-M    'P1'
_symmetry_Int_Tables_number       1
_symmetry_cell_setting            triclinic
loop_
_symmetry_equiv_pos_as_xyz
  x,y,z
_cell_length_a                    28.5463
_cell_length_b                    32.3670
_cell_length_c                    26.9576
_cell_angle_alpha                 90.1838
_cell_angle_beta                  72.1263
_cell_angle_gamma                 90.0496
loop_
_atom_site_label
_atom_site_type_symbol
_atom_site_fract_x
_atom_site_fract_y
_atom_site_fract_z
_atom_site_U_iso_or_equiv
_atom_site_adp_type
_atom_site_occupancy
C1     C     0.16619   0.24589   0.25174   0.00000  Uiso   1.00
C2     C     0.15178   0.17952   0.48386   0.00000  Uiso   1.00
C3     C     0.15563   0.15889   0.43632   0.00000  Uiso   1.00
C4     C     0.18469   0.16845   0.01224   0.00000  Uiso   1.00
C5     C     0.22709   0.14440   0.48691   0.00000  Uiso   1.00
C6     C     0.23109   0.12490   0.43875   0.00000  Uiso   1.00
C7     C     0.19134   0.12747   0.41823   0.00000  Uiso   1.00
C8     C     0.17567   0.17882   0.06553   0.00000  Uiso   1.00
C9     C     0.25443   0.14863   0.06431   0.00000  Uiso   1.00
C10    C     0.12452   0.17117   0.40683   0.00000  Uiso   1.00
C11    C     0.20642   0.31199   0.22472   0.00000  Uiso   1.00
C12    C     0.14023   0.16608   0.35004   0.00000  Uiso   1.00
C13    C     0.20640   0.02129   0.22470   0.00000  Uiso   1.00
C14    C     0.16530   0.04290   0.25532   0.00000  Uiso   1.00
C15    C     0.12428   0.02161   0.28849   0.00000  Uiso   1.00
C16    C     0.12430   0.31188   0.28852   0.00000  Uiso   1.00
C17    C     0.16535   0.29047   0.25538   0.00000  Uiso   1.00
C18    C     0.29869   0.19092   0.28415   0.00000  Uiso   1.00
C19    C     0.01496   0.19086   0.28420   0.00000  Uiso   1.00
C20    C     0.03462   0.14233   0.21593   0.00000  Uiso   1.00
C21    C     0.31833   0.14234   0.21596   0.00000  Uiso   1.00
C22    C     0.16616   0.08745   0.25168   0.00000  Uiso   1.00
C23    C     0.19315   0.16742   0.14974   0.00000  Uiso   1.00
C24    C     0.26283   0.13750   0.01215   0.00000  Uiso   1.00
C25    C     0.20904   0.16643   0.09213   0.00000  Uiso   1.00
C26    C     0.08506   0.19802   0.42841   0.00000  Uiso   1.00
C27    C     0.08125   0.21880   0.47487   0.00000  Uiso   1.00
C28    C     0.11635   0.21155   0.00002   0.00000  Uiso   1.00
Cu29   Cu    0.11978   0.16666   0.25000   0.00000  Uiso   1.00
Cu30   Cu    0.21355   0.16667   0.25000   0.00000  Uiso   1.00
H31    H     0.23807   0.03747   0.19960   0.00000  Uiso   1.00
H32    H     0.27213   0.21040   0.31149   0.00000  Uiso   1.00
H33    H     0.02578   0.21024   0.31158   0.00000  Uiso   1.00
H34    H     0.06115   0.12278   0.18869   0.00000  Uiso   1.00
H35    H     0.30746   0.12280   0.18877   0.00000  Uiso   1.00
H36    H     0.29613   0.12058   0.49300   0.00000  Uiso   1.00
H37    H     0.06063   0.20651   0.40627   0.00000  Uiso   1.00
H38    H     0.11634   0.23320   0.03040   0.00000  Uiso   1.00
H39    H     0.23809   0.29573   0.19964   0.00000  Uiso   1.00
N40    N     0.04931   0.16666   0.24998   0.00000  Uiso   1.00
N41    N     0.28402   0.16669   0.24999   0.00000  Uiso   1.00
O42    O     0.12708   0.22678   0.25000   0.00000  Uiso   1.00
O43    O     0.20627   0.22679   0.25000   0.00000  Uiso   1.00
O44    O     0.10775   0.16665   0.32549   0.00000  Uiso   1.00
O45    O     0.18694   0.16666   0.32549   0.00000  Uiso   1.00
O46    O     0.12706   0.10654   0.24999   0.00000  Uiso   1.00
O47    O     0.20625   0.10655   0.24999   0.00000  Uiso   1.00
O48    O     0.14640   0.16667   0.17451   0.00000  Uiso   1.00
O49    O     0.22559   0.16668   0.17451   0.00000  Uiso   1.00
O50    O     0.28842   0.13921   0.08970   0.00000  Uiso   1.00
H51    H     0.31831   0.12720   0.06451   0.00000  Uiso   1.00
O52    O     0.08455   0.04146   0.32290   0.00000  Uiso   1.00
H53    H     0.09500   0.06899   0.33161   0.00000  Uiso   1.00
O54    O     0.08460   0.29215   0.32297   0.00000  Uiso   1.00
H55    H     0.09508   0.26470   0.33168   0.00000  Uiso   1.00
C56    C     0.27644   0.10232   0.40906   0.00000  Uiso   1.00
H57    H     0.27483   0.07053   0.39692   0.00000  Uiso   1.00
O58    O     0.31630   0.11975   0.39684   0.00000  Uiso   1.00
O59    O     0.13150   0.19654   0.09320   0.00000  Uiso   1.00
H60    H     0.13893   0.21918   0.11455   0.00000  Uiso   1.00
O61    O     0.04597   0.24871   0.49465   0.00000  Uiso   1.00
H62    H     0.02403   0.25026   0.47244   0.00000  Uiso   1.00
O63    O     0.18659   0.10041   0.38017   0.00000  Uiso   1.00
H64    H     0.20464   0.07458   0.38129   0.00000  Uiso   1.00
C65    C     0.49953   0.24589   0.25174   0.00000  Uiso   1.00
C66    C     0.48512   0.17952   0.48386   0.00000  Uiso   1.00
C67    C     0.48897   0.15889   0.43632   0.00000  Uiso   1.00
C68    C     0.51803   0.16845   0.01224   0.00000  Uiso   1.00
C69    C     0.56042   0.14440   0.48691   0.00000  Uiso   1.00
C70    C     0.56443   0.12490   0.43875   0.00000  Uiso   1.00
C71    C     0.52468   0.12747   0.41823   0.00000  Uiso   1.00
C72    C     0.50901   0.17882   0.06553   0.00000  Uiso   1.00
C73    C     0.58777   0.14863   0.06431   0.00000  Uiso   1.00
C74    C     0.45786   0.17117   0.40683   0.00000  Uiso   1.00
C75    C     0.53975   0.31199   0.22472   0.00000  Uiso   1.00
C76    C     0.47356   0.16608   0.35004   0.00000  Uiso   1.00
C77    C     0.53973   0.02129   0.22470   0.00000  Uiso   1.00
C78    C     0.49864   0.04290   0.25532   0.00000  Uiso   1.00
C79    C     0.45761   0.02161   0.28849   0.00000  Uiso   1.00
C80    C     0.45763   0.31188   0.28852   0.00000  Uiso   1.00
C81    C     0.49868   0.29047   0.25538   0.00000  Uiso   1.00
C82    C     0.63202   0.19092   0.28415   0.00000  Uiso   1.00
C83    C     0.34829   0.19086   0.28420   0.00000  Uiso   1.00
C84    C     0.36795   0.14233   0.21593   0.00000  Uiso   1.00
C85    C     0.65166   0.14234   0.21596   0.00000  Uiso   1.00
C86    C     0.49950   0.08745   0.25168   0.00000  Uiso   1.00
C87    C     0.52648   0.16742   0.14974   0.00000  Uiso   1.00
C88    C     0.59617   0.13750   0.01215   0.00000  Uiso   1.00
C89    C     0.54237   0.16643   0.09213   0.00000  Uiso   1.00
C90    C     0.41840   0.19802   0.42841   0.00000  Uiso   1.00
C91    C     0.41459   0.21880   0.47487   0.00000  Uiso   1.00
C92    C     0.44968   0.21155   0.00002   0.00000  Uiso   1.00
Cu93   Cu    0.45311   0.16666   0.25000   0.00000  Uiso   1.00
Cu94   Cu    0.54689   0.16667   0.25000   0.00000  Uiso   1.00
H95    H     0.57140   0.03747   0.19960   0.00000  Uiso   1.00
H96    H     0.60546   0.21040   0.31149   0.00000  Uiso   1.00
H97    H     0.35911   0.21024   0.31158   0.00000  Uiso   1.00
H98    H     0.39448   0.12278   0.18869   0.00000  Uiso   1.00
H99    H     0.64079   0.12280   0.18877   0.00000  Uiso   1.00
H100   H     0.62947   0.12058   0.49300   0.00000  Uiso   1.00
H101   H     0.39396   0.20651   0.40627   0.00000  Uiso   1.00
H102   H     0.44967   0.23320   0.03040   0.00000  Uiso   1.00
H103   H     0.57142   0.29573   0.19964   0.00000  Uiso   1.00
N104   N     0.38265   0.16666   0.24998   0.00000  Uiso   1.00
N105   N     0.61735   0.16669   0.24999   0.00000  Uiso   1.00
O106   O     0.46042   0.22678   0.25000   0.00000  Uiso   1.00
O107   O     0.53961   0.22679   0.25000   0.00000  Uiso   1.00
O108   O     0.44108   0.16665   0.32549   0.00000  Uiso   1.00
O109   O     0.52027   0.16666   0.32549   0.00000  Uiso   1.00
O110   O     0.46039   0.10654   0.24999   0.00000  Uiso   1.00
O111   O     0.53958   0.10655   0.24999   0.00000  Uiso   1.00
O112   O     0.47973   0.16667   0.17451   0.00000  Uiso   1.00
O113   O     0.55892   0.16668   0.17451   0.00000  Uiso   1.00
O114   O     0.62175   0.13921   0.08970   0.00000  Uiso   1.00
H115   H     0.65165   0.12720   0.06451   0.00000  Uiso   1.00
O116   O     0.41788   0.04146   0.32290   0.00000  Uiso   1.00
H117   H     0.42834   0.06899   0.33161   0.00000  Uiso   1.00
O118   O     0.41793   0.29215   0.32297   0.00000  Uiso   1.00
H119   H     0.42842   0.26470   0.33168   0.00000  Uiso   1.00
C120   C     0.60978   0.10232   0.40906   0.00000  Uiso   1.00
H121   H     0.60817   0.07053   0.39692   0.00000  Uiso   1.00
O122   O     0.64963   0.11975   0.39684   0.00000  Uiso   1.00
O123   O     0.46483   0.19654   0.09320   0.00000  Uiso   1.00
H124   H     0.47226   0.21918   0.11455   0.00000  Uiso   1.00
O125   O     0.37931   0.24871   0.49465   0.00000  Uiso   1.00
H126   H     0.35736   0.25026   0.47244   0.00000  Uiso   1.00
O127   O     0.51992   0.10041   0.38017   0.00000  Uiso   1.00
H128   H     0.53797   0.07458   0.38129   0.00000  Uiso   1.00
C129   C     0.83286   0.24589   0.25174   0.00000  Uiso   1.00
C130   C     0.81845   0.17952   0.48386   0.00000  Uiso   1.00
C131   C     0.82230   0.15889   0.43632   0.00000  Uiso   1.00
C132   C     0.85136   0.16845   0.01224   0.00000  Uiso   1.00
C133   C     0.89376   0.14440   0.48691   0.00000  Uiso   1.00
C134   C     0.89776   0.12490   0.43875   0.00000  Uiso   1.00
C135   C     0.85801   0.12747   0.41823   0.00000  Uiso   1.00
C136   C     0.84234   0.17882   0.06553   0.00000  Uiso   1.00
C137   C     0.92110   0.14863   0.06431   0.00000  Uiso   1.00
C138   C     0.79119   0.17117   0.40683   0.00000  Uiso   1.00
C139   C     0.87308   0.31199   0.22472   0.00000  Uiso   1.00
C140   C     0.80689   0.16608   0.35004   0.00000  Uiso   1.00
C141   C     0.87306   0.02129   0.22470   0.00000  Uiso   1.00
C142   C     0.83197   0.04290   0.25532   0.00000  Uiso   1.00
C143   C     0.79095   0.02161   0.28849   0.00000  Uiso   1.00
C144   C     0.79097   0.31188   0.28852   0.00000  Uiso   1.00
C145   C     0.83201   0.29047   0.25538   0.00000  Uiso   1.00
C146   C     0.96535   0.19092   0.28415   0.00000  Uiso   1.00
C147   C     0.68162   0.19086   0.28420   0.00000  Uiso   1.00
C148   C     0.70128   0.14233   0.21593   0.00000  Uiso   1.00
C149   C     0.98500   0.14234   0.21596   0.00000  Uiso   1.00
C150   C     0.83283   0.08745   0.25168   0.00000  Uiso   1.00
C151   C     0.85982   0.16742   0.14974   0.00000  Uiso   1.00
C152   C     0.92950   0.13750   0.01215   0.00000  Uiso   1.00
C153   C     0.87571   0.16643   0.09213   0.00000  Uiso   1.00
C154   C     0.75173   0.19802   0.42841   0.00000  Uiso   1.00
C155   C     0.74792   0.21880   0.47487   0.00000  Uiso   1.00
C156   C     0.78301   0.21155   0.00002   0.00000  Uiso   1.00
Cu157  Cu    0.78645   0.16666   0.25000   0.00000  Uiso   1.00
Cu158  Cu    0.88022   0.16667   0.25000   0.00000  Uiso   1.00
H159   H     0.90473   0.03747   0.19960   0.00000  Uiso   1.00
H160   H     0.93880   0.21040   0.31149   0.00000  Uiso   1.00
H161   H     0.69245   0.21024   0.31158   0.00000  Uiso   1.00
H162   H     0.72782   0.12278   0.18869   0.00000  Uiso   1.00
H163   H     0.97412   0.12280   0.18877   0.00000  Uiso   1.00
H164   H     0.96280   0.12058   0.49300   0.00000  Uiso   1.00
H165   H     0.72730   0.20651   0.40627   0.00000  Uiso   1.00
H166   H     0.78300   0.23320   0.03040   0.00000  Uiso   1.00
H167   H     0.90476   0.29573   0.19964   0.00000  Uiso   1.00
N168   N     0.71598   0.16666   0.24998   0.00000  Uiso   1.00
N169   N     0.95069   0.16669   0.24999   0.00000  Uiso   1.00
O170   O     0.79375   0.22678   0.25000   0.00000  Uiso   1.00
O171   O     0.87294   0.22679   0.25000   0.00000  Uiso   1.00
O172   O     0.77441   0.16665   0.32549   0.00000  Uiso   1.00
O173   O     0.85360   0.16666   0.32549   0.00000  Uiso   1.00
O174   O     0.79373   0.10654   0.24999   0.00000  Uiso   1.00
O175   O     0.87292   0.10655   0.24999   0.00000  Uiso   1.00
O176   O     0.81306   0.16667   0.17451   0.00000  Uiso   1.00
O177   O     0.89225   0.16668   0.17451   0.00000  Uiso   1.00
O178   O     0.95509   0.13921   0.08970   0.00000  Uiso   1.00
H179   H     0.98498   0.12720   0.06451   0.00000  Uiso   1.00
O180   O     0.75122   0.04146   0.32290   0.00000  Uiso   1.00
H181   H     0.76167   0.06899   0.33161   0.00000  Uiso   1.00
O182   O     0.75127   0.29215   0.32297   0.00000  Uiso   1.00
H183   H     0.76175   0.26470   0.33168   0.00000  Uiso   1.00
C184   C     0.94311   0.10232   0.40906   0.00000  Uiso   1.00
H185   H     0.94150   0.07053   0.39692   0.00000  Uiso   1.00
O186   O     0.98297   0.11975   0.39684   0.00000  Uiso   1.00
O187   O     0.79816   0.19654   0.09320   0.00000  Uiso   1.00
H188   H     0.80560   0.21918   0.11455   0.00000  Uiso   1.00
O189   O     0.71264   0.24871   0.49465   0.00000  Uiso   1.00
H190   H     0.69070   0.25026   0.47244   0.00000  Uiso   1.00
O191   O     0.85326   0.10041   0.38017   0.00000  Uiso   1.00
H192   H     0.87130   0.07458   0.38129   0.00000  Uiso   1.00
C193   C     0.16619   0.57922   0.25174   0.00000  Uiso   1.00
C194   C     0.15178   0.51285   0.48386   0.00000  Uiso   1.00
C195   C     0.15563   0.49222   0.43632   0.00000  Uiso   1.00
C196   C     0.18469   0.50178   0.01224   0.00000  Uiso   1.00
C197   C     0.22709   0.47773   0.48691   0.00000  Uiso   1.00
C198   C     0.23109   0.45823   0.43875   0.00000  Uiso   1.00
C199   C     0.19134   0.46081   0.41823   0.00000  Uiso   1.00
C200   C     0.17567   0.51216   0.06553   0.00000  Uiso   1.00
C201   C     0.25443   0.48197   0.06431   0.00000  Uiso   1.00
C202   C     0.12452   0.50450   0.40683   0.00000  Uiso   1.00
C203   C     0.20642   0.64532   0.22472   0.00000  Uiso   1.00
C204   C     0.14023   0.49942   0.35004   0.00000  Uiso   1.00
C205   C     0.20640   0.35462   0.22470   0.00000  Uiso   1.00
C206   C     0.16530   0.37624   0.25532   0.00000  Uiso   1.00
C207   C     0.12428   0.35494   0.28849   0.00000  Uiso   1.00
C208   C     0.12430   0.64521   0.28852   0.00000  Uiso   1.00
C209   C     0.16535   0.62380   0.25538   0.00000  Uiso   1.00
C210   C     0.29869   0.52426   0.28415   0.00000  Uiso   1.00
C211   C     0.01496   0.52419   0.28420   0.00000  Uiso   1.00
C212   C     0.03462   0.47567   0.21593   0.00000  Uiso   1.00
C213   C     0.31833   0.47567   0.21596   0.00000  Uiso   1.00
C214   C     0.16616   0.42079   0.25168   0.00000  Uiso   1.00
C215   C     0.19315   0.50075   0.14974   0.00000  Uiso   1.00
C216   C     0.26283   0.47083   0.01215   0.00000  Uiso   1.00
C217   C     0.20904   0.49977   0.09213   0.00000  Uiso   1.00
C218   C     0.08506   0.53135   0.42841   0.00000  Uiso   1.00
C219   C     0.08125   0.55214   0.47487   0.00000  Uiso   1.00
C220   C     0.11635   0.54488   0.00002   0.00000  Uiso   1.00
Cu221  Cu    0.11978   0.49999   0.25000   0.00000  Uiso   1.00
Cu222  Cu    0.21355   0.50001   0.25000   0.00000  Uiso   1.00
H223   H     0.23807   0.37081   0.19960   0.00000  Uiso   1.00
H224   H     0.27213   0.54373   0.31149   0.00000  Uiso   1.00
H225   H     0.02578   0.54357   0.31158   0.00000  Uiso   1.00
H226   H     0.06115   0.45612   0.18869   0.00000  Uiso   1.00
H227   H     0.30746   0.45613   0.18877   0.00000  Uiso   1.00
H228   H     0.29613   0.45392   0.49300   0.00000  Uiso   1.00
H229   H     0.06063   0.53984   0.40627   0.00000  Uiso   1.00
H230   H     0.11634   0.56653   0.03040   0.00000  Uiso   1.00
H231   H     0.23809   0.62906   0.19964   0.00000  Uiso   1.00
N232   N     0.04931   0.49999   0.24998   0.00000  Uiso   1.00
N233   N     0.28402   0.50002   0.24999   0.00000  Uiso   1.00
O234   O     0.12708   0.56011   0.25000   0.00000  Uiso   1.00
O235   O     0.20627   0.56012   0.25000   0.00000  Uiso   1.00
O236   O     0.10775   0.49998   0.32549   0.00000  Uiso   1.00
O237   O     0.18694   0.49999   0.32549   0.00000  Uiso   1.00
O238   O     0.12706   0.43988   0.24999   0.00000  Uiso   1.00
O239   O     0.20625   0.43989   0.24999   0.00000  Uiso   1.00
O240   O     0.14640   0.50001   0.17451   0.00000  Uiso   1.00
O241   O     0.22559   0.50002   0.17451   0.00000  Uiso   1.00
O242   O     0.28842   0.47255   0.08970   0.00000  Uiso   1.00
H243   H     0.31831   0.46053   0.06451   0.00000  Uiso   1.00
O244   O     0.08455   0.37479   0.32290   0.00000  Uiso   1.00
H245   H     0.09500   0.40232   0.33161   0.00000  Uiso   1.00
O246   O     0.08460   0.62548   0.32297   0.00000  Uiso   1.00
H247   H     0.09508   0.59803   0.33168   0.00000  Uiso   1.00
C248   C     0.27644   0.43565   0.40906   0.00000  Uiso   1.00
H249   H     0.27483   0.40387   0.39692   0.00000  Uiso   1.00
O250   O     0.31630   0.45308   0.39684   0.00000  Uiso   1.00
O251   O     0.13150   0.52987   0.09320   0.00000  Uiso   1.00
H252   H     0.13893   0.55251   0.11455   0.00000  Uiso   1.00
O253   O     0.04597   0.58205   0.49465   0.00000  Uiso   1.00
H254   H     0.02403   0.58359   0.47244   0.00000  Uiso   1.00
O255   O     0.18659   0.43374   0.38017   0.00000  Uiso   1.00
H256   H     0.20464   0.40791   0.38129   0.00000  Uiso   1.00
C257   C     0.49953   0.57922   0.25174   0.00000  Uiso   1.00
C258   C     0.48512   0.51285   0.48386   0.00000  Uiso   1.00
C259   C     0.48897   0.49222   0.43632   0.00000  Uiso   1.00
C260   C     0.51803   0.50178   0.01224   0.00000  Uiso   1.00
C261   C     0.56042   0.47773   0.48691   0.00000  Uiso   1.00
C262   C     0.56443   0.45823   0.43875   0.00000  Uiso   1.00
C263   C     0.52468   0.46081   0.41823   0.00000  Uiso   1.00
C264   C     0.50901   0.51216   0.06553   0.00000  Uiso   1.00
C265   C     0.58777   0.48197   0.06431   0.00000  Uiso   1.00
C266   C     0.45786   0.50450   0.40683   0.00000  Uiso   1.00
C267   C     0.53975   0.64532   0.22472   0.00000  Uiso   1.00
C268   C     0.47356   0.49942   0.35004   0.00000  Uiso   1.00
C269   C     0.53973   0.35462   0.22470   0.00000  Uiso   1.00
C270   C     0.49864   0.37624   0.25532   0.00000  Uiso   1.00
C271   C     0.45761   0.35494   0.28849   0.00000  Uiso   1.00
C272   C     0.45763   0.64521   0.28852   0.00000  Uiso   1.00
C273   C     0.49868   0.62380   0.25538   0.00000  Uiso   1.00
C274   C     0.63202   0.52426   0.28415   0.00000  Uiso   1.00
C275   C     0.34829   0.52419   0.28420   0.00000  Uiso   1.00
C276   C     0.36795   0.47567   0.21593   0.00000  Uiso   1.00
C277   C     0.65166   0.47567   0.21596   0.00000  Uiso   1.00
C278   C     0.49950   0.42079   0.25168   0.00000  Uiso   1.00
C279   C     0.52648   0.50075   0.14974   0.00000  Uiso   1.00
C280   C     0.59617   0.47083   0.01215   0.00000  Uiso   1.00
C281   C     0.54237   0.49977   0.09213   0.00000  Uiso   1.00
C282   C     0.41840   0.53135   0.42841   0.00000  Uiso   1.00
C283   C     0.41459   0.55214   0.47487   0.00000  Uiso   1.00
C284   C     0.44968   0.54488   0.00002   0.00000  Uiso   1.00
Cu285  Cu    0.45311   0.49999   0.25000   0.00000  Uiso   1.00
Cu286  Cu    0.54689   0.50001   0.25000   0.00000  Uiso   1.00
H287   H     0.57140   0.37081   0.19960   0.00000  Uiso   1.00
H288   H     0.60546   0.54373   0.31149   0.00000  Uiso   1.00
H289   H     0.35911   0.54357   0.31158   0.00000  Uiso   1.00
H290   H     0.39448   0.45612   0.18869   0.00000  Uiso   1.00
H291   H     0.64079   0.45613   0.18877   0.00000  Uiso   1.00
H292   H     0.62947   0.45392   0.49300   0.00000  Uiso   1.00
H293   H     0.39396   0.53984   0.40627   0.00000  Uiso   1.00
H294   H     0.44967   0.56653   0.03040   0.00000  Uiso   1.00
H295   H     0.57142   0.62906   0.19964   0.00000  Uiso   1.00
N296   N     0.38265   0.49999   0.24998   0.00000  Uiso   1.00
N297   N     0.61735   0.50002   0.24999   0.00000  Uiso   1.00
O298   O     0.46042   0.56011   0.25000   0.00000  Uiso   1.00
O299   O     0.53961   0.56012   0.25000   0.00000  Uiso   1.00
O300   O     0.44108   0.49998   0.32549   0.00000  Uiso   1.00
O301   O     0.52027   0.49999   0.32549   0.00000  Uiso   1.00
O302   O     0.46039   0.43988   0.24999   0.00000  Uiso   1.00
O303   O     0.53958   0.43989   0.24999   0.00000  Uiso   1.00
O304   O     0.47973   0.50001   0.17451   0.00000  Uiso   1.00
O305   O     0.55892   0.50002   0.17451   0.00000  Uiso   1.00
O306   O     0.62175   0.47255   0.08970   0.00000  Uiso   1.00
H307   H     0.65165   0.46053   0.06451   0.00000  Uiso   1.00
O308   O     0.41788   0.37479   0.32290   0.00000  Uiso   1.00
H309   H     0.42834   0.40232   0.33161   0.00000  Uiso   1.00
O310   O     0.41793   0.62548   0.32297   0.00000  Uiso   1.00
H311   H     0.42842   0.59803   0.33168   0.00000  Uiso   1.00
C312   C     0.60978   0.43565   0.40906   0.00000  Uiso   1.00
H313   H     0.60817   0.40387   0.39692   0.00000  Uiso   1.00
O314   O     0.64963   0.45308   0.39684   0.00000  Uiso   1.00
O315   O     0.46483   0.52987   0.09320   0.00000  Uiso   1.00
H316   H     0.47226   0.55251   0.11455   0.00000  Uiso   1.00
O317   O     0.37931   0.58205   0.49465   0.00000  Uiso   1.00
H318   H     0.35736   0.58359   0.47244   0.00000  Uiso   1.00
O319   O     0.51992   0.43374   0.38017   0.00000  Uiso   1.00
H320   H     0.53797   0.40791   0.38129   0.00000  Uiso   1.00
C321   C     0.83286   0.57922   0.25174   0.00000  Uiso   1.00
C322   C     0.81845   0.51285   0.48386   0.00000  Uiso   1.00
C323   C     0.82230   0.49222   0.43632   0.00000  Uiso   1.00
C324   C     0.85136   0.50178   0.01224   0.00000  Uiso   1.00
C325   C     0.89376   0.47773   0.48691   0.00000  Uiso   1.00
C326   C     0.89776   0.45823   0.43875   0.00000  Uiso   1.00
C327   C     0.85801   0.46081   0.41823   0.00000  Uiso   1.00
C328   C     0.84234   0.51216   0.06553   0.00000  Uiso   1.00
C329   C     0.92110   0.48197   0.06431   0.00000  Uiso   1.00
C330   C     0.79119   0.50450   0.40683   0.00000  Uiso   1.00
C331   C     0.87308   0.64532   0.22472   0.00000  Uiso   1.00
C332   C     0.80689   0.49942   0.35004   0.00000  Uiso   1.00
C333   C     0.87306   0.35462   0.22470   0.00000  Uiso   1.00
C334   C     0.83197   0.37624   0.25532   0.00000  Uiso   1.00
C335   C     0.79095   0.35494   0.28849   0.00000  Uiso   1.00
C336   C     0.79097   0.64521   0.28852   0.00000  Uiso   1.00
C337   C     0.83201   0.62380   0.25538   0.00000  Uiso   1.00
C338   C     0.96535   0.52426   0.28415   0.00000  Uiso   1.00
C339   C     0.68162   0.52419   0.28420   0.00000  Uiso   1.00
C340   C     0.70128   0.47567   0.21593   0.00000  Uiso   1.00
C341   C     0.98500   0.47567   0.21596   0.00000  Uiso   1.00
C342   C     0.83283   0.42079   0.25168   0.00000  Uiso   1.00
C343   C     0.85982   0.50075   0.14974   0.00000  Uiso   1.00
C344   C     0.92950   0.47083   0.01215   0.00000  Uiso   1.00
C345   C     0.87571   0.49977   0.09213   0.00000  Uiso   1.00
C346   C     0.75173   0.53135   0.42841   0.00000  Uiso   1.00
C347   C     0.74792   0.55214   0.47487   0.00000  Uiso   1.00
C348   C     0.78301   0.54488   0.00002   0.00000  Uiso   1.00
Cu349  Cu    0.78645   0.49999   0.25000   0.00000  Uiso   1.00
Cu350  Cu    0.88022   0.50001   0.25000   0.00000  Uiso   1.00
H351   H     0.90473   0.37081   0.19960   0.00000  Uiso   1.00
H352   H     0.93880   0.54373   0.31149   0.00000  Uiso   1.00
H353   H     0.69245   0.54357   0.31158   0.00000  Uiso   1.00
H354   H     0.72782   0.45612   0.18869   0.00000  Uiso   1.00
H355   H     0.97412   0.45613   0.18877   0.00000  Uiso   1.00
H356   H     0.96280   0.45392   0.49300   0.00000  Uiso   1.00
H357   H     0.72730   0.53984   0.40627   0.00000  Uiso   1.00
H358   H     0.78300   0.56653   0.03040   0.00000  Uiso   1.00
H359   H     0.90476   0.62906   0.19964   0.00000  Uiso   1.00
N360   N     0.71598   0.49999   0.24998   0.00000  Uiso   1.00
N361   N     0.95069   0.50002   0.24999   0.00000  Uiso   1.00
O362   O     0.79375   0.56011   0.25000   0.00000  Uiso   1.00
O363   O     0.87294   0.56012   0.25000   0.00000  Uiso   1.00
O364   O     0.77441   0.49998   0.32549   0.00000  Uiso   1.00
O365   O     0.85360   0.49999   0.32549   0.00000  Uiso   1.00
O366   O     0.79373   0.43988   0.24999   0.00000  Uiso   1.00
O367   O     0.87292   0.43989   0.24999   0.00000  Uiso   1.00
O368   O     0.81306   0.50001   0.17451   0.00000  Uiso   1.00
O369   O     0.89225   0.50002   0.17451   0.00000  Uiso   1.00
O370   O     0.95509   0.47255   0.08970   0.00000  Uiso   1.00
H371   H     0.98498   0.46053   0.06451   0.00000  Uiso   1.00
O372   O     0.75122   0.37479   0.32290   0.00000  Uiso   1.00
H373   H     0.76167   0.40232   0.33161   0.00000  Uiso   1.00
O374   O     0.75127   0.62548   0.32297   0.00000  Uiso   1.00
H375   H     0.76175   0.59803   0.33168   0.00000  Uiso   1.00
C376   C     0.94311   0.43565   0.40906   0.00000  Uiso   1.00
H377   H     0.94150   0.40387   0.39692   0.00000  Uiso   1.00
O378   O     0.98297   0.45308   0.39684   0.00000  Uiso   1.00
O379   O     0.79816   0.52987   0.09320   0.00000  Uiso   1.00
H380   H     0.80560   0.55251   0.11455   0.00000  Uiso   1.00
O381   O     0.71264   0.58205   0.49465   0.00000  Uiso   1.00
H382   H     0.69070   0.58359   0.47244   0.00000  Uiso   1.00
O383   O     0.85326   0.43374   0.38017   0.00000  Uiso   1.00
H384   H     0.87130   0.40791   0.38129   0.00000  Uiso   1.00
C385   C     0.16619   0.91256   0.25174   0.00000  Uiso   1.00
C386   C     0.15178   0.84618   0.48386   0.00000  Uiso   1.00
C387   C     0.15563   0.82555   0.43632   0.00000  Uiso   1.00
C388   C     0.18469   0.83511   0.01224   0.00000  Uiso   1.00
C389   C     0.22709   0.81106   0.48691   0.00000  Uiso   1.00
C390   C     0.23109   0.79156   0.43875   0.00000  Uiso   1.00
C391   C     0.19134   0.79414   0.41823   0.00000  Uiso   1.00
C392   C     0.17567   0.84549   0.06553   0.00000  Uiso   1.00
C393   C     0.25443   0.81530   0.06431   0.00000  Uiso   1.00
C394   C     0.12452   0.83784   0.40683   0.00000  Uiso   1.00
C395   C     0.20642   0.97866   0.22472   0.00000  Uiso   1.00
C396   C     0.14023   0.83275   0.35004   0.00000  Uiso   1.00
C397   C     0.20640   0.68795   0.22470   0.00000  Uiso   1.00
C398   C     0.16530   0.70957   0.25532   0.00000  Uiso   1.00
C399   C     0.12428   0.68827   0.28849   0.00000  Uiso   1.00
C400   C     0.12430   0.97855   0.28852   0.00000  Uiso   1.00
C401   C     0.16535   0.95713   0.25538   0.00000  Uiso   1.00
C402   C     0.29869   0.85759   0.28415   0.00000  Uiso   1.00
C403   C     0.01496   0.85753   0.28420   0.00000  Uiso   1.00
C404   C     0.03462   0.80900   0.21593   0.00000  Uiso   1.00
C405   C     0.31833   0.80900   0.21596   0.00000  Uiso   1.00
C406   C     0.16616   0.75412   0.25168   0.00000  Uiso   1.00
C407   C     0.19315   0.83409   0.14974   0.00000  Uiso   1.00
C408   C     0.26283   0.80417   0.01215   0.00000  Uiso   1.00
C409   C     0.20904   0.83310   0.09213   0.00000  Uiso   1.00
C410   C     0.08506   0.86469   0.42841   0.00000  Uiso   1.00
C411   C     0.08125   0.88547   0.47487   0.00000  Uiso   1.00
C412   C     0.11635   0.87821   0.00002   0.00000  Uiso   1.00
Cu413  Cu    0.11978   0.83333   0.25000   0.00000  Uiso   1.00
Cu414  Cu    0.21355   0.83334   0.25000   0.00000  Uiso   1.00
H415   H     0.23807   0.70414   0.19960   0.00000  Uiso   1.00
H416   H     0.27213   0.87706   0.31149   0.00000  Uiso   1.00
H417   H     0.02578   0.87690   0.31158   0.00000  Uiso   1.00
H418   H     0.06115   0.78945   0.18869   0.00000  Uiso   1.00
H419   H     0.30746   0.78946   0.18877   0.00000  Uiso   1.00
H420   H     0.29613   0.78725   0.49300   0.00000  Uiso   1.00
H421   H     0.06063   0.87317   0.40627   0.00000  Uiso   1.00
H422   H     0.11634   0.89987   0.03040   0.00000  Uiso   1.00
H423   H     0.23809   0.96239   0.19964   0.00000  Uiso   1.00
N424   N     0.04931   0.83332   0.24998   0.00000  Uiso   1.00
N425   N     0.28402   0.83335   0.24999   0.00000  Uiso   1.00
O426   O     0.12708   0.89345   0.25000   0.00000  Uiso   1.00
O427   O     0.20627   0.89346   0.25000   0.00000  Uiso   1.00
O428   O     0.10775   0.83332   0.32549   0.00000  Uiso   1.00
O429   O     0.18694   0.83333   0.32549   0.00000  Uiso   1.00
O430   O     0.12706   0.77321   0.24999   0.00000  Uiso   1.00
O431   O     0.20625   0.77322   0.24999   0.00000  Uiso   1.00
O432   O     0.14640   0.83334   0.17451   0.00000  Uiso   1.00
O433   O     0.22559   0.83335   0.17451   0.00000  Uiso   1.00
O434   O     0.28842   0.80588   0.08970   0.00000  Uiso   1.00
H435   H     0.31831   0.79387   0.06451   0.00000  Uiso   1.00
O436   O     0.08455   0.70813   0.32290   0.00000  Uiso   1.00
H437   H     0.09500   0.73565   0.33161   0.00000  Uiso   1.00
O438   O     0.08460   0.95882   0.32297   0.00000  Uiso   1.00
H439   H     0.09508   0.93137   0.33168   0.00000  Uiso   1.00
C440   C     0.27644   0.76898   0.40906   0.00000  Uiso   1.00
H441   H     0.27483   0.73720   0.39692   0.00000  Uiso   1.00
O442   O     0.31630   0.78642   0.39684   0.00000  Uiso   1.00
O443   O     0.13150   0.86320   0.09320   0.00000  Uiso   1.00
H444   H     0.13893   0.88585   0.11455   0.00000  Uiso   1.00
O445   O     0.04597   0.91538   0.49465   0.00000  Uiso   1.00
H446   H     0.02403   0.91693   0.47244   0.00000  Uiso   1.00
O447   O     0.18659   0.76708   0.38017   0.00000  Uiso   1.00
H448   H     0.20464   0.74124   0.38129   0.00000  Uiso   1.00
C449   C     0.49953   0.91256   0.25174   0.00000  Uiso   1.00
C450   C     0.48512   0.84618   0.48386   0.00000  Uiso   1.00
C451   C     0.48897   0.82555   0.43632   0.00000  Uiso   1.00
C452   C     0.51803   0.83511   0.01224   0.00000  Uiso   1.00
C453   C     0.56042   0.81106   0.48691   0.00000  Uiso   1.00
C454   C     0.56443   0.79156   0.43875   0.00000  Uiso   1.00
C455   C     0.52468   0.79414   0.41823   0.00000  Uiso   1.00
C456   C     0.50901   0.84549   0.06553   0.00000  Uiso   1.00
C457   C     0.58777   0.81530   0.06431   0.00000  Uiso   1.00
C458   C     0.45786   0.83784   0.40683   0.00000  Uiso   1.00
C459   C     0.53975   0.97866   0.22472   0.00000  Uiso   1.00
C460   C     0.47356   0.83275   0.35004   0.00000  Uiso   1.00
C461   C     0.53973   0.68795   0.22470   0.00000  Uiso   1.00
C462   C     0.49864   0.70957   0.25532   0.00000  Uiso   1.00
C463   C     0.45761   0.68827   0.28849   0.00000  Uiso   1.00
C464   C     0.45763   0.97855   0.28852   0.00000  Uiso   1.00
C465   C     0.49868   0.95713   0.25538   0.00000  Uiso   1.00
C466   C     0.63202   0.85759   0.28415   0.00000  Uiso   1.00
C467   C     0.34829   0.85753   0.28420   0.00000  Uiso   1.00
C468   C     0.36795   0.80900   0.21593   0.00000  Uiso   1.00
C469   C     0.65166   0.80900   0.21596   0.00000  Uiso   1.00
C470   C     0.49950   0.75412   0.25168   0.00000  Uiso   1.00
C471   C     0.52648   0.83409   0.14974   0.00000  Uiso   1.00
C472   C     0.59617   0.80417   0.01215   0.00000  Uiso   1.00
C473   C     0.54237   0.83310   0.09213   0.00000  Uiso   1.00
C474   C     0.41840   0.86469   0.42841   0.00000  Uiso   1.00
C475   C     0.41459   0.88547   0.47487   0.00000  Uiso   1.00
C476   C     0.44968   0.87821   0.00002   0.00000  Uiso   1.00
Cu477  Cu    0.45311   0.83333   0.25000   0.00000  Uiso   1.00
Cu478  Cu    0.54689   0.83334   0.25000   0.00000  Uiso   1.00
H479   H     0.57140   0.70414   0.19960   0.00000  Uiso   1.00
H480   H     0.60546   0.87706   0.31149   0.00000  Uiso   1.00
H481   H     0.35911   0.87690   0.31158   0.00000  Uiso   1.00
H482   H     0.39448   0.78945   0.18869   0.00000  Uiso   1.00
H483   H     0.64079   0.78946   0.18877   0.00000  Uiso   1.00
H484   H     0.62947   0.78725   0.49300   0.00000  Uiso   1.00
H485   H     0.39396   0.87317   0.40627   0.00000  Uiso   1.00
H486   H     0.44967   0.89987   0.03040   0.00000  Uiso   1.00
H487   H     0.57142   0.96239   0.19964   0.00000  Uiso   1.00
N488   N     0.38265   0.83332   0.24998   0.00000  Uiso   1.00
N489   N     0.61735   0.83335   0.24999   0.00000  Uiso   1.00
O490   O     0.46042   0.89345   0.25000   0.00000  Uiso   1.00
O491   O     0.53961   0.89346   0.25000   0.00000  Uiso   1.00
O492   O     0.44108   0.83332   0.32549   0.00000  Uiso   1.00
O493   O     0.52027   0.83333   0.32549   0.00000  Uiso   1.00
O494   O     0.46039   0.77321   0.24999   0.00000  Uiso   1.00
O495   O     0.53958   0.77322   0.24999   0.00000  Uiso   1.00
O496   O     0.47973   0.83334   0.17451   0.00000  Uiso   1.00
O497   O     0.55892   0.83335   0.17451   0.00000  Uiso   1.00
O498   O     0.62175   0.80588   0.08970   0.00000  Uiso   1.00
H499   H     0.65165   0.79387   0.06451   0.00000  Uiso   1.00
O500   O     0.41788   0.70813   0.32290   0.00000  Uiso   1.00
H501   H     0.42834   0.73565   0.33161   0.00000  Uiso   1.00
O502   O     0.41793   0.95882   0.32297   0.00000  Uiso   1.00
H503   H     0.42842   0.93137   0.33168   0.00000  Uiso   1.00
C504   C     0.60978   0.76898   0.40906   0.00000  Uiso   1.00
H505   H     0.60817   0.73720   0.39692   0.00000  Uiso   1.00
O506   O     0.64963   0.78642   0.39684   0.00000  Uiso   1.00
O507   O     0.46483   0.86320   0.09320   0.00000  Uiso   1.00
H508   H     0.47226   0.88585   0.11455   0.00000  Uiso   1.00
O509   O     0.37931   0.91538   0.49465   0.00000  Uiso   1.00
H510   H     0.35736   0.91693   0.47244   0.00000  Uiso   1.00
O511   O     0.51992   0.76708   0.38017   0.00000  Uiso   1.00
H512   H     0.53797   0.74124   0.38129   0.00000  Uiso   1.00
C513   C     0.83286   0.91256   0.25174   0.00000  Uiso   1.00
C514   C     0.81845   0.84618   0.48386   0.00000  Uiso   1.00
C515   C     0.82230   0.82555   0.43632   0.00000  Uiso   1.00
C516   C     0.85136   0.83511   0.01224   0.00000  Uiso   1.00
C517   C     0.89376   0.81106   0.48691   0.00000  Uiso   1.00
C518   C     0.89776   0.79156   0.43875   0.00000  Uiso   1.00
C519   C     0.85801   0.79414   0.41823   0.00000  Uiso   1.00
C520   C     0.84234   0.84549   0.06553   0.00000  Uiso   1.00
C521   C     0.92110   0.81530   0.06431   0.00000  Uiso   1.00
C522   C     0.79119   0.83784   0.40683   0.00000  Uiso   1.00
C523   C     0.87308   0.97866   0.22472   0.00000  Uiso   1.00
C524   C     0.80689   0.83275   0.35004   0.00000  Uiso   1.00
C525   C     0.87306   0.68795   0.22470   0.00000  Uiso   1.00
C526   C     0.83197   0.70957   0.25532   0.00000  Uiso   1.00
C527   C     0.79095   0.68827   0.28849   0.00000  Uiso   1.00
C528   C     0.79097   0.97855   0.28852   0.00000  Uiso   1.00
C529   C     0.83201   0.95713   0.25538   0.00000  Uiso   1.00
C530   C     0.96535   0.85759   0.28415   0.00000  Uiso   1.00
C531   C     0.68162   0.85753   0.28420   0.00000  Uiso   1.00
C532   C     0.70128   0.80900   0.21593   0.00000  Uiso   1.00
C533   C     0.98500   0.80900   0.21596   0.00000  Uiso   1.00
C534   C     0.83283   0.75412   0.25168   0.00000  Uiso   1.00
C535   C     0.85982   0.83409   0.14974   0.00000  Uiso   1.00
C536   C     0.92950   0.80417   0.01215   0.00000  Uiso   1.00
C537   C     0.87571   0.83310   0.09213   0.00000  Uiso   1.00
C538   C     0.75173   0.86469   0.42841   0.00000  Uiso   1.00
C539   C     0.74792   0.88547   0.47487   0.00000  Uiso   1.00
C540   C     0.78301   0.87821   0.00002   0.00000  Uiso   1.00
Cu541  Cu    0.78645   0.83333   0.25000   0.00000  Uiso   1.00
Cu542  Cu    0.88022   0.83334   0.25000   0.00000  Uiso   1.00
H543   H     0.90473   0.70414   0.19960   0.00000  Uiso   1.00
H544   H     0.93880   0.87706   0.31149   0.00000  Uiso   1.00
H545   H     0.69245   0.87690   0.31158   0.00000  Uiso   1.00
H546   H     0.72782   0.78945   0.18869   0.00000  Uiso   1.00
H547   H     0.97412   0.78946   0.18877   0.00000  Uiso   1.00
H548   H     0.96280   0.78725   0.49300   0.00000  Uiso   1.00
H549   H     0.72730   0.87317   0.40627   0.00000  Uiso   1.00
H550   H     0.78300   0.89987   0.03040   0.00000  Uiso   1.00
H551   H     0.90476   0.96239   0.19964   0.00000  Uiso   1.00
N552   N     0.71598   0.83332   0.24998   0.00000  Uiso   1.00
N553   N     0.95069   0.83335   0.24999   0.00000  Uiso   1.00
O554   O     0.79375   0.89345   0.25000   0.00000  Uiso   1.00
O555   O     0.87294   0.89346   0.25000   0.00000  Uiso   1.00
O556   O     0.77441   0.83332   0.32549   0.00000  Uiso   1.00
O557   O     0.85360   0.83333   0.32549   0.00000  Uiso   1.00
O558   O     0.79373   0.77321   0.24999   0.00000  Uiso   1.00
O559   O     0.87292   0.77322   0.24999   0.00000  Uiso   1.00
O560   O     0.81306   0.83334   0.17451   0.00000  Uiso   1.00
O561   O     0.89225   0.83335   0.17451   0.00000  Uiso   1.00
O562   O     0.95509   0.80588   0.08970   0.00000  Uiso   1.00
H563   H     0.98498   0.79387   0.06451   0.00000  Uiso   1.00
O564   O     0.75122   0.70813   0.32290   0.00000  Uiso   1.00
H565   H     0.76167   0.73565   0.33161   0.00000  Uiso   1.00
O566   O     0.75127   0.95882   0.32297   0.00000  Uiso   1.00
H567   H     0.76175   0.93137   0.33168   0.00000  Uiso   1.00
C568   C     0.94311   0.76898   0.40906   0.00000  Uiso   1.00
H569   H     0.94150   0.73720   0.39692   0.00000  Uiso   1.00
O570   O     0.98297   0.78642   0.39684   0.00000  Uiso   1.00
O571   O     0.79816   0.86320   0.09320   0.00000  Uiso   1.00
H572   H     0.80560   0.88585   0.11455   0.00000  Uiso   1.00
O573   O     0.71264   0.91538   0.49465   0.00000  Uiso   1.00
H574   H     0.69070   0.91693   0.47244   0.00000  Uiso   1.00
O575   O     0.85326   0.76708   0.38017   0.00000  Uiso   1.00
H576   H     0.87130   0.74124   0.38129   0.00000  Uiso   1.00
C577   C     0.16619   0.24589   0.75174   0.00000  Uiso   1.00
C578   C     0.15178   0.17952   0.98386   0.00000  Uiso   1.00
C579   C     0.15563   0.15889   0.93632   0.00000  Uiso   1.00
C580   C     0.18469   0.16845   0.51224   0.00000  Uiso   1.00
C581   C     0.22709   0.14440   0.98691   0.00000  Uiso   1.00
C582   C     0.23109   0.12490   0.93875   0.00000  Uiso   1.00
C583   C     0.19134   0.12747   0.91823   0.00000  Uiso   1.00
C584   C     0.17567   0.17882   0.56553   0.00000  Uiso   1.00
C585   C     0.25443   0.14863   0.56431   0.00000  Uiso   1.00
C586   C     0.12452   0.17117   0.90683   0.00000  Uiso   1.00
C587   C     0.20642   0.31199   0.72472   0.00000  Uiso   1.00
C588   C     0.14023   0.16608   0.85004   0.00000  Uiso   1.00
C589   C     0.20640   0.02129   0.72470   0.00000  Uiso   1.00
C590   C     0.16530   0.04290   0.75532   0.00000  Uiso   1.00
C591   C     0.12428   0.02161   0.78849   0.00000  Uiso   1.00
C592   C     0.12430   0.31188   0.78852   0.00000  Uiso   1.00
C593   C     0.16535   0.29047   0.75538   0.00000  Uiso   1.00
C594   C     0.29869   0.19092   0.78415   0.00000  Uiso   1.00
C595   C     0.01496   0.19086   0.78420   0.00000  Uiso   1.00
C596   C     0.03462   0.14233   0.71593   0.00000  Uiso   1.00
C597   C     0.31833   0.14234   0.71596   0.00000  Uiso   1.00
C598   C     0.16616   0.08745   0.75168   0.00000  Uiso   1.00
C599   C     0.19315   0.16742   0.64974   0.00000  Uiso   1.00
C600   C     0.26283   0.13750   0.51215   0.00000  Uiso   1.00
C601   C     0.20904   0.16643   0.59213   0.00000  Uiso   1.00
C602   C     0.08506   0.19802   0.92841   0.00000  Uiso   1.00
C603   C     0.08125   0.21880   0.97487   0.00000  Uiso   1.00
C604   C     0.11635   0.21155   0.50002   0.00000  Uiso   1.00
Cu605  Cu    0.11978   0.16666   0.75000   0.00000  Uiso   1.00
Cu606  Cu    0.21355   0.16667   0.75000   0.00000  Uiso   1.00
H607   H     0.23807   0.03747   0.69960   0.00000  Uiso   1.00
H608   H     0.27213   0.21040   0.81149   0.00000  Uiso   1.00
H609   H     0.02578   0.21024   0.81158   0.00000  Uiso   1.00
H610   H     0.06115   0.12278   0.68869   0.00000  Uiso   1.00
H611   H     0.30746   0.12280   0.68877   0.00000  Uiso   1.00
H612   H     0.29613   0.12058   0.99300   0.00000  Uiso   1.00
H613   H     0.06063   0.20651   0.90627   0.00000  Uiso   1.00
H614   H     0.11634   0.23320   0.53040   0.00000  Uiso   1.00
H615   H     0.23809   0.29573   0.69964   0.00000  Uiso   1.00
N616   N     0.04931   0.16666   0.74998   0.00000  Uiso   1.00
N617   N     0.28402   0.16669   0.74999   0.00000  Uiso   1.00
O618   O     0.12708   0.22678   0.75000   0.00000  Uiso   1.00
O619   O     0.20627   0.22679   0.75000   0.00000  Uiso   1.00
O620   O     0.10775   0.16665   0.82549   0.00000  Uiso   1.00
O621   O     0.18694   0.16666   0.82549   0.00000  Uiso   1.00
O622   O     0.12706   0.10654   0.74999   0.00000  Uiso   1.00
O623   O     0.20625   0.10655   0.74999   0.00000  Uiso   1.00
O624   O     0.14640   0.16667   0.67451   0.00000  Uiso   1.00
O625   O     0.22559   0.16668   0.67451   0.00000  Uiso   1.00
O626   O     0.28842   0.13921   0.58970   0.00000  Uiso   1.00
H627   H     0.31831   0.12720   0.56451   0.00000  Uiso   1.00
O628   O     0.08455   0.04146   0.82290   0.00000  Uiso   1.00
H629   H     0.09500   0.06899   0.83161   0.00000  Uiso   1.00
O630   O     0.08460   0.29215   0.82297   0.00000  Uiso   1.00
H631   H     0.09508   0.26470   0.83168   0.00000  Uiso   1.00
C632   C     0.27644   0.10232   0.90906   0.00000  Uiso   1.00
H633   H     0.27483   0.07053   0.89692   0.00000  Uiso   1.00
O634   O     0.31630   0.11975   0.89684   0.00000  Uiso   1.00
O635   O     0.13150   0.19654   0.59320   0.00000  Uiso   1.00
H636   H     0.13893   0.21918   0.61455   0.00000  Uiso   1.00
O637   O     0.04597   0.24871   0.99465   0.00000  Uiso   1.00
H638   H     0.02403   0.25026   0.97244   0.00000  Uiso   1.00
O639   O     0.18659   0.10041   0.88017   0.00000  Uiso   1.00
H640   H     0.20464   0.07458   0.88129   0.00000  Uiso   1.00
C641   C     0.49953   0.24589   0.75174   0.00000  Uiso   1.00
C642   C     0.48512   0.17952   0.98386   0.00000  Uiso   1.00
C643   C     0.48897   0.15889   0.93632   0.00000  Uiso   1.00
C644   C     0.51803   0.16845   0.51224   0.00000  Uiso   1.00
C645   C     0.56042   0.14440   0.98691   0.00000  Uiso   1.00
C646   C     0.56443   0.12490   0.93875   0.00000  Uiso   1.00
C647   C     0.52468   0.12747   0.91823   0.00000  Uiso   1.00
C648   C     0.50901   0.17882   0.56553   0.00000  Uiso   1.00
C649   C     0.58777   0.14863   0.56431   0.00000  Uiso   1.00
C650   C     0.45786   0.17117   0.90683   0.00000  Uiso   1.00
C651   C     0.53975   0.31199   0.72472   0.00000  Uiso   1.00
C652   C     0.47356   0.16608   0.85004   0.00000  Uiso   1.00
C653   C     0.53973   0.02129   0.72470   0.00000  Uiso   1.00
C654   C     0.49864   0.04290   0.75532   0.00000  Uiso   1.00
C655   C     0.45761   0.02161   0.78849   0.00000  Uiso   1.00
C656   C     0.45763   0.31188   0.78852   0.00000  Uiso   1.00
C657   C     0.49868   0.29047   0.75538   0.00000  Uiso   1.00
C658   C     0.63202   0.19092   0.78415   0.00000  Uiso   1.00
C659   C     0.34829   0.19086   0.78420   0.00000  Uiso   1.00
C660   C     0.36795   0.14233   0.71593   0.00000  Uiso   1.00
C661   C     0.65166   0.14234   0.71596   0.00000  Uiso   1.00
C662   C     0.49950   0.08745   0.75168   0.00000  Uiso   1.00
C663   C     0.52648   0.16742   0.64974   0.00000  Uiso   1.00
C664   C     0.59617   0.13750   0.51215   0.00000  Uiso   1.00
C665   C     0.54237   0.16643   0.59213   0.00000  Uiso   1.00
C666   C     0.41840   0.19802   0.92841   0.00000  Uiso   1.00
C667   C     0.41459   0.21880   0.97487   0.00000  Uiso   1.00
C668   C     0.44968   0.21155   0.50002   0.00000  Uiso   1.00
Cu669  Cu    0.45311   0.16666   0.75000   0.00000  Uiso   1.00
Cu670  Cu    0.54689   0.16667   0.75000   0.00000  Uiso   1.00
H671   H     0.57140   0.03747   0.69960   0.00000  Uiso   1.00
H672   H     0.60546   0.21040   0.81149   0.00000  Uiso   1.00
H673   H     0.35911   0.21024   0.81158   0.00000  Uiso   1.00
H674   H     0.39448   0.12278   0.68869   0.00000  Uiso   1.00
H675   H     0.64079   0.12280   0.68877   0.00000  Uiso   1.00
H676   H     0.62947   0.12058   0.99300   0.00000  Uiso   1.00
H677   H     0.39396   0.20651   0.90627   0.00000  Uiso   1.00
H678   H     0.44967   0.23320   0.53040   0.00000  Uiso   1.00
H679   H     0.57142   0.29573   0.69964   0.00000  Uiso   1.00
N680   N     0.38265   0.16666   0.74998   0.00000  Uiso   1.00
N681   N     0.61735   0.16669   0.74999   0.00000  Uiso   1.00
O682   O     0.46042   0.22678   0.75000   0.00000  Uiso   1.00
O683   O     0.53961   0.22679   0.75000   0.00000  Uiso   1.00
O684   O     0.44108   0.16665   0.82549   0.00000  Uiso   1.00
O685   O     0.52027   0.16666   0.82549   0.00000  Uiso   1.00
O686   O     0.46039   0.10654   0.74999   0.00000  Uiso   1.00
O687   O     0.53958   0.10655   0.74999   0.00000  Uiso   1.00
O688   O     0.47973   0.16667   0.67451   0.00000  Uiso   1.00
O689   O     0.55892   0.16668   0.67451   0.00000  Uiso   1.00
O690   O     0.62175   0.13921   0.58970   0.00000  Uiso   1.00
H691   H     0.65165   0.12720   0.56451   0.00000  Uiso   1.00
O692   O     0.41788   0.04146   0.82290   0.00000  Uiso   1.00
H693   H     0.42834   0.06899   0.83161   0.00000  Uiso   1.00
O694   O     0.41793   0.29215   0.82297   0.00000  Uiso   1.00
H695   H     0.42842   0.26470   0.83168   0.00000  Uiso   1.00
C696   C     0.60978   0.10232   0.90906   0.00000  Uiso   1.00
H697   H     0.60817   0.07053   0.89692   0.00000  Uiso   1.00
O698   O     0.64963   0.11975   0.89684   0.00000  Uiso   1.00
O699   O     0.46483   0.19654   0.59320   0.00000  Uiso   1.00
H700   H     0.47226   0.21918   0.61455   0.00000  Uiso   1.00
O701   O     0.37931   0.24871   0.99465   0.00000  Uiso   1.00
H702   H     0.35736   0.25026   0.97244   0.00000  Uiso   1.00
O703   O     0.51992   0.10041   0.88017   0.00000  Uiso   1.00
H704   H     0.53797   0.07458   0.88129   0.00000  Uiso   1.00
C705   C     0.83286   0.24589   0.75174   0.00000  Uiso   1.00
C706   C     0.81845   0.17952   0.98386   0.00000  Uiso   1.00
C707   C     0.82230   0.15889   0.93632   0.00000  Uiso   1.00
C708   C     0.85136   0.16845   0.51224   0.00000  Uiso   1.00
C709   C     0.89376   0.14440   0.98691   0.00000  Uiso   1.00
C710   C     0.89776   0.12490   0.93875   0.00000  Uiso   1.00
C711   C     0.85801   0.12747   0.91823   0.00000  Uiso   1.00
C712   C     0.84234   0.17882   0.56553   0.00000  Uiso   1.00
C713   C     0.92110   0.14863   0.56431   0.00000  Uiso   1.00
C714   C     0.79119   0.17117   0.90683   0.00000  Uiso   1.00
C715   C     0.87308   0.31199   0.72472   0.00000  Uiso   1.00
C716   C     0.80689   0.16608   0.85004   0.00000  Uiso   1.00
C717   C     0.87306   0.02129   0.72470   0.00000  Uiso   1.00
C718   C     0.83197   0.04290   0.75532   0.00000  Uiso   1.00
C719   C     0.79095   0.02161   0.78849   0.00000  Uiso   1.00
C720   C     0.79097   0.31188   0.78852   0.00000  Uiso   1.00
C721   C     0.83201   0.29047   0.75538   0.00000  Uiso   1.00
C722   C     0.96535   0.19092   0.78415   0.00000  Uiso   1.00
C723   C     0.68162   0.19086   0.78420   0.00000  Uiso   1.00
C724   C     0.70128   0.14233   0.71593   0.00000  Uiso   1.00
C725   C     0.98500   0.14234   0.71596   0.00000  Uiso   1.00
C726   C     0.83283   0.08745   0.75168   0.00000  Uiso   1.00
C727   C     0.85982   0.16742   0.64974   0.00000  Uiso   1.00
C728   C     0.92950   0.13750   0.51215   0.00000  Uiso   1.00
C729   C     0.87571   0.16643   0.59213   0.00000  Uiso   1.00
C730   C     0.75173   0.19802   0.92841   0.00000  Uiso   1.00
C731   C     0.74792   0.21880   0.97487   0.00000  Uiso   1.00
C732   C     0.78301   0.21155   0.50002   0.00000  Uiso   1.00
Cu733  Cu    0.78645   0.16666   0.75000   0.00000  Uiso   1.00
Cu734  Cu    0.88022   0.16667   0.75000   0.00000  Uiso   1.00
H735   H     0.90473   0.03747   0.69960   0.00000  Uiso   1.00
H736   H     0.93880   0.21040   0.81149   0.00000  Uiso   1.00
H737   H     0.69245   0.21024   0.81158   0.00000  Uiso   1.00
H738   H     0.72782   0.12278   0.68869   0.00000  Uiso   1.00
H739   H     0.97412   0.12280   0.68877   0.00000  Uiso   1.00
H740   H     0.96280   0.12058   0.99300   0.00000  Uiso   1.00
H741   H     0.72730   0.20651   0.90627   0.00000  Uiso   1.00
H742   H     0.78300   0.23320   0.53040   0.00000  Uiso   1.00
H743   H     0.90476   0.29573   0.69964   0.00000  Uiso   1.00
N744   N     0.71598   0.16666   0.74998   0.00000  Uiso   1.00
N745   N     0.95069   0.16669   0.74999   0.00000  Uiso   1.00
O746   O     0.79375   0.22678   0.75000   0.00000  Uiso   1.00
O747   O     0.87294   0.22679   0.75000   0.00000  Uiso   1.00
O748   O     0.77441   0.16665   0.82549   0.00000  Uiso   1.00
O749   O     0.85360   0.16666   0.82549   0.00000  Uiso   1.00
O750   O     0.79373   0.10654   0.74999   0.00000  Uiso   1.00
O751   O     0.87292   0.10655   0.74999   0.00000  Uiso   1.00
O752   O     0.81306   0.16667   0.67451   0.00000  Uiso   1.00
O753   O     0.89225   0.16668   0.67451   0.00000  Uiso   1.00
O754   O     0.95509   0.13921   0.58970   0.00000  Uiso   1.00
H755   H     0.98498   0.12720   0.56451   0.00000  Uiso   1.00
O756   O     0.75122   0.04146   0.82290   0.00000  Uiso   1.00
H757   H     0.76167   0.06899   0.83161   0.00000  Uiso   1.00
O758   O     0.75127   0.29215   0.82297   0.00000  Uiso   1.00
H759   H     0.76175   0.26470   0.83168   0.00000  Uiso   1.00
C760   C     0.94311   0.10232   0.90906   0.00000  Uiso   1.00
H761   H     0.94150   0.07053   0.89692   0.00000  Uiso   1.00
O762   O     0.98297   0.11975   0.89684   0.00000  Uiso   1.00
O763   O     0.79816   0.19654   0.59320   0.00000  Uiso   1.00
H764   H     0.80560   0.21918   0.61455   0.00000  Uiso   1.00
O765   O     0.71264   0.24871   0.99465   0.00000  Uiso   1.00
H766   H     0.69070   0.25026   0.97244   0.00000  Uiso   1.00
O767   O     0.85326   0.10041   0.88017   0.00000  Uiso   1.00
H768   H     0.87130   0.07458   0.88129   0.00000  Uiso   1.00
C769   C     0.16619   0.57922   0.75174   0.00000  Uiso   1.00
C770   C     0.15178   0.51285   0.98386   0.00000  Uiso   1.00
C771   C     0.15563   0.49222   0.93632   0.00000  Uiso   1.00
C772   C     0.18469   0.50178   0.51224   0.00000  Uiso   1.00
C773   C     0.22709   0.47773   0.98691   0.00000  Uiso   1.00
C774   C     0.23109   0.45823   0.93875   0.00000  Uiso   1.00
C775   C     0.19134   0.46081   0.91823   0.00000  Uiso   1.00
C776   C     0.17567   0.51216   0.56553   0.00000  Uiso   1.00
C777   C     0.25443   0.48197   0.56431   0.00000  Uiso   1.00
C778   C     0.12452   0.50450   0.90683   0.00000  Uiso   1.00
C779   C     0.20642   0.64532   0.72472   0.00000  Uiso   1.00
C780   C     0.14023   0.49942   0.85004   0.00000  Uiso   1.00
C781   C     0.20640   0.35462   0.72470   0.00000  Uiso   1.00
C782   C     0.16530   0.37624   0.75532   0.00000  Uiso   1.00
C783   C     0.12428   0.35494   0.78849   0.00000  Uiso   1.00
C784   C     0.12430   0.64521   0.78852   0.00000  Uiso   1.00
C785   C     0.16535   0.62380   0.75538   0.00000  Uiso   1.00
C786   C     0.29869   0.52426   0.78415   0.00000  Uiso   1.00
C787   C     0.01496   0.52419   0.78420   0.00000  Uiso   1.00
C788   C     0.03462   0.47567   0.71593   0.00000  Uiso   1.00
C789   C     0.31833   0.47567   0.71596   0.00000  Uiso   1.00
C790   C     0.16616   0.42079   0.75168   0.00000  Uiso   1.00
C791   C     0.19315   0.50075   0.64974   0.00000  Uiso   1.00
C792   C     0.26283   0.47083   0.51215   0.00000  Uiso   1.00
C793   C     0.20904   0.49977   0.59213   0.00000  Uiso   1.00
C794   C     0.08506   0.53135   0.92841   0.00000  Uiso   1.00
C795   C     0.08125   0.55214   0.97487   0.00000  Uiso   1.00
C796   C     0.11635   0.54488   0.50002   0.00000  Uiso   1.00
Cu797  Cu    0.11978   0.49999   0.75000   0.00000  Uiso   1.00
Cu798  Cu    0.21355   0.50001   0.75000   0.00000  Uiso   1.00
H799   H     0.23807   0.37081   0.69960   0.00000  Uiso   1.00
H800   H     0.27213   0.54373   0.81149   0.00000  Uiso   1.00
H801   H     0.02578   0.54357   0.81158   0.00000  Uiso   1.00
H802   H     0.06115   0.45612   0.68869   0.00000  Uiso   1.00
H803   H     0.30746   0.45613   0.68877   0.00000  Uiso   1.00
H804   H     0.29613   0.45392   0.99300   0.00000  Uiso   1.00
H805   H     0.06063   0.53984   0.90627   0.00000  Uiso   1.00
H806   H     0.11634   0.56653   0.53040   0.00000  Uiso   1.00
H807   H     0.23809   0.62906   0.69964   0.00000  Uiso   1.00
N808   N     0.04931   0.49999   0.74998   0.00000  Uiso   1.00
N809   N     0.28402   0.50002   0.74999   0.00000  Uiso   1.00
O810   O     0.12708   0.56011   0.75000   0.00000  Uiso   1.00
O811   O     0.20627   0.56012   0.75000   0.00000  Uiso   1.00
O812   O     0.10775   0.49998   0.82549   0.00000  Uiso   1.00
O813   O     0.18694   0.49999   0.82549   0.00000  Uiso   1.00
O814   O     0.12706   0.43988   0.74999   0.00000  Uiso   1.00
O815   O     0.20625   0.43989   0.74999   0.00000  Uiso   1.00
O816   O     0.14640   0.50001   0.67451   0.00000  Uiso   1.00
O817   O     0.22559   0.50002   0.67451   0.00000  Uiso   1.00
O818   O     0.28842   0.47255   0.58970   0.00000  Uiso   1.00
H819   H     0.31831   0.46053   0.56451   0.00000  Uiso   1.00
O820   O     0.08455   0.37479   0.82290   0.00000  Uiso   1.00
H821   H     0.09500   0.40232   0.83161   0.00000  Uiso   1.00
O822   O     0.08460   0.62548   0.82297   0.00000  Uiso   1.00
H823   H     0.09508   0.59803   0.83168   0.00000  Uiso   1.00
C824   C     0.27644   0.43565   0.90906   0.00000  Uiso   1.00
H825   H     0.27483   0.40387   0.89692   0.00000  Uiso   1.00
O826   O     0.31630   0.45308   0.89684   0.00000  Uiso   1.00
O827   O     0.13150   0.52987   0.59320   0.00000  Uiso   1.00
H828   H     0.13893   0.55251   0.61455   0.00000  Uiso   1.00
O829   O     0.04597   0.58205   0.99465   0.00000  Uiso   1.00
H830   H     0.02403   0.58359   0.97244   0.00000  Uiso   1.00
O831   O     0.18659   0.43374   0.88017   0.00000  Uiso   1.00
H832   H     0.20464   0.40791   0.88129   0.00000  Uiso   1.00
C833   C     0.49953   0.57922   0.75174   0.00000  Uiso   1.00
C834   C     0.48512   0.51285   0.98386   0.00000  Uiso   1.00
C835   C     0.48897   0.49222   0.93632   0.00000  Uiso   1.00
C836   C     0.51803   0.50178   0.51224   0.00000  Uiso   1.00
C837   C     0.56042   0.47773   0.98691   0.00000  Uiso   1.00
C838   C     0.56443   0.45823   0.93875   0.00000  Uiso   1.00
C839   C     0.52468   0.46081   0.91823   0.00000  Uiso   1.00
C840   C     0.50901   0.51216   0.56553   0.00000  Uiso   1.00
C841   C     0.58777   0.48197   0.56431   0.00000  Uiso   1.00
C842   C     0.45786   0.50450   0.90683   0.00000  Uiso   1.00
C843   C     0.53975   0.64532   0.72472   0.00000  Uiso   1.00
C844   C     0.47356   0.49942   0.85004   0.00000  Uiso   1.00
C845   C     0.53973   0.35462   0.72470   0.00000  Uiso   1.00
C846   C     0.49864   0.37624   0.75532   0.00000  Uiso   1.00
C847   C     0.45761   0.35494   0.78849   0.00000  Uiso   1.00
C848   C     0.45763   0.64521   0.78852   0.00000  Uiso   1.00
C849   C     0.49868   0.62380   0.75538   0.00000  Uiso   1.00
C850   C     0.63202   0.52426   0.78415   0.00000  Uiso   1.00
C851   C     0.34829   0.52419   0.78420   0.00000  Uiso   1.00
C852   C     0.36795   0.47567   0.71593   0.00000  Uiso   1.00
C853   C     0.65166   0.47567   0.71596   0.00000  Uiso   1.00
C854   C     0.49950   0.42079   0.75168   0.00000  Uiso   1.00
C855   C     0.52648   0.50075   0.64974   0.00000  Uiso   1.00
C856   C     0.59617   0.47083   0.51215   0.00000  Uiso   1.00
C857   C     0.54237   0.49977   0.59213   0.00000  Uiso   1.00
C858   C     0.41840   0.53135   0.92841   0.00000  Uiso   1.00
C859   C     0.41459   0.55214   0.97487   0.00000  Uiso   1.00
C860   C     0.44968   0.54488   0.50002   0.00000  Uiso   1.00
Cu861  Cu    0.45311   0.49999   0.75000   0.00000  Uiso   1.00
Cu862  Cu    0.54689   0.50001   0.75000   0.00000  Uiso   1.00
H863   H     0.57140   0.37081   0.69960   0.00000  Uiso   1.00
H864   H     0.60546   0.54373   0.81149   0.00000  Uiso   1.00
H865   H     0.35911   0.54357   0.81158   0.00000  Uiso   1.00
H866   H     0.39448   0.45612   0.68869   0.00000  Uiso   1.00
H867   H     0.64079   0.45613   0.68877   0.00000  Uiso   1.00
H868   H     0.62947   0.45392   0.99300   0.00000  Uiso   1.00
H869   H     0.39396   0.53984   0.90627   0.00000  Uiso   1.00
H870   H     0.44967   0.56653   0.53040   0.00000  Uiso   1.00
H871   H     0.57142   0.62906   0.69964   0.00000  Uiso   1.00
N872   N     0.38265   0.49999   0.74998   0.00000  Uiso   1.00
N873   N     0.61735   0.50002   0.74999   0.00000  Uiso   1.00
O874   O     0.46042   0.56011   0.75000   0.00000  Uiso   1.00
O875   O     0.53961   0.56012   0.75000   0.00000  Uiso   1.00
O876   O     0.44108   0.49998   0.82549   0.00000  Uiso   1.00
O877   O     0.52027   0.49999   0.82549   0.00000  Uiso   1.00
O878   O     0.46039   0.43988   0.74999   0.00000  Uiso   1.00
O879   O     0.53958   0.43989   0.74999   0.00000  Uiso   1.00
O880   O     0.47973   0.50001   0.67451   0.00000  Uiso   1.00
O881   O     0.55892   0.50002   0.67451   0.00000  Uiso   1.00
O882   O     0.62175   0.47255   0.58970   0.00000  Uiso   1.00
H883   H     0.65165   0.46053   0.56451   0.00000  Uiso   1.00
O884   O     0.41788   0.37479   0.82290   0.00000  Uiso   1.00
H885   H     0.42834   0.40232   0.83161   0.00000  Uiso   1.00
O886   O     0.41793   0.62548   0.82297   0.00000  Uiso   1.00
H887   H     0.42842   0.59803   0.83168   0.00000  Uiso   1.00
C888   C     0.60978   0.43565   0.90906   0.00000  Uiso   1.00
H889   H     0.60817   0.40387   0.89692   0.00000  Uiso   1.00
O890   O     0.64963   0.45308   0.89684   0.00000  Uiso   1.00
O891   O     0.46483   0.52987   0.59320   0.00000  Uiso   1.00
H892   H     0.47226   0.55251   0.61455   0.00000  Uiso   1.00
O893   O     0.37931   0.58205   0.99465   0.00000  Uiso   1.00
H894   H     0.35736   0.58359   0.97244   0.00000  Uiso   1.00
O895   O     0.51992   0.43374   0.88017   0.00000  Uiso   1.00
H896   H     0.53797   0.40791   0.88129   0.00000  Uiso   1.00
C897   C     0.83286   0.57922   0.75174   0.00000  Uiso   1.00
C898   C     0.81845   0.51285   0.98386   0.00000  Uiso   1.00
C899   C     0.82230   0.49222   0.93632   0.00000  Uiso   1.00
C900   C     0.85136   0.50178   0.51224   0.00000  Uiso   1.00
C901   C     0.89376   0.47773   0.98691   0.00000  Uiso   1.00
C902   C     0.89776   0.45823   0.93875   0.00000  Uiso   1.00
C903   C     0.85801   0.46081   0.91823   0.00000  Uiso   1.00
C904   C     0.84234   0.51216   0.56553   0.00000  Uiso   1.00
C905   C     0.92110   0.48197   0.56431   0.00000  Uiso   1.00
C906   C     0.79119   0.50450   0.90683   0.00000  Uiso   1.00
C907   C     0.87308   0.64532   0.72472   0.00000  Uiso   1.00
C908   C     0.80689   0.49942   0.85004   0.00000  Uiso   1.00
C909   C     0.87306   0.35462   0.72470   0.00000  Uiso   1.00
C910   C     0.83197   0.37624   0.75532   0.00000  Uiso   1.00
C911   C     0.79095   0.35494   0.78849   0.00000  Uiso   1.00
C912   C     0.79097   0.64521   0.78852   0.00000  Uiso   1.00
C913   C     0.83201   0.62380   0.75538   0.00000  Uiso   1.00
C914   C     0.96535   0.52426   0.78415   0.00000  Uiso   1.00
C915   C     0.68162   0.52419   0.78420   0.00000  Uiso   1.00
C916   C     0.70128   0.47567   0.71593   0.00000  Uiso   1.00
C917   C     0.98500   0.47567   0.71596   0.00000  Uiso   1.00
C918   C     0.83283   0.42079   0.75168   0.00000  Uiso   1.00
C919   C     0.85982   0.50075   0.64974   0.00000  Uiso   1.00
C920   C     0.92950   0.47083   0.51215   0.00000  Uiso   1.00
C921   C     0.87571   0.49977   0.59213   0.00000  Uiso   1.00
C922   C     0.75173   0.53135   0.92841   0.00000  Uiso   1.00
C923   C     0.74792   0.55214   0.97487   0.00000  Uiso   1.00
C924   C     0.78301   0.54488   0.50002   0.00000  Uiso   1.00
Cu925  Cu    0.78645   0.49999   0.75000   0.00000  Uiso   1.00
Cu926  Cu    0.88022   0.50001   0.75000   0.00000  Uiso   1.00
H927   H     0.90473   0.37081   0.69960   0.00000  Uiso   1.00
H928   H     0.93880   0.54373   0.81149   0.00000  Uiso   1.00
H929   H     0.69245   0.54357   0.81158   0.00000  Uiso   1.00
H930   H     0.72782   0.45612   0.68869   0.00000  Uiso   1.00
H931   H     0.97412   0.45613   0.68877   0.00000  Uiso   1.00
H932   H     0.96280   0.45392   0.99300   0.00000  Uiso   1.00
H933   H     0.72730   0.53984   0.90627   0.00000  Uiso   1.00
H934   H     0.78300   0.56653   0.53040   0.00000  Uiso   1.00
H935   H     0.90476   0.62906   0.69964   0.00000  Uiso   1.00
N936   N     0.71598   0.49999   0.74998   0.00000  Uiso   1.00
N937   N     0.95069   0.50002   0.74999   0.00000  Uiso   1.00
O938   O     0.79375   0.56011   0.75000   0.00000  Uiso   1.00
O939   O     0.87294   0.56012   0.75000   0.00000  Uiso   1.00
O940   O     0.77441   0.49998   0.82549   0.00000  Uiso   1.00
O941   O     0.85360   0.49999   0.82549   0.00000  Uiso   1.00
O942   O     0.79373   0.43988   0.74999   0.00000  Uiso   1.00
O943   O     0.87292   0.43989   0.74999   0.00000  Uiso   1.00
O944   O     0.81306   0.50001   0.67451   0.00000  Uiso   1.00
O945   O     0.89225   0.50002   0.67451   0.00000  Uiso   1.00
O946   O     0.95509   0.47255   0.58970   0.00000  Uiso   1.00
H947   H     0.98498   0.46053   0.56451   0.00000  Uiso   1.00
O948   O     0.75122   0.37479   0.82290   0.00000  Uiso   1.00
H949   H     0.76167   0.40232   0.83161   0.00000  Uiso   1.00
O950   O     0.75127   0.62548   0.82297   0.00000  Uiso   1.00
H951   H     0.76175   0.59803   0.83168   0.00000  Uiso   1.00
C952   C     0.94311   0.43565   0.90906   0.00000  Uiso   1.00
H953   H     0.94150   0.40387   0.89692   0.00000  Uiso   1.00
O954   O     0.98297   0.45308   0.89684   0.00000  Uiso   1.00
O955   O     0.79816   0.52987   0.59320   0.00000  Uiso   1.00
H956   H     0.80560   0.55251   0.61455   0.00000  Uiso   1.00
O957   O     0.71264   0.58205   0.99465   0.00000  Uiso   1.00
H958   H     0.69070   0.58359   0.97244   0.00000  Uiso   1.00
O959   O     0.85326   0.43374   0.88017   0.00000  Uiso   1.00
H960   H     0.87130   0.40791   0.88129   0.00000  Uiso   1.00
C961   C     0.16619   0.91256   0.75174   0.00000  Uiso   1.00
C962   C     0.15178   0.84618   0.98386   0.00000  Uiso   1.00
C963   C     0.15563   0.82555   0.93632   0.00000  Uiso   1.00
C964   C     0.18469   0.83511   0.51224   0.00000  Uiso   1.00
C965   C     0.22709   0.81106   0.98691   0.00000  Uiso   1.00
C966   C     0.23109   0.79156   0.93875   0.00000  Uiso   1.00
C967   C     0.19134   0.79414   0.91823   0.00000  Uiso   1.00
C968   C     0.17567   0.84549   0.56553   0.00000  Uiso   1.00
C969   C     0.25443   0.81530   0.56431   0.00000  Uiso   1.00
C970   C     0.12452   0.83784   0.90683   0.00000  Uiso   1.00
C971   C     0.20642   0.97866   0.72472   0.00000  Uiso   1.00
C972   C     0.14023   0.83275   0.85004   0.00000  Uiso   1.00
C973   C     0.20640   0.68795   0.72470   0.00000  Uiso   1.00
C974   C     0.16530   0.70957   0.75532   0.00000  Uiso   1.00
C975   C     0.12428   0.68827   0.78849   0.00000  Uiso   1.00
C976   C     0.12430   0.97855   0.78852   0.00000  Uiso   1.00
C977   C     0.16535   0.95713   0.75538   0.00000  Uiso   1.00
C978   C     0.29869   0.85759   0.78415   0.00000  Uiso   1.00
C979   C     0.01496   0.85753   0.78420   0.00000  Uiso   1.00
C980   C     0.03462   0.80900   0.71593   0.00000  Uiso   1.00
C981   C     0.31833   0.80900   0.71596   0.00000  Uiso   1.00
C982   C     0.16616   0.75412   0.75168   0.00000  Uiso   1.00
C983   C     0.19315   0.83409   0.64974   0.00000  Uiso   1.00
C984   C     0.26283   0.80417   0.51215   0.00000  Uiso   1.00
C985   C     0.20904   0.83310   0.59213   0.00000  Uiso   1.00
C986   C     0.08506   0.86469   0.92841   0.00000  Uiso   1.00
C987   C     0.08125   0.88547   0.97487   0.00000  Uiso   1.00
C988   C     0.11635   0.87821   0.50002   0.00000  Uiso   1.00
Cu989  Cu    0.11978   0.83333   0.75000   0.00000  Uiso   1.00
Cu990  Cu    0.21355   0.83334   0.75000   0.00000  Uiso   1.00
H991   H     0.23807   0.70414   0.69960   0.00000  Uiso   1.00
H992   H     0.27213   0.87706   0.81149   0.00000  Uiso   1.00
H993   H     0.02578   0.87690   0.81158   0.00000  Uiso   1.00
H994   H     0.06115   0.78945   0.68869   0.00000  Uiso   1.00
H995   H     0.30746   0.78946   0.68877   0.00000  Uiso   1.00
H996   H     0.29613   0.78725   0.99300   0.00000  Uiso   1.00
H997   H     0.06063   0.87317   0.90627   0.00000  Uiso   1.00
H998   H     0.11634   0.89987   0.53040   0.00000  Uiso   1.00
H999   H     0.23809   0.96239   0.69964   0.00000  Uiso   1.00
N1000  N     0.04931   0.83332   0.74998   0.00000  Uiso   1.00
N1001  N     0.28402   0.83335   0.74999   0.00000  Uiso   1.00
O1002  O     0.12708   0.89345   0.75000   0.00000  Uiso   1.00
O1003  O     0.20627   0.89346   0.75000   0.00000  Uiso   1.00
O1004  O     0.10775   0.83332   0.82549   0.00000  Uiso   1.00
O1005  O     0.18694   0.83333   0.82549   0.00000  Uiso   1.00
O1006  O     0.12706   0.77321   0.74999   0.00000  Uiso   1.00
O1007  O     0.20625   0.77322   0.74999   0.00000  Uiso   1.00
O1008  O     0.14640   0.83334   0.67451   0.00000  Uiso   1.00
O1009  O     0.22559   0.83335   0.67451   0.00000  Uiso   1.00
O1010  O     0.28842   0.80588   0.58970   0.00000  Uiso   1.00
H1011  H     0.31831   0.79387   0.56451   0.00000  Uiso   1.00
O1012  O     0.08455   0.70813   0.82290   0.00000  Uiso   1.00
H1013  H     0.09500   0.73565   0.83161   0.00000  Uiso   1.00
O1014  O     0.08460   0.95882   0.82297   0.00000  Uiso   1.00
H1015  H     0.09508   0.93137   0.83168   0.00000  Uiso   1.00
C1016  C     0.27644   0.76898   0.90906   0.00000  Uiso   1.00
H1017  H     0.27483   0.73720   0.89692   0.00000  Uiso   1.00
O1018  O     0.31630   0.78642   0.89684   0.00000  Uiso   1.00
O1019  O     0.13150   0.86320   0.59320   0.00000  Uiso   1.00
H1020  H     0.13893   0.88585   0.61455   0.00000  Uiso   1.00
O1021  O     0.04597   0.91538   0.99465   0.00000  Uiso   1.00
H1022  H     0.02403   0.91693   0.97244   0.00000  Uiso   1.00
O1023  O     0.18659   0.76708   0.88017   0.00000  Uiso   1.00
H1024  H     0.20464   0.74124   0.88129   0.00000  Uiso   1.00
C1025  C     0.49953   0.91256   0.75174   0.00000  Uiso   1.00
C1026  C     0.48512   0.84618   0.98386   0.00000  Uiso   1.00
C1027  C     0.48897   0.82555   0.93632   0.00000  Uiso   1.00
C1028  C     0.51803   0.83511   0.51224   0.00000  Uiso   1.00
C1029  C     0.56042   0.81106   0.98691   0.00000  Uiso   1.00
C1030  C     0.56443   0.79156   0.93875   0.00000  Uiso   1.00
C1031  C     0.52468   0.79414   0.91823   0.00000  Uiso   1.00
C1032  C     0.50901   0.84549   0.56553   0.00000  Uiso   1.00
C1033  C     0.58777   0.81530   0.56431   0.00000  Uiso   1.00
C1034  C     0.45786   0.83784   0.90683   0.00000  Uiso   1.00
C1035  C     0.53975   0.97866   0.72472   0.00000  Uiso   1.00
C1036  C     0.47356   0.83275   0.85004   0.00000  Uiso   1.00
C1037  C     0.53973   0.68795   0.72470   0.00000  Uiso   1.00
C1038  C     0.49864   0.70957   0.75532   0.00000  Uiso   1.00
C1039  C     0.45761   0.68827   0.78849   0.00000  Uiso   1.00
C1040  C     0.45763   0.97855   0.78852   0.00000  Uiso   1.00
C1041  C     0.49868   0.95713   0.75538   0.00000  Uiso   1.00
C1042  C     0.63202   0.85759   0.78415   0.00000  Uiso   1.00
C1043  C     0.34829   0.85753   0.78420   0.00000  Uiso   1.00
C1044  C     0.36795   0.80900   0.71593   0.00000  Uiso   1.00
C1045  C     0.65166   0.80900   0.71596   0.00000  Uiso   1.00
C1046  C     0.49950   0.75412   0.75168   0.00000  Uiso   1.00
C1047  C     0.52648   0.83409   0.64974   0.00000  Uiso   1.00
C1048  C     0.59617   0.80417   0.51215   0.00000  Uiso   1.00
C1049  C     0.54237   0.83310   0.59213   0.00000  Uiso   1.00
C1050  C     0.41840   0.86469   0.92841   0.00000  Uiso   1.00
C1051  C     0.41459   0.88547   0.97487   0.00000  Uiso   1.00
C1052  C     0.44968   0.87821   0.50002   0.00000  Uiso   1.00
Cu1053 Cu    0.45311   0.83333   0.75000   0.00000  Uiso   1.00
Cu1054 Cu    0.54689   0.83334   0.75000   0.00000  Uiso   1.00
H1055  H     0.57140   0.70414   0.69960   0.00000  Uiso   1.00
H1056  H     0.60546   0.87706   0.81149   0.00000  Uiso   1.00
H1057  H     0.35911   0.87690   0.81158   0.00000  Uiso   1.00
H1058  H     0.39448   0.78945   0.68869   0.00000  Uiso   1.00
H1059  H     0.64079   0.78946   0.68877   0.00000  Uiso   1.00
H1060  H     0.62947   0.78725   0.99300   0.00000  Uiso   1.00
H1061  H     0.39396   0.87317   0.90627   0.00000  Uiso   1.00
H1062  H     0.44967   0.89987   0.53040   0.00000  Uiso   1.00
H1063  H     0.57142   0.96239   0.69964   0.00000  Uiso   1.00
N1064  N     0.38265   0.83332   0.74998   0.00000  Uiso   1.00
N1065  N     0.61735   0.83335   0.74999   0.00000  Uiso   1.00
O1066  O     0.46042   0.89345   0.75000   0.00000  Uiso   1.00
O1067  O     0.53961   0.89346   0.75000   0.00000  Uiso   1.00
O1068  O     0.44108   0.83332   0.82549   0.00000  Uiso   1.00
O1069  O     0.52027   0.83333   0.82549   0.00000  Uiso   1.00
O1070  O     0.46039   0.77321   0.74999   0.00000  Uiso   1.00
O1071  O     0.53958   0.77322   0.74999   0.00000  Uiso   1.00
O1072  O     0.47973   0.83334   0.67451   0.00000  Uiso   1.00
O1073  O     0.55892   0.83335   0.67451   0.00000  Uiso   1.00
O1074  O     0.62175   0.80588   0.58970   0.00000  Uiso   1.00
H1075  H     0.65165   0.79387   0.56451   0.00000  Uiso   1.00
O1076  O     0.41788   0.70813   0.82290   0.00000  Uiso   1.00
H1077  H     0.42834   0.73565   0.83161   0.00000  Uiso   1.00
O1078  O     0.41793   0.95882   0.82297   0.00000  Uiso   1.00
H1079  H     0.42842   0.93137   0.83168   0.00000  Uiso   1.00
C1080  C     0.60978   0.76898   0.90906   0.00000  Uiso   1.00
H1081  H     0.60817   0.73720   0.89692   0.00000  Uiso   1.00
O1082  O     0.64963   0.78642   0.89684   0.00000  Uiso   1.00
O1083  O     0.46483   0.86320   0.59320   0.00000  Uiso   1.00
H1084  H     0.47226   0.88585   0.61455   0.00000  Uiso   1.00
O1085  O     0.37931   0.91538   0.99465   0.00000  Uiso   1.00
H1086  H     0.35736   0.91693   0.97244   0.00000  Uiso   1.00
O1087  O     0.51992   0.76708   0.88017   0.00000  Uiso   1.00
H1088  H     0.53797   0.74124   0.88129   0.00000  Uiso   1.00
C1089  C     0.83286   0.91256   0.75174   0.00000  Uiso   1.00
C1090  C     0.81845   0.84618   0.98386   0.00000  Uiso   1.00
C1091  C     0.82230   0.82555   0.93632   0.00000  Uiso   1.00
C1092  C     0.85136   0.83511   0.51224   0.00000  Uiso   1.00
C1093  C     0.89376   0.81106   0.98691   0.00000  Uiso   1.00
C1094  C     0.89776   0.79156   0.93875   0.00000  Uiso   1.00
C1095  C     0.85801   0.79414   0.91823   0.00000  Uiso   1.00
C1096  C     0.84234   0.84549   0.56553   0.00000  Uiso   1.00
C1097  C     0.92110   0.81530   0.56431   0.00000  Uiso   1.00
C1098  C     0.79119   0.83784   0.90683   0.00000  Uiso   1.00
C1099  C     0.87308   0.97866   0.72472   0.00000  Uiso   1.00
C1100  C     0.80689   0.83275   0.85004   0.00000  Uiso   1.00
C1101  C     0.87306   0.68795   0.72470   0.00000  Uiso   1.00
C1102  C     0.83197   0.70957   0.75532   0.00000  Uiso   1.00
C1103  C     0.79095   0.68827   0.78849   0.00000  Uiso   1.00
C1104  C     0.79097   0.97855   0.78852   0.00000  Uiso   1.00
C1105  C     0.83201   0.95713   0.75538   0.00000  Uiso   1.00
C1106  C     0.96535   0.85759   0.78415   0.00000  Uiso   1.00
C1107  C     0.68162   0.85753   0.78420   0.00000  Uiso   1.00
C1108  C     0.70128   0.80900   0.71593   0.00000  Uiso   1.00
C1109  C     0.98500   0.80900   0.71596   0.00000  Uiso   1.00
C1110  C     0.83283   0.75412   0.75168   0.00000  Uiso   1.00
C1111  C     0.85982   0.83409   0.64974   0.00000  Uiso   1.00
C1112  C     0.92950   0.80417   0.51215   0.00000  Uiso   1.00
C1113  C     0.87571   0.83310   0.59213   0.00000  Uiso   1.00
C1114  C     0.75173   0.86469   0.92841   0.00000  Uiso   1.00
C1115  C     0.74792   0.88547   0.97487   0.00000  Uiso   1.00
C1116  C     0.78301   0.87821   0.50002   0.00000  Uiso   1.00
Cu1117 Cu    0.78645   0.83333   0.75000   0.00000  Uiso   1.00
Cu1118 Cu    0.88022   0.83334   0.75000   0.00000  Uiso   1.00
H1119  H     0.90473   0.70414   0.69960   0.00000  Uiso   1.00
H1120  H     0.93880   0.87706   0.81149   0.00000  Uiso   1.00
H1121  H     0.69245   0.87690   0.81158   0.00000  Uiso   1.00
H1122  H     0.72782   0.78945   0.68869   0.00000  Uiso   1.00
H1123  H     0.97412   0.78946   0.68877   0.00000  Uiso   1.00
H1124  H     0.96280   0.78725   0.99300   0.00000  Uiso   1.00
H1125  H     0.72730   0.87317   0.90627   0.00000  Uiso   1.00
H1126  H     0.78300   0.89987   0.53040   0.00000  Uiso   1.00
H1127  H     0.90476   0.96239   0.69964   0.00000  Uiso   1.00
N1128  N     0.71598   0.83332   0.74998   0.00000  Uiso   1.00
N1129  N     0.95069   0.83335   0.74999   0.00000  Uiso   1.00
O1130  O     0.79375   0.89345   0.75000   0.00000  Uiso   1.00
O1131  O     0.87294   0.89346   0.75000   0.00000  Uiso   1.00
O1132  O     0.77441   0.83332   0.82549   0.00000  Uiso   1.00
O1133  O     0.85360   0.83333   0.82549   0.00000  Uiso   1.00
O1134  O     0.79373   0.77321   0.74999   0.00000  Uiso   1.00
O1135  O     0.87292   0.77322   0.74999   0.00000  Uiso   1.00
O1136  O     0.81306   0.83334   0.67451   0.00000  Uiso   1.00
O1137  O     0.89225   0.83335   0.67451   0.00000  Uiso   1.00
O1138  O     0.95509   0.80588   0.58970   0.00000  Uiso   1.00
H1139  H     0.98498   0.79387   0.56451   0.00000  Uiso   1.00
O1140  O     0.75122   0.70813   0.82290   0.00000  Uiso   1.00
H1141  H     0.76167   0.73565   0.83161   0.00000  Uiso   1.00
O1142  O     0.75127   0.95882   0.82297   0.00000  Uiso   1.00
H1143  H     0.76175   0.93137   0.83168   0.00000  Uiso   1.00
C1144  C     0.94311   0.76898   0.90906   0.00000  Uiso   1.00
H1145  H     0.94150   0.73720   0.89692   0.00000  Uiso   1.00
O1146  O     0.98297   0.78642   0.89684   0.00000  Uiso   1.00
O1147  O     0.79816   0.86320   0.59320   0.00000  Uiso   1.00
H1148  H     0.80560   0.88585   0.61455   0.00000  Uiso   1.00
O1149  O     0.71264   0.91538   0.99465   0.00000  Uiso   1.00
H1150  H     0.69070   0.91693   0.97244   0.00000  Uiso   1.00
O1151  O     0.85326   0.76708   0.88017   0.00000  Uiso   1.00
H1152  H     0.87130   0.74124   0.88129   0.00000  Uiso   1.00
loop_
_geom_bond_atom_site_label_1
_geom_bond_atom_site_label_2
_geom_bond_distance
_geom_bond_site_symmetry_2
_ccdc_geom_bond_type
C1     O43     1.289   .     A
C1     O42     1.289   .     A
C1     C17     1.446   .     S
C2     C3      1.417   .     A
C2     C580    1.428   .     S
C2     C604    1.420   .     S
C3     C10     1.419   .     A
C3     C7      1.416   .     A
C4     C8      1.419   .     A
C4     C578    1.428   1_554 S
C4     C581    1.424   1_554 S
C5     C6      1.415   .     A
C5     C580    1.424   .     S
C5     C600    1.408   .     S
C6     C7      1.409   .     A
C6     C56     1.487   .     S
C7     O63     1.385   .     S
C8     C25     1.416   .     A
C8     O59     1.377   .     S
C9     C25     1.405   .     A
C9     C24     1.398   .     A
C9     O50     1.383   .     S
C10    C26     1.400   .     A
C10    C12     1.466   .     S
C11    H39     1.084   .     S
C11    C17     1.397   .     A
C11    C205    1.380   .     S
C12    O44     1.294   .     A
C12    O45     1.294   .     A
C13    C14     1.397   .     A
C13    H31     1.084   .     S
C13    C395    1.380   1_545 S
C14    C15     1.416   .     A
C14    C22     1.445   .     S
C15    O52     1.383   .     S
C15    C400    1.394   1_545 S
C16    O54     1.382   .     S
C16    C17     1.416   .     A
C16    C207    1.394   .     S
C18    H32     1.082   .     S
C18    N41     1.368   .     A
C18    C83     1.416   .     S
C19    N40     1.367   .     A
C19    H33     1.082   .     S
C19    C146    1.416   1_455 S
C20    H34     1.082   .     S
C20    N40     1.367   .     A
C20    C149    1.416   1_455 S
C21    H35     1.082   .     S
C21    N41     1.367   .     A
C21    C84     1.416   .     S
C22    O47     1.289   .     A
C22    O46     1.289   .     A
C23    C25     1.479   .     S
C23    O49     1.297   .     A
C23    O48     1.296   .     A
C24    C581    1.408   1_554 S
C24    H612    1.081   1_554 S
C26    H37     1.084   .     S
C26    C27     1.394   .     A
C27    O61     1.380   .     S
C27    C604    1.392   .     S
C28    H38     1.076   .     S
C28    C578    1.420   1_554 S
C28    C603    1.392   1_554 S
Cu29   O42     1.957   .     S
Cu29   O46     1.957   .     S
Cu29   Cu30    2.677   .     S
Cu29   N40     2.012   .     S
Cu29   O44     1.957   .     S
Cu29   O48     1.942   .     S
Cu30   O45     1.942   .     S
Cu30   O49     1.957   .     S
Cu30   O43     1.957   .     S
Cu30   N41     2.012   .     S
Cu30   O47     1.957   .     S
H36    C600    1.081   .     S
O50    H51     0.992   .     S
O52    H53     0.990   .     S
O54    H55     0.989   .     S
C56    O58     1.221   .     D
C56    H57     1.084   .     S
O59    H60     0.993   .     S
O61    H62     0.992   .     S
O63    H64     0.988   .     S
C65    O107    1.289   .     A
C65    O106    1.289   .     A
C65    C81     1.446   .     S
C66    C67     1.417   .     A
C66    C644    1.428   .     S
C66    C668    1.420   .     S
C67    C74     1.419   .     A
C67    C71     1.416   .     A
C68    C72     1.419   .     A
C68    C642    1.428   1_554 S
C68    C645    1.424   1_554 S
C69    C70     1.415   .     A
C69    C644    1.424   .     S
C69    C664    1.408   .     S
C70    C71     1.409   .     A
C70    C120    1.487   .     S
C71    O127    1.385   .     S
C72    C89     1.416   .     A
C72    O123    1.377   .     S
C73    C89     1.405   .     A
C73    C88     1.398   .     A
C73    O114    1.383   .     S
C74    C90     1.400   .     A
C74    C76     1.466   .     S
C75    H103    1.084   .     S
C75    C81     1.397   .     A
C75    C269    1.380   .     S
C76    O108    1.294   .     A
C76    O109    1.294   .     A
C77    C78     1.397   .     A
C77    H95     1.084   .     S
C77    C459    1.380   1_545 S
C78    C79     1.416   .     A
C78    C86     1.445   .     S
C79    O116    1.383   .     S
C79    C464    1.394   1_545 S
C80    O118    1.382   .     S
C80    C81     1.416   .     A
C80    C271    1.394   .     S
C82    H96     1.082   .     S
C82    N105    1.368   .     A
C82    C147    1.416   .     S
C83    N104    1.367   .     A
C83    H97     1.082   .     S
C84    H98     1.082   .     S
C84    N104    1.367   .     A
C85    H99     1.082   .     S
C85    N105    1.367   .     A
C85    C148    1.416   .     S
C86    O111    1.289   .     A
C86    O110    1.289   .     A
C87    C89     1.479   .     S
C87    O113    1.297   .     A
C87    O112    1.296   .     A
C88    C645    1.408   1_554 S
C88    H676    1.081   1_554 S
C90    H101    1.084   .     S
C90    C91     1.394   .     A
C91    O125    1.380   .     S
C91    C668    1.392   .     S
C92    H102    1.076   .     S
C92    C642    1.420   1_554 S
C92    C667    1.392   1_554 S
Cu93   O106    1.957   .     S
Cu93   O110    1.957   .     S
Cu93   Cu94    2.677   .     S
Cu93   N104    2.012   .     S
Cu93   O108    1.957   .     S
Cu93   O112    1.942   .     S
Cu94   O109    1.942   .     S
Cu94   O113    1.957   .     S
Cu94   O107    1.957   .     S
Cu94   N105    2.012   .     S
Cu94   O111    1.957   .     S
H100   C664    1.081   .     S
O114   H115    0.992   .     S
O116   H117    0.990   .     S
O118   H119    0.989   .     S
C120   O122    1.221   .     D
C120   H121    1.084   .     S
O123   H124    0.993   .     S
O125   H126    0.992   .     S
O127   H128    0.988   .     S
C129   O171    1.289   .     A
C129   O170    1.289   .     A
C129   C145    1.446   .     S
C130   C131    1.417   .     A
C130   C708    1.428   .     S
C130   C732    1.420   .     S
C131   C138    1.419   .     A
C131   C135    1.416   .     A
C132   C136    1.419   .     A
C132   C706    1.428   1_554 S
C132   C709    1.424   1_554 S
C133   C134    1.415   .     A
C133   C708    1.424   .     S
C133   C728    1.408   .     S
C134   C135    1.409   .     A
C134   C184    1.487   .     S
C135   O191    1.385   .     S
C136   C153    1.416   .     A
C136   O187    1.377   .     S
C137   C153    1.405   .     A
C137   C152    1.398   .     A
C137   O178    1.383   .     S
C138   C154    1.400   .     A
C138   C140    1.466   .     S
C139   H167    1.084   .     S
C139   C145    1.397   .     A
C139   C333    1.380   .     S
C140   O172    1.294   .     A
C140   O173    1.294   .     A
C141   C142    1.397   .     A
C141   H159    1.084   .     S
C141   C523    1.380   1_545 S
C142   C143    1.416   .     A
C142   C150    1.445   .     S
C143   O180    1.383   .     S
C143   C528    1.394   1_545 S
C144   O182    1.382   .     S
C144   C145    1.416   .     A
C144   C335    1.394   .     S
C146   H160    1.082   .     S
C146   N169    1.368   .     A
C146   C19     1.416   1_655 S
C147   N168    1.367   .     A
C147   H161    1.082   .     S
C148   H162    1.082   .     S
C148   N168    1.367   .     A
C149   H163    1.082   .     S
C149   N169    1.367   .     A
C149   C20     1.416   1_655 S
C150   O175    1.289   .     A
C150   O174    1.289   .     A
C151   C153    1.479   .     S
C151   O177    1.297   .     A
C151   O176    1.296   .     A
C152   C709    1.408   1_554 S
C152   H740    1.081   1_554 S
C154   H165    1.084   .     S
C154   C155    1.394   .     A
C155   O189    1.380   .     S
C155   C732    1.392   .     S
C156   H166    1.076   .     S
C156   C706    1.420   1_554 S
C156   C731    1.392   1_554 S
Cu157  O170    1.957   .     S
Cu157  O174    1.957   .     S
Cu157  Cu158   2.677   .     S
Cu157  N168    2.012   .     S
Cu157  O172    1.957   .     S
Cu157  O176    1.942   .     S
Cu158  O173    1.942   .     S
Cu158  O177    1.957   .     S
Cu158  O171    1.957   .     S
Cu158  N169    2.012   .     S
Cu158  O175    1.957   .     S
H164   C728    1.081   .     S
O178   H179    0.992   .     S
O180   H181    0.990   .     S
O182   H183    0.989   .     S
C184   O186    1.221   .     D
C184   H185    1.084   .     S
O187   H188    0.993   .     S
O189   H190    0.992   .     S
O191   H192    0.988   .     S
C193   O235    1.289   .     A
C193   O234    1.289   .     A
C193   C209    1.446   .     S
C194   C195    1.417   .     A
C194   C772    1.428   .     S
C194   C796    1.420   .     S
C195   C202    1.419   .     A
C195   C199    1.416   .     A
C196   C200    1.419   .     A
C196   C770    1.428   1_554 S
C196   C773    1.424   1_554 S
C197   C198    1.415   .     A
C197   C772    1.424   .     S
C197   C792    1.408   .     S
C198   C199    1.409   .     A
C198   C248    1.487   .     S
C199   O255    1.385   .     S
C200   C217    1.416   .     A
C200   O251    1.377   .     S
C201   C217    1.405   .     A
C201   C216    1.398   .     A
C201   O242    1.383   .     S
C202   C218    1.400   .     A
C202   C204    1.466   .     S
C203   H231    1.084   .     S
C203   C209    1.397   .     A
C203   C397    1.380   .     S
C204   O236    1.294   .     A
C204   O237    1.294   .     A
C205   C206    1.397   .     A
C205   H223    1.084   .     S
C206   C207    1.416   .     A
C206   C214    1.445   .     S
C207   O244    1.383   .     S
C208   O246    1.382   .     S
C208   C209    1.416   .     A
C208   C399    1.394   .     S
C210   H224    1.082   .     S
C210   N233    1.368   .     A
C210   C275    1.416   .     S
C211   N232    1.367   .     A
C211   H225    1.082   .     S
C211   C338    1.416   1_455 S
C212   H226    1.082   .     S
C212   N232    1.367   .     A
C212   C341    1.416   1_455 S
C213   H227    1.082   .     S
C213   N233    1.367   .     A
C213   C276    1.416   .     S
C214   O239    1.289   .     A
C214   O238    1.289   .     A
C215   C217    1.479   .     S
C215   O241    1.297   .     A
C215   O240    1.296   .     A
C216   C773    1.408   1_554 S
C216   H804    1.081   1_554 S
C218   H229    1.084   .     S
C218   C219    1.394   .     A
C219   O253    1.380   .     S
C219   C796    1.392   .     S
C220   H230    1.076   .     S
C220   C770    1.420   1_554 S
C220   C795    1.392   1_554 S
Cu221  O234    1.957   .     S
Cu221  O238    1.957   .     S
Cu221  Cu222   2.677   .     S
Cu221  N232    2.012   .     S
Cu221  O236    1.957   .     S
Cu221  O240    1.942   .     S
Cu222  O237    1.942   .     S
Cu222  O241    1.957   .     S
Cu222  O235    1.957   .     S
Cu222  N233    2.012   .     S
Cu222  O239    1.957   .     S
H228   C792    1.081   .     S
O242   H243    0.992   .     S
O244   H245    0.990   .     S
O246   H247    0.989   .     S
C248   O250    1.221   .     D
C248   H249    1.084   .     S
O251   H252    0.993   .     S
O253   H254    0.992   .     S
O255   H256    0.988   .     S
C257   O299    1.289   .     A
C257   O298    1.289   .     A
C257   C273    1.446   .     S
C258   C259    1.417   .     A
C258   C836    1.428   .     S
C258   C860    1.420   .     S
C259   C266    1.419   .     A
C259   C263    1.416   .     A
C260   C264    1.419   .     A
C260   C834    1.428   1_554 S
C260   C837    1.424   1_554 S
C261   C262    1.415   .     A
C261   C836    1.424   .     S
C261   C856    1.408   .     S
C262   C263    1.409   .     A
C262   C312    1.487   .     S
C263   O319    1.385   .     S
C264   C281    1.416   .     A
C264   O315    1.377   .     S
C265   C281    1.405   .     A
C265   C280    1.398   .     A
C265   O306    1.383   .     S
C266   C282    1.400   .     A
C266   C268    1.466   .     S
C267   H295    1.084   .     S
C267   C273    1.397   .     A
C267   C461    1.380   .     S
C268   O300    1.294   .     A
C268   O301    1.294   .     A
C269   C270    1.397   .     A
C269   H287    1.084   .     S
C270   C271    1.416   .     A
C270   C278    1.445   .     S
C271   O308    1.383   .     S
C272   O310    1.382   .     S
C272   C273    1.416   .     A
C272   C463    1.394   .     S
C274   H288    1.082   .     S
C274   N297    1.368   .     A
C274   C339    1.416   .     S
C275   N296    1.367   .     A
C275   H289    1.082   .     S
C276   H290    1.082   .     S
C276   N296    1.367   .     A
C277   H291    1.082   .     S
C277   N297    1.367   .     A
C277   C340    1.416   .     S
C278   O303    1.289   .     A
C278   O302    1.289   .     A
C279   C281    1.479   .     S
C279   O305    1.297   .     A
C279   O304    1.296   .     A
C280   C837    1.408   1_554 S
C280   H868    1.081   1_554 S
C282   H293    1.084   .     S
C282   C283    1.394   .     A
C283   O317    1.380   .     S
C283   C860    1.392   .     S
C284   H294    1.076   .     S
C284   C834    1.420   1_554 S
C284   C859    1.392   1_554 S
Cu285  O298    1.957   .     S
Cu285  O302    1.957   .     S
Cu285  Cu286   2.677   .     S
Cu285  N296    2.012   .     S
Cu285  O300    1.957   .     S
Cu285  O304    1.942   .     S
Cu286  O301    1.942   .     S
Cu286  O305    1.957   .     S
Cu286  O299    1.957   .     S
Cu286  N297    2.012   .     S
Cu286  O303    1.957   .     S
H292   C856    1.081   .     S
O306   H307    0.992   .     S
O308   H309    0.990   .     S
O310   H311    0.989   .     S
C312   O314    1.221   .     D
C312   H313    1.084   .     S
O315   H316    0.993   .     S
O317   H318    0.992   .     S
O319   H320    0.988   .     S
C321   O363    1.289   .     A
C321   O362    1.289   .     A
C321   C337    1.446   .     S
C322   C323    1.417   .     A
C322   C900    1.428   .     S
C322   C924    1.420   .     S
C323   C330    1.419   .     A
C323   C327    1.416   .     A
C324   C328    1.419   .     A
C324   C898    1.428   1_554 S
C324   C901    1.424   1_554 S
C325   C326    1.415   .     A
C325   C900    1.424   .     S
C325   C920    1.408   .     S
C326   C327    1.409   .     A
C326   C376    1.487   .     S
C327   O383    1.385   .     S
C328   C345    1.416   .     A
C328   O379    1.377   .     S
C329   C345    1.405   .     A
C329   C344    1.398   .     A
C329   O370    1.383   .     S
C330   C346    1.400   .     A
C330   C332    1.466   .     S
C331   H359    1.084   .     S
C331   C337    1.397   .     A
C331   C525    1.380   .     S
C332   O364    1.294   .     A
C332   O365    1.294   .     A
C333   C334    1.397   .     A
C333   H351    1.084   .     S
C334   C335    1.416   .     A
C334   C342    1.445   .     S
C335   O372    1.383   .     S
C336   O374    1.382   .     S
C336   C337    1.416   .     A
C336   C527    1.394   .     S
C338   H352    1.082   .     S
C338   N361    1.368   .     A
C338   C211    1.416   1_655 S
C339   N360    1.367   .     A
C339   H353    1.082   .     S
C340   H354    1.082   .     S
C340   N360    1.367   .     A
C341   H355    1.082   .     S
C341   N361    1.367   .     A
C341   C212    1.416   1_655 S
C342   O367    1.289   .     A
C342   O366    1.289   .     A
C343   C345    1.479   .     S
C343   O369    1.297   .     A
C343   O368    1.296   .     A
C344   C901    1.408   1_554 S
C344   H932    1.081   1_554 S
C346   H357    1.084   .     S
C346   C347    1.394   .     A
C347   O381    1.380   .     S
C347   C924    1.392   .     S
C348   H358    1.076   .     S
C348   C898    1.420   1_554 S
C348   C923    1.392   1_554 S
Cu349  O362    1.957   .     S
Cu349  O366    1.957   .     S
Cu349  Cu350   2.677   .     S
Cu349  N360    2.012   .     S
Cu349  O364    1.957   .     S
Cu349  O368    1.942   .     S
Cu350  O365    1.942   .     S
Cu350  O369    1.957   .     S
Cu350  O363    1.957   .     S
Cu350  N361    2.012   .     S
Cu350  O367    1.957   .     S
H356   C920    1.081   .     S
O370   H371    0.992   .     S
O372   H373    0.990   .     S
O374   H375    0.989   .     S
C376   O378    1.221   .     D
C376   H377    1.084   .     S
O379   H380    0.993   .     S
O381   H382    0.992   .     S
O383   H384    0.988   .     S
C385   O427    1.289   .     A
C385   O426    1.289   .     A
C385   C401    1.446   .     S
C386   C387    1.417   .     A
C386   C964    1.428   .     S
C386   C988    1.420   .     S
C387   C394    1.419   .     A
C387   C391    1.416   .     A
C388   C392    1.419   .     A
C388   C962    1.428   1_554 S
C388   C965    1.424   1_554 S
C389   C390    1.415   .     A
C389   C964    1.424   .     S
C389   C984    1.408   .     S
C390   C391    1.409   .     A
C390   C440    1.487   .     S
C391   O447    1.385   .     S
C392   C409    1.416   .     A
C392   O443    1.377   .     S
C393   C409    1.405   .     A
C393   C408    1.398   .     A
C393   O434    1.383   .     S
C394   C410    1.400   .     A
C394   C396    1.466   .     S
C395   H423    1.084   .     S
C395   C401    1.397   .     A
C395   C13     1.380   1_565 S
C396   O428    1.294   .     A
C396   O429    1.294   .     A
C397   C398    1.397   .     A
C397   H415    1.084   .     S
C398   C399    1.416   .     A
C398   C406    1.445   .     S
C399   O436    1.383   .     S
C400   O438    1.382   .     S
C400   C401    1.416   .     A
C400   C15     1.394   1_565 S
C402   H416    1.082   .     S
C402   N425    1.368   .     A
C402   C467    1.416   .     S
C403   N424    1.367   .     A
C403   H417    1.082   .     S
C403   C530    1.416   1_455 S
C404   H418    1.082   .     S
C404   N424    1.367   .     A
C404   C533    1.416   1_455 S
C405   H419    1.082   .     S
C405   N425    1.367   .     A
C405   C468    1.416   .     S
C406   O431    1.289   .     A
C406   O430    1.289   .     A
C407   C409    1.479   .     S
C407   O433    1.297   .     A
C407   O432    1.296   .     A
C408   C965    1.408   1_554 S
C408   H996    1.081   1_554 S
C410   H421    1.084   .     S
C410   C411    1.394   .     A
C411   O445    1.380   .     S
C411   C988    1.392   .     S
C412   H422    1.076   .     S
C412   C962    1.420   1_554 S
C412   C987    1.392   1_554 S
Cu413  O426    1.957   .     S
Cu413  O430    1.957   .     S
Cu413  Cu414   2.677   .     S
Cu413  N424    2.012   .     S
Cu413  O428    1.957   .     S
Cu413  O432    1.942   .     S
Cu414  O429    1.942   .     S
Cu414  O433    1.957   .     S
Cu414  O427    1.957   .     S
Cu414  N425    2.012   .     S
Cu414  O431    1.957   .     S
H420   C984    1.081   .     S
O434   H435    0.992   .     S
O436   H437    0.990   .     S
O438   H439    0.989   .     S
C440   O442    1.221   .     D
C440   H441    1.084   .     S
O443   H444    0.993   .     S
O445   H446    0.992   .     S
O447   H448    0.988   .     S
C449   O491    1.289   .     A
C449   O490    1.289   .     A
C449   C465    1.446   .     S
C450   C451    1.417   .     A
C450   C1028   1.428   .     S
C450   C1052   1.420   .     S
C451   C458    1.419   .     A
C451   C455    1.416   .     A
C452   C456    1.419   .     A
C452   C1026   1.428   1_554 S
C452   C1029   1.424   1_554 S
C453   C454    1.415   .     A
C453   C1028   1.424   .     S
C453   C1048   1.408   .     S
C454   C455    1.409   .     A
C454   C504    1.487   .     S
C455   O511    1.385   .     S
C456   C473    1.416   .     A
C456   O507    1.377   .     S
C457   C473    1.405   .     A
C457   C472    1.398   .     A
C457   O498    1.383   .     S
C458   C474    1.400   .     A
C458   C460    1.466   .     S
C459   H487    1.084   .     S
C459   C465    1.397   .     A
C459   C77     1.380   1_565 S
C460   O492    1.294   .     A
C460   O493    1.294   .     A
C461   C462    1.397   .     A
C461   H479    1.084   .     S
C462   C463    1.416   .     A
C462   C470    1.445   .     S
C463   O500    1.383   .     S
C464   O502    1.382   .     S
C464   C465    1.416   .     A
C464   C79     1.394   1_565 S
C466   H480    1.082   .     S
C466   N489    1.368   .     A
C466   C531    1.416   .     S
C467   N488    1.367   .     A
C467   H481    1.082   .     S
C468   H482    1.082   .     S
C468   N488    1.367   .     A
C469   H483    1.082   .     S
C469   N489    1.367   .     A
C469   C532    1.416   .     S
C470   O495    1.289   .     A
C470   O494    1.289   .     A
C471   C473    1.479   .     S
C471   O497    1.297   .     A
C471   O496    1.296   .     A
C472   C1029   1.408   1_554 S
C472   H1060   1.081   1_554 S
C474   H485    1.084   .     S
C474   C475    1.394   .     A
C475   O509    1.380   .     S
C475   C1052   1.392   .     S
C476   H486    1.076   .     S
C476   C1026   1.420   1_554 S
C476   C1051   1.392   1_554 S
Cu477  O490    1.957   .     S
Cu477  O494    1.957   .     S
Cu477  Cu478   2.677   .     S
Cu477  N488    2.012   .     S
Cu477  O492    1.957   .     S
Cu477  O496    1.942   .     S
Cu478  O493    1.942   .     S
Cu478  O497    1.957   .     S
Cu478  O491    1.957   .     S
Cu478  N489    2.012   .     S
Cu478  O495    1.957   .     S
H484   C1048   1.081   .     S
O498   H499    0.992   .     S
O500   H501    0.990   .     S
O502   H503    0.989   .     S
C504   O506    1.221   .     D
C504   H505    1.084   .     S
O507   H508    0.993   .     S
O509   H510    0.992   .     S
O511   H512    0.988   .     S
C513   O555    1.289   .     A
C513   O554    1.289   .     A
C513   C529    1.446   .     S
C514   C515    1.417   .     A
C514   C1092   1.428   .     S
C514   C1116   1.420   .     S
C515   C522    1.419   .     A
C515   C519    1.416   .     A
C516   C520    1.419   .     A
C516   C1090   1.428   1_554 S
C516   C1093   1.424   1_554 S
C517   C518    1.415   .     A
C517   C1092   1.424   .     S
C517   C1112   1.408   .     S
C518   C519    1.409   .     A
C518   C568    1.487   .     S
C519   O575    1.385   .     S
C520   C537    1.416   .     A
C520   O571    1.377   .     S
C521   C537    1.405   .     A
C521   C536    1.398   .     A
C521   O562    1.383   .     S
C522   C538    1.400   .     A
C522   C524    1.466   .     S
C523   H551    1.084   .     S
C523   C529    1.397   .     A
C523   C141    1.380   1_565 S
C524   O556    1.294   .     A
C524   O557    1.294   .     A
C525   C526    1.397   .     A
C525   H543    1.084   .     S
C526   C527    1.416   .     A
C526   C534    1.445   .     S
C527   O564    1.383   .     S
C528   O566    1.382   .     S
C528   C529    1.416   .     A
C528   C143    1.394   1_565 S
C530   H544    1.082   .     S
C530   N553    1.368   .     A
C530   C403    1.416   1_655 S
C531   N552    1.367   .     A
C531   H545    1.082   .     S
C532   H546    1.082   .     S
C532   N552    1.367   .     A
C533   H547    1.082   .     S
C533   N553    1.367   .     A
C533   C404    1.416   1_655 S
C534   O559    1.289   .     A
C534   O558    1.289   .     A
C535   C537    1.479   .     S
C535   O561    1.297   .     A
C535   O560    1.296   .     A
C536   C1093   1.408   1_554 S
C536   H1124   1.081   1_554 S
C538   H549    1.084   .     S
C538   C539    1.394   .     A
C539   O573    1.380   .     S
C539   C1116   1.392   .     S
C540   H550    1.076   .     S
C540   C1090   1.420   1_554 S
C540   C1115   1.392   1_554 S
Cu541  O554    1.957   .     S
Cu541  O558    1.957   .     S
Cu541  Cu542   2.677   .     S
Cu541  N552    2.012   .     S
Cu541  O556    1.957   .     S
Cu541  O560    1.942   .     S
Cu542  O557    1.942   .     S
Cu542  O561    1.957   .     S
Cu542  O555    1.957   .     S
Cu542  N553    2.012   .     S
Cu542  O559    1.957   .     S
H548   C1112   1.081   .     S
O562   H563    0.992   .     S
O564   H565    0.990   .     S
O566   H567    0.989   .     S
C568   O570    1.221   .     D
C568   H569    1.084   .     S
O571   H572    0.993   .     S
O573   H574    0.992   .     S
O575   H576    0.988   .     S
C577   O619    1.289   .     A
C577   O618    1.289   .     A
C577   C593    1.446   .     S
C578   C579    1.417   .     A
C578   C4      1.428   1_556 S
C578   C28     1.420   1_556 S
C579   C586    1.419   .     A
C579   C583    1.416   .     A
C580   C584    1.419   .     A
C581   C582    1.415   .     A
C581   C4      1.424   1_556 S
C581   C24     1.408   1_556 S
C582   C583    1.409   .     A
C582   C632    1.487   .     S
C583   O639    1.385   .     S
C584   C601    1.416   .     A
C584   O635    1.377   .     S
C585   C601    1.405   .     A
C585   C600    1.398   .     A
C585   O626    1.383   .     S
C586   C602    1.400   .     A
C586   C588    1.466   .     S
C587   H615    1.084   .     S
C587   C593    1.397   .     A
C587   C781    1.380   .     S
C588   O620    1.294   .     A
C588   O621    1.294   .     A
C589   C590    1.397   .     A
C589   H607    1.084   .     S
C589   C971    1.380   1_545 S
C590   C591    1.416   .     A
C590   C598    1.445   .     S
C591   O628    1.383   .     S
C591   C976    1.394   1_545 S
C592   O630    1.382   .     S
C592   C593    1.416   .     A
C592   C783    1.394   .     S
C594   H608    1.082   .     S
C594   N617    1.368   .     A
C594   C659    1.416   .     S
C595   N616    1.367   .     A
C595   H609    1.082   .     S
C595   C722    1.416   1_455 S
C596   H610    1.082   .     S
C596   N616    1.367   .     A
C596   C725    1.416   1_455 S
C597   H611    1.082   .     S
C597   N617    1.367   .     A
C597   C660    1.416   .     S
C598   O623    1.289   .     A
C598   O622    1.289   .     A
C599   C601    1.479   .     S
C599   O625    1.297   .     A
C599   O624    1.296   .     A
C602   H613    1.084   .     S
C602   C603    1.394   .     A
C603   O637    1.380   .     S
C603   C28     1.392   1_556 S
C604   H614    1.076   .     S
Cu605  O618    1.957   .     S
Cu605  O622    1.957   .     S
Cu605  Cu606   2.677   .     S
Cu605  N616    2.012   .     S
Cu605  O620    1.957   .     S
Cu605  O624    1.942   .     S
Cu606  O621    1.942   .     S
Cu606  O625    1.957   .     S
Cu606  O619    1.957   .     S
Cu606  N617    2.012   .     S
Cu606  O623    1.957   .     S
H612   C24     1.081   1_556 S
O626   H627    0.992   .     S
O628   H629    0.990   .     S
O630   H631    0.989   .     S
C632   O634    1.221   .     D
C632   H633    1.084   .     S
O635   H636    0.993   .     S
O637   H638    0.992   .     S
O639   H640    0.988   .     S
C641   O683    1.289   .     A
C641   O682    1.289   .     A
C641   C657    1.446   .     S
C642   C643    1.417   .     A
C642   C68     1.428   1_556 S
C642   C92     1.420   1_556 S
C643   C650    1.419   .     A
C643   C647    1.416   .     A
C644   C648    1.419   .     A
C645   C646    1.415   .     A
C645   C68     1.424   1_556 S
C645   C88     1.408   1_556 S
C646   C647    1.409   .     A
C646   C696    1.487   .     S
C647   O703    1.385   .     S
C648   C665    1.416   .     A
C648   O699    1.377   .     S
C649   C665    1.405   .     A
C649   C664    1.398   .     A
C649   O690    1.383   .     S
C650   C666    1.400   .     A
C650   C652    1.466   .     S
C651   H679    1.084   .     S
C651   C657    1.397   .     A
C651   C845    1.380   .     S
C652   O684    1.294   .     A
C652   O685    1.294   .     A
C653   C654    1.397   .     A
C653   H671    1.084   .     S
C653   C1035   1.380   1_545 S
C654   C655    1.416   .     A
C654   C662    1.445   .     S
C655   O692    1.383   .     S
C655   C1040   1.394   1_545 S
C656   O694    1.382   .     S
C656   C657    1.416   .     A
C656   C847    1.394   .     S
C658   H672    1.082   .     S
C658   N681    1.368   .     A
C658   C723    1.416   .     S
C659   N680    1.367   .     A
C659   H673    1.082   .     S
C660   H674    1.082   .     S
C660   N680    1.367   .     A
C661   H675    1.082   .     S
C661   N681    1.367   .     A
C661   C724    1.416   .     S
C662   O687    1.289   .     A
C662   O686    1.289   .     A
C663   C665    1.479   .     S
C663   O689    1.297   .     A
C663   O688    1.296   .     A
C666   H677    1.084   .     S
C666   C667    1.394   .     A
C667   O701    1.380   .     S
C667   C92     1.392   1_556 S
C668   H678    1.076   .     S
Cu669  O682    1.957   .     S
Cu669  O686    1.957   .     S
Cu669  Cu670   2.677   .     S
Cu669  N680    2.012   .     S
Cu669  O684    1.957   .     S
Cu669  O688    1.942   .     S
Cu670  O685    1.942   .     S
Cu670  O689    1.957   .     S
Cu670  O683    1.957   .     S
Cu670  N681    2.012   .     S
Cu670  O687    1.957   .     S
H676   C88     1.081   1_556 S
O690   H691    0.992   .     S
O692   H693    0.990   .     S
O694   H695    0.989   .     S
C696   O698    1.221   .     D
C696   H697    1.084   .     S
O699   H700    0.993   .     S
O701   H702    0.992   .     S
O703   H704    0.988   .     S
C705   O747    1.289   .     A
C705   O746    1.289   .     A
C705   C721    1.446   .     S
C706   C707    1.417   .     A
C706   C132    1.428   1_556 S
C706   C156    1.420   1_556 S
C707   C714    1.419   .     A
C707   C711    1.416   .     A
C708   C712    1.419   .     A
C709   C710    1.415   .     A
C709   C132    1.424   1_556 S
C709   C152    1.408   1_556 S
C710   C711    1.409   .     A
C710   C760    1.487   .     S
C711   O767    1.385   .     S
C712   C729    1.416   .     A
C712   O763    1.377   .     S
C713   C729    1.405   .     A
C713   C728    1.398   .     A
C713   O754    1.383   .     S
C714   C730    1.400   .     A
C714   C716    1.466   .     S
C715   H743    1.084   .     S
C715   C721    1.397   .     A
C715   C909    1.380   .     S
C716   O748    1.294   .     A
C716   O749    1.294   .     A
C717   C718    1.397   .     A
C717   H735    1.084   .     S
C717   C1099   1.380   1_545 S
C718   C719    1.416   .     A
C718   C726    1.445   .     S
C719   O756    1.383   .     S
C719   C1104   1.394   1_545 S
C720   O758    1.382   .     S
C720   C721    1.416   .     A
C720   C911    1.394   .     S
C722   H736    1.082   .     S
C722   N745    1.368   .     A
C722   C595    1.416   1_655 S
C723   N744    1.367   .     A
C723   H737    1.082   .     S
C724   H738    1.082   .     S
C724   N744    1.367   .     A
C725   H739    1.082   .     S
C725   N745    1.367   .     A
C725   C596    1.416   1_655 S
C726   O751    1.289   .     A
C726   O750    1.289   .     A
C727   C729    1.479   .     S
C727   O753    1.297   .     A
C727   O752    1.296   .     A
C730   H741    1.084   .     S
C730   C731    1.394   .     A
C731   O765    1.380   .     S
C731   C156    1.392   1_556 S
C732   H742    1.076   .     S
Cu733  O746    1.957   .     S
Cu733  O750    1.957   .     S
Cu733  Cu734   2.677   .     S
Cu733  N744    2.012   .     S
Cu733  O748    1.957   .     S
Cu733  O752    1.942   .     S
Cu734  O749    1.942   .     S
Cu734  O753    1.957   .     S
Cu734  O747    1.957   .     S
Cu734  N745    2.012   .     S
Cu734  O751    1.957   .     S
H740   C152    1.081   1_556 S
O754   H755    0.992   .     S
O756   H757    0.990   .     S
O758   H759    0.989   .     S
C760   O762    1.221   .     D
C760   H761    1.084   .     S
O763   H764    0.993   .     S
O765   H766    0.992   .     S
O767   H768    0.988   .     S
C769   O811    1.289   .     A
C769   O810    1.289   .     A
C769   C785    1.446   .     S
C770   C771    1.417   .     A
C770   C196    1.428   1_556 S
C770   C220    1.420   1_556 S
C771   C778    1.419   .     A
C771   C775    1.416   .     A
C772   C776    1.419   .     A
C773   C774    1.415   .     A
C773   C196    1.424   1_556 S
C773   C216    1.408   1_556 S
C774   C775    1.409   .     A
C774   C824    1.487   .     S
C775   O831    1.385   .     S
C776   C793    1.416   .     A
C776   O827    1.377   .     S
C777   C793    1.405   .     A
C777   C792    1.398   .     A
C777   O818    1.383   .     S
C778   C794    1.400   .     A
C778   C780    1.466   .     S
C779   H807    1.084   .     S
C779   C785    1.397   .     A
C779   C973    1.380   .     S
C780   O812    1.294   .     A
C780   O813    1.294   .     A
C781   C782    1.397   .     A
C781   H799    1.084   .     S
C782   C783    1.416   .     A
C782   C790    1.445   .     S
C783   O820    1.383   .     S
C784   O822    1.382   .     S
C784   C785    1.416   .     A
C784   C975    1.394   .     S
C786   H800    1.082   .     S
C786   N809    1.368   .     A
C786   C851    1.416   .     S
C787   N808    1.367   .     A
C787   H801    1.082   .     S
C787   C914    1.416   1_455 S
C788   H802    1.082   .     S
C788   N808    1.367   .     A
C788   C917    1.416   1_455 S
C789   H803    1.082   .     S
C789   N809    1.367   .     A
C789   C852    1.416   .     S
C790   O815    1.289   .     A
C790   O814    1.289   .     A
C791   C793    1.479   .     S
C791   O817    1.297   .     A
C791   O816    1.296   .     A
C794   H805    1.084   .     S
C794   C795    1.394   .     A
C795   O829    1.380   .     S
C795   C220    1.392   1_556 S
C796   H806    1.076   .     S
Cu797  O810    1.957   .     S
Cu797  O814    1.957   .     S
Cu797  Cu798   2.677   .     S
Cu797  N808    2.012   .     S
Cu797  O812    1.957   .     S
Cu797  O816    1.942   .     S
Cu798  O813    1.942   .     S
Cu798  O817    1.957   .     S
Cu798  O811    1.957   .     S
Cu798  N809    2.012   .     S
Cu798  O815    1.957   .     S
H804   C216    1.081   1_556 S
O818   H819    0.992   .     S
O820   H821    0.990   .     S
O822   H823    0.989   .     S
C824   O826    1.221   .     D
C824   H825    1.084   .     S
O827   H828    0.993   .     S
O829   H830    0.992   .     S
O831   H832    0.988   .     S
C833   O875    1.289   .     A
C833   O874    1.289   .     A
C833   C849    1.446   .     S
C834   C835    1.417   .     A
C834   C260    1.428   1_556 S
C834   C284    1.420   1_556 S
C835   C842    1.419   .     A
C835   C839    1.416   .     A
C836   C840    1.419   .     A
C837   C838    1.415   .     A
C837   C260    1.424   1_556 S
C837   C280    1.408   1_556 S
C838   C839    1.409   .     A
C838   C888    1.487   .     S
C839   O895    1.385   .     S
C840   C857    1.416   .     A
C840   O891    1.377   .     S
C841   C857    1.405   .     A
C841   C856    1.398   .     A
C841   O882    1.383   .     S
C842   C858    1.400   .     A
C842   C844    1.466   .     S
C843   H871    1.084   .     S
C843   C849    1.397   .     A
C843   C1037   1.380   .     S
C844   O876    1.294   .     A
C844   O877    1.294   .     A
C845   C846    1.397   .     A
C845   H863    1.084   .     S
C846   C847    1.416   .     A
C846   C854    1.445   .     S
C847   O884    1.383   .     S
C848   O886    1.382   .     S
C848   C849    1.416   .     A
C848   C1039   1.394   .     S
C850   H864    1.082   .     S
C850   N873    1.368   .     A
C850   C915    1.416   .     S
C851   N872    1.367   .     A
C851   H865    1.082   .     S
C852   H866    1.082   .     S
C852   N872    1.367   .     A
C853   H867    1.082   .     S
C853   N873    1.367   .     A
C853   C916    1.416   .     S
C854   O879    1.289   .     A
C854   O878    1.289   .     A
C855   C857    1.479   .     S
C855   O881    1.297   .     A
C855   O880    1.296   .     A
C858   H869    1.084   .     S
C858   C859    1.394   .     A
C859   O893    1.380   .     S
C859   C284    1.392   1_556 S
C860   H870    1.076   .     S
Cu861  O874    1.957   .     S
Cu861  O878    1.957   .     S
Cu861  Cu862   2.677   .     S
Cu861  N872    2.012   .     S
Cu861  O876    1.957   .     S
Cu861  O880    1.942   .     S
Cu862  O877    1.942   .     S
Cu862  O881    1.957   .     S
Cu862  O875    1.957   .     S
Cu862  N873    2.012   .     S
Cu862  O879    1.957   .     S
H868   C280    1.081   1_556 S
O882   H883    0.992   .     S
O884   H885    0.990   .     S
O886   H887    0.989   .     S
C888   O890    1.221   .     D
C888   H889    1.084   .     S
O891   H892    0.993   .     S
O893   H894    0.992   .     S
O895   H896    0.988   .     S
C897   O939    1.289   .     A
C897   O938    1.289   .     A
C897   C913    1.446   .     S
C898   C899    1.417   .     A
C898   C324    1.428   1_556 S
C898   C348    1.420   1_556 S
C899   C906    1.419   .     A
C899   C903    1.416   .     A
C900   C904    1.419   .     A
C901   C902    1.415   .     A
C901   C324    1.424   1_556 S
C901   C344    1.408   1_556 S
C902   C903    1.409   .     A
C902   C952    1.487   .     S
C903   O959    1.385   .     S
C904   C921    1.416   .     A
C904   O955    1.377   .     S
C905   C921    1.405   .     A
C905   C920    1.398   .     A
C905   O946    1.383   .     S
C906   C922    1.400   .     A
C906   C908    1.466   .     S
C907   H935    1.084   .     S
C907   C913    1.397   .     A
C907   C1101   1.380   .     S
C908   O940    1.294   .     A
C908   O941    1.294   .     A
C909   C910    1.397   .     A
C909   H927    1.084   .     S
C910   C911    1.416   .     A
C910   C918    1.445   .     S
C911   O948    1.383   .     S
C912   O950    1.382   .     S
C912   C913    1.416   .     A
C912   C1103   1.394   .     S
C914   H928    1.082   .     S
C914   N937    1.368   .     A
C914   C787    1.416   1_655 S
C915   N936    1.367   .     A
C915   H929    1.082   .     S
C916   H930    1.082   .     S
C916   N936    1.367   .     A
C917   H931    1.082   .     S
C917   N937    1.367   .     A
C917   C788    1.416   1_655 S
C918   O943    1.289   .     A
C918   O942    1.289   .     A
C919   C921    1.479   .     S
C919   O945    1.297   .     A
C919   O944    1.296   .     A
C922   H933    1.084   .     S
C922   C923    1.394   .     A
C923   O957    1.380   .     S
C923   C348    1.392   1_556 S
C924   H934    1.076   .     S
Cu925  O938    1.957   .     S
Cu925  O942    1.957   .     S
Cu925  Cu926   2.677   .     S
Cu925  N936    2.012   .     S
Cu925  O940    1.957   .     S
Cu925  O944    1.942   .     S
Cu926  O941    1.942   .     S
Cu926  O945    1.957   .     S
Cu926  O939    1.957   .     S
Cu926  N937    2.012   .     S
Cu926  O943    1.957   .     S
H932   C344    1.081   1_556 S
O946   H947    0.992   .     S
O948   H949    0.990   .     S
O950   H951    0.989   .     S
C952   O954    1.221   .     D
C952   H953    1.084   .     S
O955   H956    0.993   .     S
O957   H958    0.992   .     S
O959   H960    0.988   .     S
C961   O1003   1.289   .     A
C961   O1002   1.289   .     A
C961   C977    1.446   .     S
C962   C963    1.417   .     A
C962   C388    1.428   1_556 S
C962   C412    1.420   1_556 S
C963   C970    1.419   .     A
C963   C967    1.416   .     A
C964   C968    1.419   .     A
C965   C966    1.415   .     A
C965   C388    1.424   1_556 S
C965   C408    1.408   1_556 S
C966   C967    1.409   .     A
C966   C1016   1.487   .     S
C967   O1023   1.385   .     S
C968   C985    1.416   .     A
C968   O1019   1.377   .     S
C969   C985    1.405   .     A
C969   C984    1.398   .     A
C969   O1010   1.383   .     S
C970   C986    1.400   .     A
C970   C972    1.466   .     S
C971   H999    1.084   .     S
C971   C977    1.397   .     A
C971   C589    1.380   1_565 S
C972   O1004   1.294   .     A
C972   O1005   1.294   .     A
C973   C974    1.397   .     A
C973   H991    1.084   .     S
C974   C975    1.416   .     A
C974   C982    1.445   .     S
C975   O1012   1.383   .     S
C976   O1014   1.382   .     S
C976   C977    1.416   .     A
C976   C591    1.394   1_565 S
C978   H992    1.082   .     S
C978   N1001   1.368   .     A
C978   C1043   1.416   .     S
C979   N1000   1.367   .     A
C979   H993    1.082   .     S
C979   C1106   1.416   1_455 S
C980   H994    1.082   .     S
C980   N1000   1.367   .     A
C980   C1109   1.416   1_455 S
C981   H995    1.082   .     S
C981   N1001   1.367   .     A
C981   C1044   1.416   .     S
C982   O1007   1.289   .     A
C982   O1006   1.289   .     A
C983   C985    1.479   .     S
C983   O1009   1.297   .     A
C983   O1008   1.296   .     A
C986   H997    1.084   .     S
C986   C987    1.394   .     A
C987   O1021   1.380   .     S
C987   C412    1.392   1_556 S
C988   H998    1.076   .     S
Cu989  O1002   1.957   .     S
Cu989  O1006   1.957   .     S
Cu989  Cu990   2.677   .     S
Cu989  N1000   2.012   .     S
Cu989  O1004   1.957   .     S
Cu989  O1008   1.942   .     S
Cu990  O1005   1.942   .     S
Cu990  O1009   1.957   .     S
Cu990  O1003   1.957   .     S
Cu990  N1001   2.012   .     S
Cu990  O1007   1.957   .     S
H996   C408    1.081   1_556 S
O1010  H1011   0.992   .     S
O1012  H1013   0.990   .     S
O1014  H1015   0.989   .     S
C1016  O1018   1.221   .     D
C1016  H1017   1.084   .     S
O1019  H1020   0.993   .     S
O1021  H1022   0.992   .     S
O1023  H1024   0.988   .     S
C1025  O1067   1.289   .     A
C1025  O1066   1.289   .     A
C1025  C1041   1.446   .     S
C1026  C1027   1.417   .     A
C1026  C452    1.428   1_556 S
C1026  C476    1.420   1_556 S
C1027  C1034   1.419   .     A
C1027  C1031   1.416   .     A
C1028  C1032   1.419   .     A
C1029  C1030   1.415   .     A
C1029  C452    1.424   1_556 S
C1029  C472    1.408   1_556 S
C1030  C1031   1.409   .     A
C1030  C1080   1.487   .     S
C1031  O1087   1.385   .     S
C1032  C1049   1.416   .     A
C1032  O1083   1.377   .     S
C1033  C1049   1.405   .     A
C1033  C1048   1.398   .     A
C1033  O1074   1.383   .     S
C1034  C1050   1.400   .     A
C1034  C1036   1.466   .     S
C1035  H1063   1.084   .     S
C1035  C1041   1.397   .     A
C1035  C653    1.380   1_565 S
C1036  O1068   1.294   .     A
C1036  O1069   1.294   .     A
C1037  C1038   1.397   .     A
C1037  H1055   1.084   .     S
C1038  C1039   1.416   .     A
C1038  C1046   1.445   .     S
C1039  O1076   1.383   .     S
C1040  O1078   1.382   .     S
C1040  C1041   1.416   .     A
C1040  C655    1.394   1_565 S
C1042  H1056   1.082   .     S
C1042  N1065   1.368   .     A
C1042  C1107   1.416   .     S
C1043  N1064   1.367   .     A
C1043  H1057   1.082   .     S
C1044  H1058   1.082   .     S
C1044  N1064   1.367   .     A
C1045  H1059   1.082   .     S
C1045  N1065   1.367   .     A
C1045  C1108   1.416   .     S
C1046  O1071   1.289   .     A
C1046  O1070   1.289   .     A
C1047  C1049   1.479   .     S
C1047  O1073   1.297   .     A
C1047  O1072   1.296   .     A
C1050  H1061   1.084   .     S
C1050  C1051   1.394   .     A
C1051  O1085   1.380   .     S
C1051  C476    1.392   1_556 S
C1052  H1062   1.076   .     S
Cu1053 O1066   1.957   .     S
Cu1053 O1070   1.957   .     S
Cu1053 Cu1054  2.677   .     S
Cu1053 N1064   2.012   .     S
Cu1053 O1068   1.957   .     S
Cu1053 O1072   1.942   .     S
Cu1054 O1069   1.942   .     S
Cu1054 O1073   1.957   .     S
Cu1054 O1067   1.957   .     S
Cu1054 N1065   2.012   .     S
Cu1054 O1071   1.957   .     S
H1060  C472    1.081   1_556 S
O1074  H1075   0.992   .     S
O1076  H1077   0.990   .     S
O1078  H1079   0.989   .     S
C1080  O1082   1.221   .     D
C1080  H1081   1.084   .     S
O1083  H1084   0.993   .     S
O1085  H1086   0.992   .     S
O1087  H1088   0.988   .     S
C1089  O1131   1.289   .     A
C1089  O1130   1.289   .     A
C1089  C1105   1.446   .     S
C1090  C1091   1.417   .     A
C1090  C516    1.428   1_556 S
C1090  C540    1.420   1_556 S
C1091  C1098   1.419   .     A
C1091  C1095   1.416   .     A
C1092  C1096   1.419   .     A
C1093  C1094   1.415   .     A
C1093  C516    1.424   1_556 S
C1093  C536    1.408   1_556 S
C1094  C1095   1.409   .     A
C1094  C1144   1.487   .     S
C1095  O1151   1.385   .     S
C1096  C1113   1.416   .     A
C1096  O1147   1.377   .     S
C1097  C1113   1.405   .     A
C1097  C1112   1.398   .     A
C1097  O1138   1.383   .     S
C1098  C1114   1.400   .     A
C1098  C1100   1.466   .     S
C1099  H1127   1.084   .     S
C1099  C1105   1.397   .     A
C1099  C717    1.380   1_565 S
C1100  O1132   1.294   .     A
C1100  O1133   1.294   .     A
C1101  C1102   1.397   .     A
C1101  H1119   1.084   .     S
C1102  C1103   1.416   .     A
C1102  C1110   1.445   .     S
C1103  O1140   1.383   .     S
C1104  O1142   1.382   .     S
C1104  C1105   1.416   .     A
C1104  C719    1.394   1_565 S
C1106  H1120   1.082   .     S
C1106  N1129   1.368   .     A
C1106  C979    1.416   1_655 S
C1107  N1128   1.367   .     A
C1107  H1121   1.082   .     S
C1108  H1122   1.082   .     S
C1108  N1128   1.367   .     A
C1109  H1123   1.082   .     S
C1109  N1129   1.367   .     A
C1109  C980    1.416   1_655 S
C1110  O1135   1.289   .     A
C1110  O1134   1.289   .     A
C1111  C1113   1.479   .     S
C1111  O1137   1.297   .     A
C1111  O1136   1.296   .     A
C1114  H1125   1.084   .     S
C1114  C1115   1.394   .     A
C1115  O1149   1.380   .     S
C1115  C540    1.392   1_556 S
C1116  H1126   1.076   .     S
Cu1117 O1130   1.957   .     S
Cu1117 O1134   1.957   .     S
Cu1117 Cu1118  2.677   .     S
Cu1117 N1128   2.012   .     S
Cu1117 O1132   1.957   .     S
Cu1117 O1136   1.942   .     S
Cu1118 O1133   1.942   .     S
Cu1118 O1137   1.957   .     S
Cu1118 O1131   1.957   .     S
Cu1118 N1129   2.012   .     S
Cu1118 O1135   1.957   .     S
H1124  C536    1.081   1_556 S
O1138  H1139   0.992   .     S
O1140  H1141   0.990   .     S
O1142  H1143   0.989   .     S
C1144  O1146   1.221   .     D
C1144  H1145   1.084   .     S
O1147  H1148   0.993   .     S
O1149  H1150   0.992   .     S
O1151  H1152   0.988   .     S
