data_str_m2_o10_o16_pcu_sym.33
_audit_creation_date              2020-01-03
_audit_creation_method            'Materials Studio'
_symmetry_space_group_name_H-M    'P1'
_symmetry_Int_Tables_number       1
_symmetry_cell_setting            triclinic
loop_
_symmetry_equiv_pos_as_xyz
  x,y,z
_cell_length_a                    22.2596
_cell_length_b                    26.0356
_cell_length_c                    26.7141
_cell_angle_alpha                 93.9708
_cell_angle_beta                  77.0126
_cell_angle_gamma                 103.2542
loop_
_atom_site_label
_atom_site_type_symbol
_atom_site_fract_x
_atom_site_fract_y
_atom_site_fract_z
_atom_site_U_iso_or_equiv
_atom_site_adp_type
_atom_site_occupancy
C1     C     0.18184   0.26676   0.25144   0.00000  Uiso   1.00
C2     C     0.11116   0.16485   0.40421   0.00000  Uiso   1.00
C3     C     0.19048   0.32274   0.25184   0.00000  Uiso   1.00
C4     C     0.13276   0.16563   0.34750   0.00000  Uiso   1.00
C5     C     0.14286   0.01058   0.24800   0.00000  Uiso   1.00
C6     C     0.15149   0.06657   0.24855   0.00000  Uiso   1.00
C7     C     0.20079   0.17016   0.15281   0.00000  Uiso   1.00
C8     C     0.29021   0.23341   0.02822   0.00000  Uiso   1.00
C9     C     0.22196   0.17933   0.09754   0.00000  Uiso   1.00
C10    C     0.04848   0.13930   0.42671   0.00000  Uiso   1.00
C11    C     0.03076   0.13309   0.47992   0.00000  Uiso   1.00
C12    C     0.13921   0.16960   0.48839   0.00000  Uiso   1.00
C13    C     0.07548   0.14679   0.01015   0.00000  Uiso   1.00
C14    C     0.15580   0.06842   0.06038   0.00000  Uiso   1.00
C15    C     0.10459   0.01926   0.07686   0.00000  Uiso   1.00
C16    C     0.31769   0.06925   0.39495   0.00000  Uiso   1.00
C17    C     0.27544   0.05370   0.35638   0.00000  Uiso   1.00
C18    C     0.15468   0.18484   0.43636   0.00000  Uiso   1.00
C19    C     0.18708   0.18125   0.01761   0.00000  Uiso   1.00
C20    C     0.24482   0.21726   0.49810   0.00000  Uiso   1.00
C21    C     0.25610   0.23763   0.44915   0.00000  Uiso   1.00
C22    C     0.21214   0.22134   0.41853   0.00000  Uiso   1.00
C23    C     0.18011   0.15787   0.06542   0.00000  Uiso   1.00
C24    C     0.27793   0.21584   0.07832   0.00000  Uiso   1.00
Cu25   Cu    0.10710   0.16105   0.24435   0.00000  Uiso   1.00
Cu26   Cu    0.22623   0.17228   0.25564   0.00000  Uiso   1.00
H27    H     0.31099   0.23215   0.10255   0.00000  Uiso   1.00
H28    H     0.09696   0.32003   0.24448   0.00000  Uiso   1.00
H29    H     0.19837   0.06576   0.07460   0.00000  Uiso   1.00
H30    H     0.16770   0.06908   0.01756   0.00000  Uiso   1.00
H31    H     0.06164   0.02052   0.06278   0.00000  Uiso   1.00
H32    H     0.12169   0.31682   0.06054   0.00000  Uiso   1.00
H33    H     0.09232   0.01693   0.11943   0.00000  Uiso   1.00
H34    H     0.29024   0.05345   0.43299   0.00000  Uiso   1.00
H35    H     0.02599   0.05084   0.38212   0.00000  Uiso   1.00
H36    H     0.30180   0.06826   0.31774   0.00000  Uiso   1.00
H37    H     0.25995   0.01005   0.35431   0.00000  Uiso   1.00
H38    H     0.00351   0.20579   0.28984   0.00000  Uiso   1.00
H39    H     0.23306   0.07102   0.36824   0.00000  Uiso   1.00
H40    H     0.32975   0.12743   0.21027   0.00000  Uiso   1.00
H41    H     0.29934   0.26610   0.43426   0.00000  Uiso   1.00
H42    H     0.00066   0.26144   0.01379   0.00000  Uiso   1.00
H43    H     0.05819   0.14223   0.05104   0.00000  Uiso   1.00
H44    H     0.31527   0.11705   0.49802   0.00000  Uiso   1.00
H45    H     0.22260   0.23990   0.38169   0.00000  Uiso   1.00
H46    H     0.23642   0.01330   0.25518   0.00000  Uiso   1.00
N47    N     0.31574   0.18074   0.26416   0.00000  Uiso   1.00
N48    N     0.01759   0.15259   0.23584   0.00000  Uiso   1.00
O49    O     0.12797   0.23807   0.24633   0.00000  Uiso   1.00
O50    O     0.00326   0.12484   0.39721   0.00000  Uiso   1.00
O51    O     0.22858   0.24755   0.25586   0.00000  Uiso   1.00
O52    O     0.09181   0.15960   0.31839   0.00000  Uiso   1.00
O53    O     0.19242   0.16908   0.32793   0.00000  Uiso   1.00
O54    O     0.10476   0.08578   0.24413   0.00000  Uiso   1.00
O55    O     0.20536   0.09526   0.25367   0.00000  Uiso   1.00
O56    O     0.14092   0.16425   0.17207   0.00000  Uiso   1.00
O57    O     0.24152   0.17373   0.18160   0.00000  Uiso   1.00
O58    O     0.13332   0.11352   0.08129   0.00000  Uiso   1.00
C59    C     0.51517   0.26676   0.25144   0.00000  Uiso   1.00
C60    C     0.44450   0.16485   0.40421   0.00000  Uiso   1.00
C61    C     0.52381   0.32274   0.25184   0.00000  Uiso   1.00
C62    C     0.46609   0.16563   0.34750   0.00000  Uiso   1.00
C63    C     0.47620   0.01058   0.24800   0.00000  Uiso   1.00
C64    C     0.48483   0.06657   0.24855   0.00000  Uiso   1.00
C65    C     0.53413   0.17016   0.15281   0.00000  Uiso   1.00
C66    C     0.62355   0.23341   0.02822   0.00000  Uiso   1.00
C67    C     0.55529   0.17933   0.09754   0.00000  Uiso   1.00
C68    C     0.38182   0.13930   0.42671   0.00000  Uiso   1.00
C69    C     0.36410   0.13309   0.47992   0.00000  Uiso   1.00
C70    C     0.47254   0.16960   0.48839   0.00000  Uiso   1.00
C71    C     0.40882   0.14679   0.01015   0.00000  Uiso   1.00
C72    C     0.48913   0.06842   0.06038   0.00000  Uiso   1.00
C73    C     0.43792   0.01926   0.07686   0.00000  Uiso   1.00
C74    C     0.65102   0.06925   0.39495   0.00000  Uiso   1.00
C75    C     0.60877   0.05370   0.35638   0.00000  Uiso   1.00
C76    C     0.48802   0.18484   0.43636   0.00000  Uiso   1.00
C77    C     0.52042   0.18125   0.01761   0.00000  Uiso   1.00
C78    C     0.57815   0.21726   0.49810   0.00000  Uiso   1.00
C79    C     0.58943   0.23763   0.44915   0.00000  Uiso   1.00
C80    C     0.54547   0.22134   0.41853   0.00000  Uiso   1.00
C81    C     0.51344   0.15787   0.06542   0.00000  Uiso   1.00
C82    C     0.61126   0.21584   0.07832   0.00000  Uiso   1.00
Cu83   Cu    0.44043   0.16105   0.24435   0.00000  Uiso   1.00
Cu84   Cu    0.55957   0.17228   0.25564   0.00000  Uiso   1.00
H85    H     0.64432   0.23215   0.10255   0.00000  Uiso   1.00
H86    H     0.43030   0.32003   0.24448   0.00000  Uiso   1.00
H87    H     0.53170   0.06576   0.07460   0.00000  Uiso   1.00
H88    H     0.50103   0.06908   0.01756   0.00000  Uiso   1.00
H89    H     0.39497   0.02052   0.06278   0.00000  Uiso   1.00
H90    H     0.45503   0.31682   0.06054   0.00000  Uiso   1.00
H91    H     0.42566   0.01693   0.11943   0.00000  Uiso   1.00
H92    H     0.62358   0.05345   0.43299   0.00000  Uiso   1.00
H93    H     0.35933   0.05084   0.38212   0.00000  Uiso   1.00
H94    H     0.63513   0.06826   0.31774   0.00000  Uiso   1.00
H95    H     0.59328   0.01005   0.35431   0.00000  Uiso   1.00
H96    H     0.33685   0.20579   0.28984   0.00000  Uiso   1.00
H97    H     0.56639   0.07102   0.36824   0.00000  Uiso   1.00
H98    H     0.66309   0.12743   0.21027   0.00000  Uiso   1.00
H99    H     0.63267   0.26610   0.43426   0.00000  Uiso   1.00
H100   H     0.33400   0.26144   0.01379   0.00000  Uiso   1.00
H101   H     0.39152   0.14223   0.05104   0.00000  Uiso   1.00
H102   H     0.64860   0.11705   0.49802   0.00000  Uiso   1.00
H103   H     0.55594   0.23990   0.38169   0.00000  Uiso   1.00
H104   H     0.56975   0.01330   0.25518   0.00000  Uiso   1.00
N105   N     0.64908   0.18074   0.26416   0.00000  Uiso   1.00
N106   N     0.35092   0.15259   0.23584   0.00000  Uiso   1.00
O107   O     0.46131   0.23807   0.24633   0.00000  Uiso   1.00
O108   O     0.33659   0.12484   0.39721   0.00000  Uiso   1.00
O109   O     0.56191   0.24755   0.25586   0.00000  Uiso   1.00
O110   O     0.42515   0.15960   0.31839   0.00000  Uiso   1.00
O111   O     0.52575   0.16908   0.32793   0.00000  Uiso   1.00
O112   O     0.43809   0.08578   0.24413   0.00000  Uiso   1.00
O113   O     0.53869   0.09526   0.25367   0.00000  Uiso   1.00
O114   O     0.47425   0.16425   0.17207   0.00000  Uiso   1.00
O115   O     0.57485   0.17373   0.18160   0.00000  Uiso   1.00
O116   O     0.46665   0.11352   0.08129   0.00000  Uiso   1.00
C117   C     0.84851   0.26676   0.25144   0.00000  Uiso   1.00
C118   C     0.77783   0.16485   0.40421   0.00000  Uiso   1.00
C119   C     0.85715   0.32274   0.25184   0.00000  Uiso   1.00
C120   C     0.79942   0.16563   0.34750   0.00000  Uiso   1.00
C121   C     0.80953   0.01058   0.24800   0.00000  Uiso   1.00
C122   C     0.81816   0.06657   0.24855   0.00000  Uiso   1.00
C123   C     0.86746   0.17016   0.15281   0.00000  Uiso   1.00
C124   C     0.95688   0.23341   0.02822   0.00000  Uiso   1.00
C125   C     0.88863   0.17933   0.09754   0.00000  Uiso   1.00
C126   C     0.71515   0.13930   0.42671   0.00000  Uiso   1.00
C127   C     0.69743   0.13309   0.47992   0.00000  Uiso   1.00
C128   C     0.80587   0.16960   0.48839   0.00000  Uiso   1.00
C129   C     0.74215   0.14679   0.01015   0.00000  Uiso   1.00
C130   C     0.82246   0.06842   0.06038   0.00000  Uiso   1.00
C131   C     0.77125   0.01926   0.07686   0.00000  Uiso   1.00
C132   C     0.98436   0.06925   0.39495   0.00000  Uiso   1.00
C133   C     0.94211   0.05370   0.35638   0.00000  Uiso   1.00
C134   C     0.82135   0.18484   0.43636   0.00000  Uiso   1.00
C135   C     0.85375   0.18125   0.01761   0.00000  Uiso   1.00
C136   C     0.91149   0.21726   0.49810   0.00000  Uiso   1.00
C137   C     0.92276   0.23763   0.44915   0.00000  Uiso   1.00
C138   C     0.87880   0.22134   0.41853   0.00000  Uiso   1.00
C139   C     0.84677   0.15787   0.06542   0.00000  Uiso   1.00
C140   C     0.94460   0.21584   0.07832   0.00000  Uiso   1.00
Cu141  Cu    0.77377   0.16105   0.24435   0.00000  Uiso   1.00
Cu142  Cu    0.89290   0.17228   0.25564   0.00000  Uiso   1.00
H143   H     0.97766   0.23215   0.10255   0.00000  Uiso   1.00
H144   H     0.76363   0.32003   0.24448   0.00000  Uiso   1.00
H145   H     0.86503   0.06576   0.07460   0.00000  Uiso   1.00
H146   H     0.83436   0.06908   0.01756   0.00000  Uiso   1.00
H147   H     0.72830   0.02052   0.06278   0.00000  Uiso   1.00
H148   H     0.78836   0.31682   0.06054   0.00000  Uiso   1.00
H149   H     0.75899   0.01693   0.11943   0.00000  Uiso   1.00
H150   H     0.95691   0.05345   0.43299   0.00000  Uiso   1.00
H151   H     0.69266   0.05084   0.38212   0.00000  Uiso   1.00
H152   H     0.96847   0.06826   0.31774   0.00000  Uiso   1.00
H153   H     0.92662   0.01005   0.35431   0.00000  Uiso   1.00
H154   H     0.67018   0.20579   0.28984   0.00000  Uiso   1.00
H155   H     0.89973   0.07102   0.36824   0.00000  Uiso   1.00
H156   H     0.99642   0.12743   0.21027   0.00000  Uiso   1.00
H157   H     0.96600   0.26610   0.43426   0.00000  Uiso   1.00
H158   H     0.66733   0.26144   0.01379   0.00000  Uiso   1.00
H159   H     0.72485   0.14223   0.05104   0.00000  Uiso   1.00
H160   H     0.98193   0.11705   0.49802   0.00000  Uiso   1.00
H161   H     0.88927   0.23990   0.38169   0.00000  Uiso   1.00
H162   H     0.90308   0.01330   0.25518   0.00000  Uiso   1.00
N163   N     0.98241   0.18074   0.26416   0.00000  Uiso   1.00
N164   N     0.68426   0.15259   0.23584   0.00000  Uiso   1.00
O165   O     0.79464   0.23807   0.24633   0.00000  Uiso   1.00
O166   O     0.66992   0.12484   0.39721   0.00000  Uiso   1.00
O167   O     0.89524   0.24755   0.25586   0.00000  Uiso   1.00
O168   O     0.75848   0.15960   0.31839   0.00000  Uiso   1.00
O169   O     0.85908   0.16908   0.32793   0.00000  Uiso   1.00
O170   O     0.77142   0.08578   0.24413   0.00000  Uiso   1.00
O171   O     0.87203   0.09526   0.25367   0.00000  Uiso   1.00
O172   O     0.80758   0.16425   0.17207   0.00000  Uiso   1.00
O173   O     0.90819   0.17373   0.18160   0.00000  Uiso   1.00
O174   O     0.79998   0.11352   0.08129   0.00000  Uiso   1.00
C175   C     0.18184   0.60010   0.25144   0.00000  Uiso   1.00
C176   C     0.11116   0.49819   0.40421   0.00000  Uiso   1.00
C177   C     0.19048   0.65608   0.25184   0.00000  Uiso   1.00
C178   C     0.13276   0.49896   0.34750   0.00000  Uiso   1.00
C179   C     0.14286   0.34392   0.24800   0.00000  Uiso   1.00
C180   C     0.15149   0.39991   0.24855   0.00000  Uiso   1.00
C181   C     0.20079   0.50349   0.15281   0.00000  Uiso   1.00
C182   C     0.29021   0.56674   0.02822   0.00000  Uiso   1.00
C183   C     0.22196   0.51267   0.09754   0.00000  Uiso   1.00
C184   C     0.04848   0.47264   0.42671   0.00000  Uiso   1.00
C185   C     0.03076   0.46643   0.47992   0.00000  Uiso   1.00
C186   C     0.13921   0.50294   0.48839   0.00000  Uiso   1.00
C187   C     0.07548   0.48012   0.01015   0.00000  Uiso   1.00
C188   C     0.15580   0.40175   0.06038   0.00000  Uiso   1.00
C189   C     0.10459   0.35259   0.07686   0.00000  Uiso   1.00
C190   C     0.31769   0.40259   0.39495   0.00000  Uiso   1.00
C191   C     0.27544   0.38703   0.35638   0.00000  Uiso   1.00
C192   C     0.15468   0.51818   0.43636   0.00000  Uiso   1.00
C193   C     0.18708   0.51458   0.01761   0.00000  Uiso   1.00
C194   C     0.24482   0.55059   0.49810   0.00000  Uiso   1.00
C195   C     0.25610   0.57097   0.44915   0.00000  Uiso   1.00
C196   C     0.21214   0.55467   0.41853   0.00000  Uiso   1.00
C197   C     0.18011   0.49121   0.06542   0.00000  Uiso   1.00
C198   C     0.27793   0.54917   0.07832   0.00000  Uiso   1.00
Cu199  Cu    0.10710   0.49439   0.24435   0.00000  Uiso   1.00
Cu200  Cu    0.22623   0.50561   0.25564   0.00000  Uiso   1.00
H201   H     0.31099   0.56549   0.10255   0.00000  Uiso   1.00
H202   H     0.09696   0.65336   0.24448   0.00000  Uiso   1.00
H203   H     0.19837   0.39909   0.07460   0.00000  Uiso   1.00
H204   H     0.16770   0.40241   0.01756   0.00000  Uiso   1.00
H205   H     0.06164   0.35386   0.06278   0.00000  Uiso   1.00
H206   H     0.12169   0.65016   0.06054   0.00000  Uiso   1.00
H207   H     0.09232   0.35026   0.11943   0.00000  Uiso   1.00
H208   H     0.29024   0.38678   0.43299   0.00000  Uiso   1.00
H209   H     0.02599   0.38417   0.38212   0.00000  Uiso   1.00
H210   H     0.30180   0.40160   0.31774   0.00000  Uiso   1.00
H211   H     0.25995   0.34339   0.35431   0.00000  Uiso   1.00
H212   H     0.00351   0.53912   0.28984   0.00000  Uiso   1.00
H213   H     0.23306   0.40436   0.36824   0.00000  Uiso   1.00
H214   H     0.32975   0.46077   0.21027   0.00000  Uiso   1.00
H215   H     0.29934   0.59944   0.43426   0.00000  Uiso   1.00
H216   H     0.00066   0.59477   0.01379   0.00000  Uiso   1.00
H217   H     0.05819   0.47556   0.05104   0.00000  Uiso   1.00
H218   H     0.31527   0.45038   0.49802   0.00000  Uiso   1.00
H219   H     0.22260   0.57323   0.38169   0.00000  Uiso   1.00
H220   H     0.23642   0.34663   0.25518   0.00000  Uiso   1.00
N221   N     0.31574   0.51407   0.26416   0.00000  Uiso   1.00
N222   N     0.01759   0.48593   0.23584   0.00000  Uiso   1.00
O223   O     0.12797   0.57141   0.24633   0.00000  Uiso   1.00
O224   O     0.00326   0.45817   0.39721   0.00000  Uiso   1.00
O225   O     0.22858   0.58089   0.25586   0.00000  Uiso   1.00
O226   O     0.09181   0.49293   0.31839   0.00000  Uiso   1.00
O227   O     0.19242   0.50241   0.32793   0.00000  Uiso   1.00
O228   O     0.10476   0.41911   0.24413   0.00000  Uiso   1.00
O229   O     0.20536   0.42859   0.25367   0.00000  Uiso   1.00
O230   O     0.14092   0.49759   0.17207   0.00000  Uiso   1.00
O231   O     0.24152   0.50707   0.18160   0.00000  Uiso   1.00
O232   O     0.13332   0.44685   0.08129   0.00000  Uiso   1.00
C233   C     0.51517   0.60010   0.25144   0.00000  Uiso   1.00
C234   C     0.44450   0.49819   0.40421   0.00000  Uiso   1.00
C235   C     0.52381   0.65608   0.25184   0.00000  Uiso   1.00
C236   C     0.46609   0.49896   0.34750   0.00000  Uiso   1.00
C237   C     0.47620   0.34392   0.24800   0.00000  Uiso   1.00
C238   C     0.48483   0.39991   0.24855   0.00000  Uiso   1.00
C239   C     0.53413   0.50349   0.15281   0.00000  Uiso   1.00
C240   C     0.62355   0.56674   0.02822   0.00000  Uiso   1.00
C241   C     0.55529   0.51267   0.09754   0.00000  Uiso   1.00
C242   C     0.38182   0.47264   0.42671   0.00000  Uiso   1.00
C243   C     0.36410   0.46643   0.47992   0.00000  Uiso   1.00
C244   C     0.47254   0.50294   0.48839   0.00000  Uiso   1.00
C245   C     0.40882   0.48012   0.01015   0.00000  Uiso   1.00
C246   C     0.48913   0.40175   0.06038   0.00000  Uiso   1.00
C247   C     0.43792   0.35259   0.07686   0.00000  Uiso   1.00
C248   C     0.65102   0.40259   0.39495   0.00000  Uiso   1.00
C249   C     0.60877   0.38703   0.35638   0.00000  Uiso   1.00
C250   C     0.48802   0.51818   0.43636   0.00000  Uiso   1.00
C251   C     0.52042   0.51458   0.01761   0.00000  Uiso   1.00
C252   C     0.57815   0.55059   0.49810   0.00000  Uiso   1.00
C253   C     0.58943   0.57097   0.44915   0.00000  Uiso   1.00
C254   C     0.54547   0.55467   0.41853   0.00000  Uiso   1.00
C255   C     0.51344   0.49121   0.06542   0.00000  Uiso   1.00
C256   C     0.61126   0.54917   0.07832   0.00000  Uiso   1.00
Cu257  Cu    0.44043   0.49439   0.24435   0.00000  Uiso   1.00
Cu258  Cu    0.55957   0.50561   0.25564   0.00000  Uiso   1.00
H259   H     0.64432   0.56549   0.10255   0.00000  Uiso   1.00
H260   H     0.43030   0.65336   0.24448   0.00000  Uiso   1.00
H261   H     0.53170   0.39909   0.07460   0.00000  Uiso   1.00
H262   H     0.50103   0.40241   0.01756   0.00000  Uiso   1.00
H263   H     0.39497   0.35386   0.06278   0.00000  Uiso   1.00
H264   H     0.45503   0.65016   0.06054   0.00000  Uiso   1.00
H265   H     0.42566   0.35026   0.11943   0.00000  Uiso   1.00
H266   H     0.62358   0.38678   0.43299   0.00000  Uiso   1.00
H267   H     0.35933   0.38417   0.38212   0.00000  Uiso   1.00
H268   H     0.63513   0.40160   0.31774   0.00000  Uiso   1.00
H269   H     0.59328   0.34339   0.35431   0.00000  Uiso   1.00
H270   H     0.33685   0.53912   0.28984   0.00000  Uiso   1.00
H271   H     0.56639   0.40436   0.36824   0.00000  Uiso   1.00
H272   H     0.66309   0.46077   0.21027   0.00000  Uiso   1.00
H273   H     0.63267   0.59944   0.43426   0.00000  Uiso   1.00
H274   H     0.33400   0.59477   0.01379   0.00000  Uiso   1.00
H275   H     0.39152   0.47556   0.05104   0.00000  Uiso   1.00
H276   H     0.64860   0.45038   0.49802   0.00000  Uiso   1.00
H277   H     0.55594   0.57323   0.38169   0.00000  Uiso   1.00
H278   H     0.56975   0.34663   0.25518   0.00000  Uiso   1.00
N279   N     0.64908   0.51407   0.26416   0.00000  Uiso   1.00
N280   N     0.35092   0.48593   0.23584   0.00000  Uiso   1.00
O281   O     0.46131   0.57141   0.24633   0.00000  Uiso   1.00
O282   O     0.33659   0.45817   0.39721   0.00000  Uiso   1.00
O283   O     0.56191   0.58089   0.25586   0.00000  Uiso   1.00
O284   O     0.42515   0.49293   0.31839   0.00000  Uiso   1.00
O285   O     0.52575   0.50241   0.32793   0.00000  Uiso   1.00
O286   O     0.43809   0.41911   0.24413   0.00000  Uiso   1.00
O287   O     0.53869   0.42859   0.25367   0.00000  Uiso   1.00
O288   O     0.47425   0.49759   0.17207   0.00000  Uiso   1.00
O289   O     0.57485   0.50707   0.18160   0.00000  Uiso   1.00
O290   O     0.46665   0.44685   0.08129   0.00000  Uiso   1.00
C291   C     0.84851   0.60010   0.25144   0.00000  Uiso   1.00
C292   C     0.77783   0.49819   0.40421   0.00000  Uiso   1.00
C293   C     0.85715   0.65608   0.25184   0.00000  Uiso   1.00
C294   C     0.79942   0.49896   0.34750   0.00000  Uiso   1.00
C295   C     0.80953   0.34392   0.24800   0.00000  Uiso   1.00
C296   C     0.81816   0.39991   0.24855   0.00000  Uiso   1.00
C297   C     0.86746   0.50349   0.15281   0.00000  Uiso   1.00
C298   C     0.95688   0.56674   0.02822   0.00000  Uiso   1.00
C299   C     0.88863   0.51267   0.09754   0.00000  Uiso   1.00
C300   C     0.71515   0.47264   0.42671   0.00000  Uiso   1.00
C301   C     0.69743   0.46643   0.47992   0.00000  Uiso   1.00
C302   C     0.80587   0.50294   0.48839   0.00000  Uiso   1.00
C303   C     0.74215   0.48012   0.01015   0.00000  Uiso   1.00
C304   C     0.82246   0.40175   0.06038   0.00000  Uiso   1.00
C305   C     0.77125   0.35259   0.07686   0.00000  Uiso   1.00
C306   C     0.98436   0.40259   0.39495   0.00000  Uiso   1.00
C307   C     0.94211   0.38703   0.35638   0.00000  Uiso   1.00
C308   C     0.82135   0.51818   0.43636   0.00000  Uiso   1.00
C309   C     0.85375   0.51458   0.01761   0.00000  Uiso   1.00
C310   C     0.91149   0.55059   0.49810   0.00000  Uiso   1.00
C311   C     0.92276   0.57097   0.44915   0.00000  Uiso   1.00
C312   C     0.87880   0.55467   0.41853   0.00000  Uiso   1.00
C313   C     0.84677   0.49121   0.06542   0.00000  Uiso   1.00
C314   C     0.94460   0.54917   0.07832   0.00000  Uiso   1.00
Cu315  Cu    0.77377   0.49439   0.24435   0.00000  Uiso   1.00
Cu316  Cu    0.89290   0.50561   0.25564   0.00000  Uiso   1.00
H317   H     0.97766   0.56549   0.10255   0.00000  Uiso   1.00
H318   H     0.76363   0.65336   0.24448   0.00000  Uiso   1.00
H319   H     0.86503   0.39909   0.07460   0.00000  Uiso   1.00
H320   H     0.83436   0.40241   0.01756   0.00000  Uiso   1.00
H321   H     0.72830   0.35386   0.06278   0.00000  Uiso   1.00
H322   H     0.78836   0.65016   0.06054   0.00000  Uiso   1.00
H323   H     0.75899   0.35026   0.11943   0.00000  Uiso   1.00
H324   H     0.95691   0.38678   0.43299   0.00000  Uiso   1.00
H325   H     0.69266   0.38417   0.38212   0.00000  Uiso   1.00
H326   H     0.96847   0.40160   0.31774   0.00000  Uiso   1.00
H327   H     0.92662   0.34339   0.35431   0.00000  Uiso   1.00
H328   H     0.67018   0.53912   0.28984   0.00000  Uiso   1.00
H329   H     0.89973   0.40436   0.36824   0.00000  Uiso   1.00
H330   H     0.99642   0.46077   0.21027   0.00000  Uiso   1.00
H331   H     0.96600   0.59944   0.43426   0.00000  Uiso   1.00
H332   H     0.66733   0.59477   0.01379   0.00000  Uiso   1.00
H333   H     0.72485   0.47556   0.05104   0.00000  Uiso   1.00
H334   H     0.98193   0.45038   0.49802   0.00000  Uiso   1.00
H335   H     0.88927   0.57323   0.38169   0.00000  Uiso   1.00
H336   H     0.90308   0.34663   0.25518   0.00000  Uiso   1.00
N337   N     0.98241   0.51407   0.26416   0.00000  Uiso   1.00
N338   N     0.68426   0.48593   0.23584   0.00000  Uiso   1.00
O339   O     0.79464   0.57141   0.24633   0.00000  Uiso   1.00
O340   O     0.66992   0.45817   0.39721   0.00000  Uiso   1.00
O341   O     0.89524   0.58089   0.25586   0.00000  Uiso   1.00
O342   O     0.75848   0.49293   0.31839   0.00000  Uiso   1.00
O343   O     0.85908   0.50241   0.32793   0.00000  Uiso   1.00
O344   O     0.77142   0.41911   0.24413   0.00000  Uiso   1.00
O345   O     0.87203   0.42859   0.25367   0.00000  Uiso   1.00
O346   O     0.80758   0.49759   0.17207   0.00000  Uiso   1.00
O347   O     0.90819   0.50707   0.18160   0.00000  Uiso   1.00
O348   O     0.79998   0.44685   0.08129   0.00000  Uiso   1.00
C349   C     0.18184   0.93343   0.25144   0.00000  Uiso   1.00
C350   C     0.11116   0.83152   0.40421   0.00000  Uiso   1.00
C351   C     0.19048   0.98941   0.25184   0.00000  Uiso   1.00
C352   C     0.13276   0.83229   0.34750   0.00000  Uiso   1.00
C353   C     0.14286   0.67725   0.24800   0.00000  Uiso   1.00
C354   C     0.15149   0.73324   0.24855   0.00000  Uiso   1.00
C355   C     0.20079   0.83683   0.15281   0.00000  Uiso   1.00
C356   C     0.29021   0.90007   0.02822   0.00000  Uiso   1.00
C357   C     0.22196   0.84600   0.09754   0.00000  Uiso   1.00
C358   C     0.04848   0.80597   0.42671   0.00000  Uiso   1.00
C359   C     0.03076   0.79976   0.47992   0.00000  Uiso   1.00
C360   C     0.13921   0.83627   0.48839   0.00000  Uiso   1.00
C361   C     0.07548   0.81345   0.01015   0.00000  Uiso   1.00
C362   C     0.15580   0.73508   0.06038   0.00000  Uiso   1.00
C363   C     0.10459   0.68593   0.07686   0.00000  Uiso   1.00
C364   C     0.31769   0.73592   0.39495   0.00000  Uiso   1.00
C365   C     0.27544   0.72037   0.35638   0.00000  Uiso   1.00
C366   C     0.15468   0.85151   0.43636   0.00000  Uiso   1.00
C367   C     0.18708   0.84792   0.01761   0.00000  Uiso   1.00
C368   C     0.24482   0.88392   0.49810   0.00000  Uiso   1.00
C369   C     0.25610   0.90430   0.44915   0.00000  Uiso   1.00
C370   C     0.21214   0.88801   0.41853   0.00000  Uiso   1.00
C371   C     0.18011   0.82454   0.06542   0.00000  Uiso   1.00
C372   C     0.27793   0.88251   0.07832   0.00000  Uiso   1.00
Cu373  Cu    0.10710   0.82772   0.24435   0.00000  Uiso   1.00
Cu374  Cu    0.22623   0.83895   0.25564   0.00000  Uiso   1.00
H375   H     0.31099   0.89882   0.10255   0.00000  Uiso   1.00
H376   H     0.09696   0.98669   0.24448   0.00000  Uiso   1.00
H377   H     0.19837   0.73243   0.07460   0.00000  Uiso   1.00
H378   H     0.16770   0.73574   0.01756   0.00000  Uiso   1.00
H379   H     0.06164   0.68719   0.06278   0.00000  Uiso   1.00
H380   H     0.12169   0.98349   0.06054   0.00000  Uiso   1.00
H381   H     0.09232   0.68359   0.11943   0.00000  Uiso   1.00
H382   H     0.29024   0.72012   0.43299   0.00000  Uiso   1.00
H383   H     0.02599   0.71751   0.38212   0.00000  Uiso   1.00
H384   H     0.30180   0.73493   0.31774   0.00000  Uiso   1.00
H385   H     0.25995   0.67672   0.35431   0.00000  Uiso   1.00
H386   H     0.00351   0.87245   0.28984   0.00000  Uiso   1.00
H387   H     0.23306   0.73769   0.36824   0.00000  Uiso   1.00
H388   H     0.32975   0.79410   0.21027   0.00000  Uiso   1.00
H389   H     0.29934   0.93277   0.43426   0.00000  Uiso   1.00
H390   H     0.00066   0.92810   0.01379   0.00000  Uiso   1.00
H391   H     0.05819   0.80889   0.05104   0.00000  Uiso   1.00
H392   H     0.31527   0.78371   0.49802   0.00000  Uiso   1.00
H393   H     0.22260   0.90657   0.38169   0.00000  Uiso   1.00
H394   H     0.23642   0.67996   0.25518   0.00000  Uiso   1.00
N395   N     0.31574   0.84741   0.26416   0.00000  Uiso   1.00
N396   N     0.01759   0.81926   0.23584   0.00000  Uiso   1.00
O397   O     0.12797   0.90474   0.24633   0.00000  Uiso   1.00
O398   O     0.00326   0.79150   0.39721   0.00000  Uiso   1.00
O399   O     0.22858   0.91422   0.25586   0.00000  Uiso   1.00
O400   O     0.09181   0.82627   0.31839   0.00000  Uiso   1.00
O401   O     0.19242   0.83575   0.32793   0.00000  Uiso   1.00
O402   O     0.10476   0.75245   0.24413   0.00000  Uiso   1.00
O403   O     0.20536   0.76193   0.25367   0.00000  Uiso   1.00
O404   O     0.14092   0.83092   0.17207   0.00000  Uiso   1.00
O405   O     0.24152   0.84040   0.18160   0.00000  Uiso   1.00
O406   O     0.13332   0.78019   0.08129   0.00000  Uiso   1.00
C407   C     0.51517   0.93343   0.25144   0.00000  Uiso   1.00
C408   C     0.44450   0.83152   0.40421   0.00000  Uiso   1.00
C409   C     0.52381   0.98941   0.25184   0.00000  Uiso   1.00
C410   C     0.46609   0.83229   0.34750   0.00000  Uiso   1.00
C411   C     0.47620   0.67725   0.24800   0.00000  Uiso   1.00
C412   C     0.48483   0.73324   0.24855   0.00000  Uiso   1.00
C413   C     0.53413   0.83683   0.15281   0.00000  Uiso   1.00
C414   C     0.62355   0.90007   0.02822   0.00000  Uiso   1.00
C415   C     0.55529   0.84600   0.09754   0.00000  Uiso   1.00
C416   C     0.38182   0.80597   0.42671   0.00000  Uiso   1.00
C417   C     0.36410   0.79976   0.47992   0.00000  Uiso   1.00
C418   C     0.47254   0.83627   0.48839   0.00000  Uiso   1.00
C419   C     0.40882   0.81345   0.01015   0.00000  Uiso   1.00
C420   C     0.48913   0.73508   0.06038   0.00000  Uiso   1.00
C421   C     0.43792   0.68593   0.07686   0.00000  Uiso   1.00
C422   C     0.65102   0.73592   0.39495   0.00000  Uiso   1.00
C423   C     0.60877   0.72037   0.35638   0.00000  Uiso   1.00
C424   C     0.48802   0.85151   0.43636   0.00000  Uiso   1.00
C425   C     0.52042   0.84792   0.01761   0.00000  Uiso   1.00
C426   C     0.57815   0.88392   0.49810   0.00000  Uiso   1.00
C427   C     0.58943   0.90430   0.44915   0.00000  Uiso   1.00
C428   C     0.54547   0.88801   0.41853   0.00000  Uiso   1.00
C429   C     0.51344   0.82454   0.06542   0.00000  Uiso   1.00
C430   C     0.61126   0.88251   0.07832   0.00000  Uiso   1.00
Cu431  Cu    0.44043   0.82772   0.24435   0.00000  Uiso   1.00
Cu432  Cu    0.55957   0.83895   0.25564   0.00000  Uiso   1.00
H433   H     0.64432   0.89882   0.10255   0.00000  Uiso   1.00
H434   H     0.43030   0.98669   0.24448   0.00000  Uiso   1.00
H435   H     0.53170   0.73243   0.07460   0.00000  Uiso   1.00
H436   H     0.50103   0.73574   0.01756   0.00000  Uiso   1.00
H437   H     0.39497   0.68719   0.06278   0.00000  Uiso   1.00
H438   H     0.45503   0.98349   0.06054   0.00000  Uiso   1.00
H439   H     0.42566   0.68359   0.11943   0.00000  Uiso   1.00
H440   H     0.62358   0.72012   0.43299   0.00000  Uiso   1.00
H441   H     0.35933   0.71751   0.38212   0.00000  Uiso   1.00
H442   H     0.63513   0.73493   0.31774   0.00000  Uiso   1.00
H443   H     0.59328   0.67672   0.35431   0.00000  Uiso   1.00
H444   H     0.33685   0.87245   0.28984   0.00000  Uiso   1.00
H445   H     0.56639   0.73769   0.36824   0.00000  Uiso   1.00
H446   H     0.66309   0.79410   0.21027   0.00000  Uiso   1.00
H447   H     0.63267   0.93277   0.43426   0.00000  Uiso   1.00
H448   H     0.33400   0.92810   0.01379   0.00000  Uiso   1.00
H449   H     0.39152   0.80889   0.05104   0.00000  Uiso   1.00
H450   H     0.64860   0.78371   0.49802   0.00000  Uiso   1.00
H451   H     0.55594   0.90657   0.38169   0.00000  Uiso   1.00
H452   H     0.56975   0.67996   0.25518   0.00000  Uiso   1.00
N453   N     0.64908   0.84741   0.26416   0.00000  Uiso   1.00
N454   N     0.35092   0.81926   0.23584   0.00000  Uiso   1.00
O455   O     0.46131   0.90474   0.24633   0.00000  Uiso   1.00
O456   O     0.33659   0.79150   0.39721   0.00000  Uiso   1.00
O457   O     0.56191   0.91422   0.25586   0.00000  Uiso   1.00
O458   O     0.42515   0.82627   0.31839   0.00000  Uiso   1.00
O459   O     0.52575   0.83575   0.32793   0.00000  Uiso   1.00
O460   O     0.43809   0.75245   0.24413   0.00000  Uiso   1.00
O461   O     0.53869   0.76193   0.25367   0.00000  Uiso   1.00
O462   O     0.47425   0.83092   0.17207   0.00000  Uiso   1.00
O463   O     0.57485   0.84040   0.18160   0.00000  Uiso   1.00
O464   O     0.46665   0.78019   0.08129   0.00000  Uiso   1.00
C465   C     0.84851   0.93343   0.25144   0.00000  Uiso   1.00
C466   C     0.77783   0.83152   0.40421   0.00000  Uiso   1.00
C467   C     0.85715   0.98941   0.25184   0.00000  Uiso   1.00
C468   C     0.79942   0.83229   0.34750   0.00000  Uiso   1.00
C469   C     0.80953   0.67725   0.24800   0.00000  Uiso   1.00
C470   C     0.81816   0.73324   0.24855   0.00000  Uiso   1.00
C471   C     0.86746   0.83683   0.15281   0.00000  Uiso   1.00
C472   C     0.95688   0.90007   0.02822   0.00000  Uiso   1.00
C473   C     0.88863   0.84600   0.09754   0.00000  Uiso   1.00
C474   C     0.71515   0.80597   0.42671   0.00000  Uiso   1.00
C475   C     0.69743   0.79976   0.47992   0.00000  Uiso   1.00
C476   C     0.80587   0.83627   0.48839   0.00000  Uiso   1.00
C477   C     0.74215   0.81345   0.01015   0.00000  Uiso   1.00
C478   C     0.82246   0.73508   0.06038   0.00000  Uiso   1.00
C479   C     0.77125   0.68593   0.07686   0.00000  Uiso   1.00
C480   C     0.98436   0.73592   0.39495   0.00000  Uiso   1.00
C481   C     0.94211   0.72037   0.35638   0.00000  Uiso   1.00
C482   C     0.82135   0.85151   0.43636   0.00000  Uiso   1.00
C483   C     0.85375   0.84792   0.01761   0.00000  Uiso   1.00
C484   C     0.91149   0.88392   0.49810   0.00000  Uiso   1.00
C485   C     0.92276   0.90430   0.44915   0.00000  Uiso   1.00
C486   C     0.87880   0.88801   0.41853   0.00000  Uiso   1.00
C487   C     0.84677   0.82454   0.06542   0.00000  Uiso   1.00
C488   C     0.94460   0.88251   0.07832   0.00000  Uiso   1.00
Cu489  Cu    0.77377   0.82772   0.24435   0.00000  Uiso   1.00
Cu490  Cu    0.89290   0.83895   0.25564   0.00000  Uiso   1.00
H491   H     0.97766   0.89882   0.10255   0.00000  Uiso   1.00
H492   H     0.76363   0.98669   0.24448   0.00000  Uiso   1.00
H493   H     0.86503   0.73243   0.07460   0.00000  Uiso   1.00
H494   H     0.83436   0.73574   0.01756   0.00000  Uiso   1.00
H495   H     0.72830   0.68719   0.06278   0.00000  Uiso   1.00
H496   H     0.78836   0.98349   0.06054   0.00000  Uiso   1.00
H497   H     0.75899   0.68359   0.11943   0.00000  Uiso   1.00
H498   H     0.95691   0.72012   0.43299   0.00000  Uiso   1.00
H499   H     0.69266   0.71751   0.38212   0.00000  Uiso   1.00
H500   H     0.96847   0.73493   0.31774   0.00000  Uiso   1.00
H501   H     0.92662   0.67672   0.35431   0.00000  Uiso   1.00
H502   H     0.67018   0.87245   0.28984   0.00000  Uiso   1.00
H503   H     0.89973   0.73769   0.36824   0.00000  Uiso   1.00
H504   H     0.99642   0.79410   0.21027   0.00000  Uiso   1.00
H505   H     0.96600   0.93277   0.43426   0.00000  Uiso   1.00
H506   H     0.66733   0.92810   0.01379   0.00000  Uiso   1.00
H507   H     0.72485   0.80889   0.05104   0.00000  Uiso   1.00
H508   H     0.98193   0.78371   0.49802   0.00000  Uiso   1.00
H509   H     0.88927   0.90657   0.38169   0.00000  Uiso   1.00
H510   H     0.90308   0.67996   0.25518   0.00000  Uiso   1.00
N511   N     0.98241   0.84741   0.26416   0.00000  Uiso   1.00
N512   N     0.68426   0.81926   0.23584   0.00000  Uiso   1.00
O513   O     0.79464   0.90474   0.24633   0.00000  Uiso   1.00
O514   O     0.66992   0.79150   0.39721   0.00000  Uiso   1.00
O515   O     0.89524   0.91422   0.25586   0.00000  Uiso   1.00
O516   O     0.75848   0.82627   0.31839   0.00000  Uiso   1.00
O517   O     0.85908   0.83575   0.32793   0.00000  Uiso   1.00
O518   O     0.77142   0.75245   0.24413   0.00000  Uiso   1.00
O519   O     0.87203   0.76193   0.25367   0.00000  Uiso   1.00
O520   O     0.80758   0.83092   0.17207   0.00000  Uiso   1.00
O521   O     0.90819   0.84040   0.18160   0.00000  Uiso   1.00
O522   O     0.79998   0.78019   0.08129   0.00000  Uiso   1.00
C523   C     0.18184   0.26676   0.75144   0.00000  Uiso   1.00
C524   C     0.11116   0.16485   0.90421   0.00000  Uiso   1.00
C525   C     0.19048   0.32274   0.75184   0.00000  Uiso   1.00
C526   C     0.13276   0.16563   0.84750   0.00000  Uiso   1.00
C527   C     0.14286   0.01058   0.74800   0.00000  Uiso   1.00
C528   C     0.15149   0.06657   0.74855   0.00000  Uiso   1.00
C529   C     0.20079   0.17016   0.65281   0.00000  Uiso   1.00
C530   C     0.29021   0.23341   0.52822   0.00000  Uiso   1.00
C531   C     0.22196   0.17933   0.59754   0.00000  Uiso   1.00
C532   C     0.04848   0.13930   0.92671   0.00000  Uiso   1.00
C533   C     0.03076   0.13309   0.97992   0.00000  Uiso   1.00
C534   C     0.13921   0.16960   0.98839   0.00000  Uiso   1.00
C535   C     0.07548   0.14679   0.51015   0.00000  Uiso   1.00
C536   C     0.15580   0.06842   0.56038   0.00000  Uiso   1.00
C537   C     0.10459   0.01926   0.57686   0.00000  Uiso   1.00
C538   C     0.31769   0.06925   0.89495   0.00000  Uiso   1.00
C539   C     0.27544   0.05370   0.85638   0.00000  Uiso   1.00
C540   C     0.15468   0.18484   0.93636   0.00000  Uiso   1.00
C541   C     0.18708   0.18125   0.51761   0.00000  Uiso   1.00
C542   C     0.24482   0.21726   0.99810   0.00000  Uiso   1.00
C543   C     0.25610   0.23763   0.94915   0.00000  Uiso   1.00
C544   C     0.21214   0.22134   0.91853   0.00000  Uiso   1.00
C545   C     0.18011   0.15787   0.56542   0.00000  Uiso   1.00
C546   C     0.27793   0.21584   0.57832   0.00000  Uiso   1.00
Cu547  Cu    0.10710   0.16105   0.74435   0.00000  Uiso   1.00
Cu548  Cu    0.22623   0.17228   0.75564   0.00000  Uiso   1.00
H549   H     0.31099   0.23215   0.60255   0.00000  Uiso   1.00
H550   H     0.09696   0.32003   0.74448   0.00000  Uiso   1.00
H551   H     0.19837   0.06576   0.57460   0.00000  Uiso   1.00
H552   H     0.16770   0.06908   0.51756   0.00000  Uiso   1.00
H553   H     0.06164   0.02052   0.56278   0.00000  Uiso   1.00
H554   H     0.12169   0.31682   0.56054   0.00000  Uiso   1.00
H555   H     0.09232   0.01693   0.61943   0.00000  Uiso   1.00
H556   H     0.29024   0.05345   0.93299   0.00000  Uiso   1.00
H557   H     0.02599   0.05084   0.88212   0.00000  Uiso   1.00
H558   H     0.30180   0.06826   0.81774   0.00000  Uiso   1.00
H559   H     0.25995   0.01005   0.85431   0.00000  Uiso   1.00
H560   H     0.00351   0.20579   0.78984   0.00000  Uiso   1.00
H561   H     0.23306   0.07102   0.86824   0.00000  Uiso   1.00
H562   H     0.32975   0.12743   0.71027   0.00000  Uiso   1.00
H563   H     0.29934   0.26610   0.93426   0.00000  Uiso   1.00
H564   H     0.00066   0.26144   0.51379   0.00000  Uiso   1.00
H565   H     0.05819   0.14223   0.55104   0.00000  Uiso   1.00
H566   H     0.31527   0.11705   0.99802   0.00000  Uiso   1.00
H567   H     0.22260   0.23990   0.88169   0.00000  Uiso   1.00
H568   H     0.23642   0.01330   0.75518   0.00000  Uiso   1.00
N569   N     0.31574   0.18074   0.76416   0.00000  Uiso   1.00
N570   N     0.01759   0.15259   0.73584   0.00000  Uiso   1.00
O571   O     0.12797   0.23807   0.74633   0.00000  Uiso   1.00
O572   O     0.00326   0.12484   0.89721   0.00000  Uiso   1.00
O573   O     0.22858   0.24755   0.75586   0.00000  Uiso   1.00
O574   O     0.09181   0.15960   0.81839   0.00000  Uiso   1.00
O575   O     0.19242   0.16908   0.82793   0.00000  Uiso   1.00
O576   O     0.10476   0.08578   0.74413   0.00000  Uiso   1.00
O577   O     0.20536   0.09526   0.75367   0.00000  Uiso   1.00
O578   O     0.14092   0.16425   0.67207   0.00000  Uiso   1.00
O579   O     0.24152   0.17373   0.68160   0.00000  Uiso   1.00
O580   O     0.13332   0.11352   0.58129   0.00000  Uiso   1.00
C581   C     0.51517   0.26676   0.75144   0.00000  Uiso   1.00
C582   C     0.44450   0.16485   0.90421   0.00000  Uiso   1.00
C583   C     0.52381   0.32274   0.75184   0.00000  Uiso   1.00
C584   C     0.46609   0.16563   0.84750   0.00000  Uiso   1.00
C585   C     0.47620   0.01058   0.74800   0.00000  Uiso   1.00
C586   C     0.48483   0.06657   0.74855   0.00000  Uiso   1.00
C587   C     0.53413   0.17016   0.65281   0.00000  Uiso   1.00
C588   C     0.62355   0.23341   0.52822   0.00000  Uiso   1.00
C589   C     0.55529   0.17933   0.59754   0.00000  Uiso   1.00
C590   C     0.38182   0.13930   0.92671   0.00000  Uiso   1.00
C591   C     0.36410   0.13309   0.97992   0.00000  Uiso   1.00
C592   C     0.47254   0.16960   0.98839   0.00000  Uiso   1.00
C593   C     0.40882   0.14679   0.51015   0.00000  Uiso   1.00
C594   C     0.48913   0.06842   0.56038   0.00000  Uiso   1.00
C595   C     0.43792   0.01926   0.57686   0.00000  Uiso   1.00
C596   C     0.65102   0.06925   0.89495   0.00000  Uiso   1.00
C597   C     0.60877   0.05370   0.85638   0.00000  Uiso   1.00
C598   C     0.48802   0.18484   0.93636   0.00000  Uiso   1.00
C599   C     0.52042   0.18125   0.51761   0.00000  Uiso   1.00
C600   C     0.57815   0.21726   0.99810   0.00000  Uiso   1.00
C601   C     0.58943   0.23763   0.94915   0.00000  Uiso   1.00
C602   C     0.54547   0.22134   0.91853   0.00000  Uiso   1.00
C603   C     0.51344   0.15787   0.56542   0.00000  Uiso   1.00
C604   C     0.61126   0.21584   0.57832   0.00000  Uiso   1.00
Cu605  Cu    0.44043   0.16105   0.74435   0.00000  Uiso   1.00
Cu606  Cu    0.55957   0.17228   0.75564   0.00000  Uiso   1.00
H607   H     0.64432   0.23215   0.60255   0.00000  Uiso   1.00
H608   H     0.43030   0.32003   0.74448   0.00000  Uiso   1.00
H609   H     0.53170   0.06576   0.57460   0.00000  Uiso   1.00
H610   H     0.50103   0.06908   0.51756   0.00000  Uiso   1.00
H611   H     0.39497   0.02052   0.56278   0.00000  Uiso   1.00
H612   H     0.45503   0.31682   0.56054   0.00000  Uiso   1.00
H613   H     0.42566   0.01693   0.61943   0.00000  Uiso   1.00
H614   H     0.62358   0.05345   0.93299   0.00000  Uiso   1.00
H615   H     0.35933   0.05084   0.88212   0.00000  Uiso   1.00
H616   H     0.63513   0.06826   0.81774   0.00000  Uiso   1.00
H617   H     0.59328   0.01005   0.85431   0.00000  Uiso   1.00
H618   H     0.33685   0.20579   0.78984   0.00000  Uiso   1.00
H619   H     0.56639   0.07102   0.86824   0.00000  Uiso   1.00
H620   H     0.66309   0.12743   0.71027   0.00000  Uiso   1.00
H621   H     0.63267   0.26610   0.93426   0.00000  Uiso   1.00
H622   H     0.33400   0.26144   0.51379   0.00000  Uiso   1.00
H623   H     0.39152   0.14223   0.55104   0.00000  Uiso   1.00
H624   H     0.64860   0.11705   0.99802   0.00000  Uiso   1.00
H625   H     0.55594   0.23990   0.88169   0.00000  Uiso   1.00
H626   H     0.56975   0.01330   0.75518   0.00000  Uiso   1.00
N627   N     0.64908   0.18074   0.76416   0.00000  Uiso   1.00
N628   N     0.35092   0.15259   0.73584   0.00000  Uiso   1.00
O629   O     0.46131   0.23807   0.74633   0.00000  Uiso   1.00
O630   O     0.33659   0.12484   0.89721   0.00000  Uiso   1.00
O631   O     0.56191   0.24755   0.75586   0.00000  Uiso   1.00
O632   O     0.42515   0.15960   0.81839   0.00000  Uiso   1.00
O633   O     0.52575   0.16908   0.82793   0.00000  Uiso   1.00
O634   O     0.43809   0.08578   0.74413   0.00000  Uiso   1.00
O635   O     0.53869   0.09526   0.75367   0.00000  Uiso   1.00
O636   O     0.47425   0.16425   0.67207   0.00000  Uiso   1.00
O637   O     0.57485   0.17373   0.68160   0.00000  Uiso   1.00
O638   O     0.46665   0.11352   0.58129   0.00000  Uiso   1.00
C639   C     0.84851   0.26676   0.75144   0.00000  Uiso   1.00
C640   C     0.77783   0.16485   0.90421   0.00000  Uiso   1.00
C641   C     0.85715   0.32274   0.75184   0.00000  Uiso   1.00
C642   C     0.79942   0.16563   0.84750   0.00000  Uiso   1.00
C643   C     0.80953   0.01058   0.74800   0.00000  Uiso   1.00
C644   C     0.81816   0.06657   0.74855   0.00000  Uiso   1.00
C645   C     0.86746   0.17016   0.65281   0.00000  Uiso   1.00
C646   C     0.95688   0.23341   0.52822   0.00000  Uiso   1.00
C647   C     0.88863   0.17933   0.59754   0.00000  Uiso   1.00
C648   C     0.71515   0.13930   0.92671   0.00000  Uiso   1.00
C649   C     0.69743   0.13309   0.97992   0.00000  Uiso   1.00
C650   C     0.80587   0.16960   0.98839   0.00000  Uiso   1.00
C651   C     0.74215   0.14679   0.51015   0.00000  Uiso   1.00
C652   C     0.82246   0.06842   0.56038   0.00000  Uiso   1.00
C653   C     0.77125   0.01926   0.57686   0.00000  Uiso   1.00
C654   C     0.98436   0.06925   0.89495   0.00000  Uiso   1.00
C655   C     0.94211   0.05370   0.85638   0.00000  Uiso   1.00
C656   C     0.82135   0.18484   0.93636   0.00000  Uiso   1.00
C657   C     0.85375   0.18125   0.51761   0.00000  Uiso   1.00
C658   C     0.91149   0.21726   0.99810   0.00000  Uiso   1.00
C659   C     0.92276   0.23763   0.94915   0.00000  Uiso   1.00
C660   C     0.87880   0.22134   0.91853   0.00000  Uiso   1.00
C661   C     0.84677   0.15787   0.56542   0.00000  Uiso   1.00
C662   C     0.94460   0.21584   0.57832   0.00000  Uiso   1.00
Cu663  Cu    0.77377   0.16105   0.74435   0.00000  Uiso   1.00
Cu664  Cu    0.89290   0.17228   0.75564   0.00000  Uiso   1.00
H665   H     0.97766   0.23215   0.60255   0.00000  Uiso   1.00
H666   H     0.76363   0.32003   0.74448   0.00000  Uiso   1.00
H667   H     0.86503   0.06576   0.57460   0.00000  Uiso   1.00
H668   H     0.83436   0.06908   0.51756   0.00000  Uiso   1.00
H669   H     0.72830   0.02052   0.56278   0.00000  Uiso   1.00
H670   H     0.78836   0.31682   0.56054   0.00000  Uiso   1.00
H671   H     0.75899   0.01693   0.61943   0.00000  Uiso   1.00
H672   H     0.95691   0.05345   0.93299   0.00000  Uiso   1.00
H673   H     0.69266   0.05084   0.88212   0.00000  Uiso   1.00
H674   H     0.96847   0.06826   0.81774   0.00000  Uiso   1.00
H675   H     0.92662   0.01005   0.85431   0.00000  Uiso   1.00
H676   H     0.67018   0.20579   0.78984   0.00000  Uiso   1.00
H677   H     0.89973   0.07102   0.86824   0.00000  Uiso   1.00
H678   H     0.99642   0.12743   0.71027   0.00000  Uiso   1.00
H679   H     0.96600   0.26610   0.93426   0.00000  Uiso   1.00
H680   H     0.66733   0.26144   0.51379   0.00000  Uiso   1.00
H681   H     0.72485   0.14223   0.55104   0.00000  Uiso   1.00
H682   H     0.98193   0.11705   0.99802   0.00000  Uiso   1.00
H683   H     0.88927   0.23990   0.88169   0.00000  Uiso   1.00
H684   H     0.90308   0.01330   0.75518   0.00000  Uiso   1.00
N685   N     0.98241   0.18074   0.76416   0.00000  Uiso   1.00
N686   N     0.68426   0.15259   0.73584   0.00000  Uiso   1.00
O687   O     0.79464   0.23807   0.74633   0.00000  Uiso   1.00
O688   O     0.66992   0.12484   0.89721   0.00000  Uiso   1.00
O689   O     0.89524   0.24755   0.75586   0.00000  Uiso   1.00
O690   O     0.75848   0.15960   0.81839   0.00000  Uiso   1.00
O691   O     0.85908   0.16908   0.82793   0.00000  Uiso   1.00
O692   O     0.77142   0.08578   0.74413   0.00000  Uiso   1.00
O693   O     0.87203   0.09526   0.75367   0.00000  Uiso   1.00
O694   O     0.80758   0.16425   0.67207   0.00000  Uiso   1.00
O695   O     0.90819   0.17373   0.68160   0.00000  Uiso   1.00
O696   O     0.79998   0.11352   0.58129   0.00000  Uiso   1.00
C697   C     0.18184   0.60010   0.75144   0.00000  Uiso   1.00
C698   C     0.11116   0.49819   0.90421   0.00000  Uiso   1.00
C699   C     0.19048   0.65608   0.75184   0.00000  Uiso   1.00
C700   C     0.13276   0.49896   0.84750   0.00000  Uiso   1.00
C701   C     0.14286   0.34392   0.74800   0.00000  Uiso   1.00
C702   C     0.15149   0.39991   0.74855   0.00000  Uiso   1.00
C703   C     0.20079   0.50349   0.65281   0.00000  Uiso   1.00
C704   C     0.29021   0.56674   0.52822   0.00000  Uiso   1.00
C705   C     0.22196   0.51267   0.59754   0.00000  Uiso   1.00
C706   C     0.04848   0.47264   0.92671   0.00000  Uiso   1.00
C707   C     0.03076   0.46643   0.97992   0.00000  Uiso   1.00
C708   C     0.13921   0.50294   0.98839   0.00000  Uiso   1.00
C709   C     0.07548   0.48012   0.51015   0.00000  Uiso   1.00
C710   C     0.15580   0.40175   0.56038   0.00000  Uiso   1.00
C711   C     0.10459   0.35259   0.57686   0.00000  Uiso   1.00
C712   C     0.31769   0.40259   0.89495   0.00000  Uiso   1.00
C713   C     0.27544   0.38703   0.85638   0.00000  Uiso   1.00
C714   C     0.15468   0.51818   0.93636   0.00000  Uiso   1.00
C715   C     0.18708   0.51458   0.51761   0.00000  Uiso   1.00
C716   C     0.24482   0.55059   0.99810   0.00000  Uiso   1.00
C717   C     0.25610   0.57097   0.94915   0.00000  Uiso   1.00
C718   C     0.21214   0.55467   0.91853   0.00000  Uiso   1.00
C719   C     0.18011   0.49121   0.56542   0.00000  Uiso   1.00
C720   C     0.27793   0.54917   0.57832   0.00000  Uiso   1.00
Cu721  Cu    0.10710   0.49439   0.74435   0.00000  Uiso   1.00
Cu722  Cu    0.22623   0.50561   0.75564   0.00000  Uiso   1.00
H723   H     0.31099   0.56549   0.60255   0.00000  Uiso   1.00
H724   H     0.09696   0.65336   0.74448   0.00000  Uiso   1.00
H725   H     0.19837   0.39909   0.57460   0.00000  Uiso   1.00
H726   H     0.16770   0.40241   0.51756   0.00000  Uiso   1.00
H727   H     0.06164   0.35386   0.56278   0.00000  Uiso   1.00
H728   H     0.12169   0.65016   0.56054   0.00000  Uiso   1.00
H729   H     0.09232   0.35026   0.61943   0.00000  Uiso   1.00
H730   H     0.29024   0.38678   0.93299   0.00000  Uiso   1.00
H731   H     0.02599   0.38417   0.88212   0.00000  Uiso   1.00
H732   H     0.30180   0.40160   0.81774   0.00000  Uiso   1.00
H733   H     0.25995   0.34339   0.85431   0.00000  Uiso   1.00
H734   H     0.00351   0.53912   0.78984   0.00000  Uiso   1.00
H735   H     0.23306   0.40436   0.86824   0.00000  Uiso   1.00
H736   H     0.32975   0.46077   0.71027   0.00000  Uiso   1.00
H737   H     0.29934   0.59944   0.93426   0.00000  Uiso   1.00
H738   H     0.00066   0.59477   0.51379   0.00000  Uiso   1.00
H739   H     0.05819   0.47556   0.55104   0.00000  Uiso   1.00
H740   H     0.31527   0.45038   0.99802   0.00000  Uiso   1.00
H741   H     0.22260   0.57323   0.88169   0.00000  Uiso   1.00
H742   H     0.23642   0.34663   0.75518   0.00000  Uiso   1.00
N743   N     0.31574   0.51407   0.76416   0.00000  Uiso   1.00
N744   N     0.01759   0.48593   0.73584   0.00000  Uiso   1.00
O745   O     0.12797   0.57141   0.74633   0.00000  Uiso   1.00
O746   O     0.00326   0.45817   0.89721   0.00000  Uiso   1.00
O747   O     0.22858   0.58089   0.75586   0.00000  Uiso   1.00
O748   O     0.09181   0.49293   0.81839   0.00000  Uiso   1.00
O749   O     0.19242   0.50241   0.82793   0.00000  Uiso   1.00
O750   O     0.10476   0.41911   0.74413   0.00000  Uiso   1.00
O751   O     0.20536   0.42859   0.75367   0.00000  Uiso   1.00
O752   O     0.14092   0.49759   0.67207   0.00000  Uiso   1.00
O753   O     0.24152   0.50707   0.68160   0.00000  Uiso   1.00
O754   O     0.13332   0.44685   0.58129   0.00000  Uiso   1.00
C755   C     0.51517   0.60010   0.75144   0.00000  Uiso   1.00
C756   C     0.44450   0.49819   0.90421   0.00000  Uiso   1.00
C757   C     0.52381   0.65608   0.75184   0.00000  Uiso   1.00
C758   C     0.46609   0.49896   0.84750   0.00000  Uiso   1.00
C759   C     0.47620   0.34392   0.74800   0.00000  Uiso   1.00
C760   C     0.48483   0.39991   0.74855   0.00000  Uiso   1.00
C761   C     0.53413   0.50349   0.65281   0.00000  Uiso   1.00
C762   C     0.62355   0.56674   0.52822   0.00000  Uiso   1.00
C763   C     0.55529   0.51267   0.59754   0.00000  Uiso   1.00
C764   C     0.38182   0.47264   0.92671   0.00000  Uiso   1.00
C765   C     0.36410   0.46643   0.97992   0.00000  Uiso   1.00
C766   C     0.47254   0.50294   0.98839   0.00000  Uiso   1.00
C767   C     0.40882   0.48012   0.51015   0.00000  Uiso   1.00
C768   C     0.48913   0.40175   0.56038   0.00000  Uiso   1.00
C769   C     0.43792   0.35259   0.57686   0.00000  Uiso   1.00
C770   C     0.65102   0.40259   0.89495   0.00000  Uiso   1.00
C771   C     0.60877   0.38703   0.85638   0.00000  Uiso   1.00
C772   C     0.48802   0.51818   0.93636   0.00000  Uiso   1.00
C773   C     0.52042   0.51458   0.51761   0.00000  Uiso   1.00
C774   C     0.57815   0.55059   0.99810   0.00000  Uiso   1.00
C775   C     0.58943   0.57097   0.94915   0.00000  Uiso   1.00
C776   C     0.54547   0.55467   0.91853   0.00000  Uiso   1.00
C777   C     0.51344   0.49121   0.56542   0.00000  Uiso   1.00
C778   C     0.61126   0.54917   0.57832   0.00000  Uiso   1.00
Cu779  Cu    0.44043   0.49439   0.74435   0.00000  Uiso   1.00
Cu780  Cu    0.55957   0.50561   0.75564   0.00000  Uiso   1.00
H781   H     0.64432   0.56549   0.60255   0.00000  Uiso   1.00
H782   H     0.43030   0.65336   0.74448   0.00000  Uiso   1.00
H783   H     0.53170   0.39909   0.57460   0.00000  Uiso   1.00
H784   H     0.50103   0.40241   0.51756   0.00000  Uiso   1.00
H785   H     0.39497   0.35386   0.56278   0.00000  Uiso   1.00
H786   H     0.45503   0.65016   0.56054   0.00000  Uiso   1.00
H787   H     0.42566   0.35026   0.61943   0.00000  Uiso   1.00
H788   H     0.62358   0.38678   0.93299   0.00000  Uiso   1.00
H789   H     0.35933   0.38417   0.88212   0.00000  Uiso   1.00
H790   H     0.63513   0.40160   0.81774   0.00000  Uiso   1.00
H791   H     0.59328   0.34339   0.85431   0.00000  Uiso   1.00
H792   H     0.33685   0.53912   0.78984   0.00000  Uiso   1.00
H793   H     0.56639   0.40436   0.86824   0.00000  Uiso   1.00
H794   H     0.66309   0.46077   0.71027   0.00000  Uiso   1.00
H795   H     0.63267   0.59944   0.93426   0.00000  Uiso   1.00
H796   H     0.33400   0.59477   0.51379   0.00000  Uiso   1.00
H797   H     0.39152   0.47556   0.55104   0.00000  Uiso   1.00
H798   H     0.64860   0.45038   0.99802   0.00000  Uiso   1.00
H799   H     0.55594   0.57323   0.88169   0.00000  Uiso   1.00
H800   H     0.56975   0.34663   0.75518   0.00000  Uiso   1.00
N801   N     0.64908   0.51407   0.76416   0.00000  Uiso   1.00
N802   N     0.35092   0.48593   0.73584   0.00000  Uiso   1.00
O803   O     0.46131   0.57141   0.74633   0.00000  Uiso   1.00
O804   O     0.33659   0.45817   0.89721   0.00000  Uiso   1.00
O805   O     0.56191   0.58089   0.75586   0.00000  Uiso   1.00
O806   O     0.42515   0.49293   0.81839   0.00000  Uiso   1.00
O807   O     0.52575   0.50241   0.82793   0.00000  Uiso   1.00
O808   O     0.43809   0.41911   0.74413   0.00000  Uiso   1.00
O809   O     0.53869   0.42859   0.75367   0.00000  Uiso   1.00
O810   O     0.47425   0.49759   0.67207   0.00000  Uiso   1.00
O811   O     0.57485   0.50707   0.68160   0.00000  Uiso   1.00
O812   O     0.46665   0.44685   0.58129   0.00000  Uiso   1.00
C813   C     0.84851   0.60010   0.75144   0.00000  Uiso   1.00
C814   C     0.77783   0.49819   0.90421   0.00000  Uiso   1.00
C815   C     0.85715   0.65608   0.75184   0.00000  Uiso   1.00
C816   C     0.79942   0.49896   0.84750   0.00000  Uiso   1.00
C817   C     0.80953   0.34392   0.74800   0.00000  Uiso   1.00
C818   C     0.81816   0.39991   0.74855   0.00000  Uiso   1.00
C819   C     0.86746   0.50349   0.65281   0.00000  Uiso   1.00
C820   C     0.95688   0.56674   0.52822   0.00000  Uiso   1.00
C821   C     0.88863   0.51267   0.59754   0.00000  Uiso   1.00
C822   C     0.71515   0.47264   0.92671   0.00000  Uiso   1.00
C823   C     0.69743   0.46643   0.97992   0.00000  Uiso   1.00
C824   C     0.80587   0.50294   0.98839   0.00000  Uiso   1.00
C825   C     0.74215   0.48012   0.51015   0.00000  Uiso   1.00
C826   C     0.82246   0.40175   0.56038   0.00000  Uiso   1.00
C827   C     0.77125   0.35259   0.57686   0.00000  Uiso   1.00
C828   C     0.98436   0.40259   0.89495   0.00000  Uiso   1.00
C829   C     0.94211   0.38703   0.85638   0.00000  Uiso   1.00
C830   C     0.82135   0.51818   0.93636   0.00000  Uiso   1.00
C831   C     0.85375   0.51458   0.51761   0.00000  Uiso   1.00
C832   C     0.91149   0.55059   0.99810   0.00000  Uiso   1.00
C833   C     0.92276   0.57097   0.94915   0.00000  Uiso   1.00
C834   C     0.87880   0.55467   0.91853   0.00000  Uiso   1.00
C835   C     0.84677   0.49121   0.56542   0.00000  Uiso   1.00
C836   C     0.94460   0.54917   0.57832   0.00000  Uiso   1.00
Cu837  Cu    0.77377   0.49439   0.74435   0.00000  Uiso   1.00
Cu838  Cu    0.89290   0.50561   0.75564   0.00000  Uiso   1.00
H839   H     0.97766   0.56549   0.60255   0.00000  Uiso   1.00
H840   H     0.76363   0.65336   0.74448   0.00000  Uiso   1.00
H841   H     0.86503   0.39909   0.57460   0.00000  Uiso   1.00
H842   H     0.83436   0.40241   0.51756   0.00000  Uiso   1.00
H843   H     0.72830   0.35386   0.56278   0.00000  Uiso   1.00
H844   H     0.78836   0.65016   0.56054   0.00000  Uiso   1.00
H845   H     0.75899   0.35026   0.61943   0.00000  Uiso   1.00
H846   H     0.95691   0.38678   0.93299   0.00000  Uiso   1.00
H847   H     0.69266   0.38417   0.88212   0.00000  Uiso   1.00
H848   H     0.96847   0.40160   0.81774   0.00000  Uiso   1.00
H849   H     0.92662   0.34339   0.85431   0.00000  Uiso   1.00
H850   H     0.67018   0.53912   0.78984   0.00000  Uiso   1.00
H851   H     0.89973   0.40436   0.86824   0.00000  Uiso   1.00
H852   H     0.99642   0.46077   0.71027   0.00000  Uiso   1.00
H853   H     0.96600   0.59944   0.93426   0.00000  Uiso   1.00
H854   H     0.66733   0.59477   0.51379   0.00000  Uiso   1.00
H855   H     0.72485   0.47556   0.55104   0.00000  Uiso   1.00
H856   H     0.98193   0.45038   0.99802   0.00000  Uiso   1.00
H857   H     0.88927   0.57323   0.88169   0.00000  Uiso   1.00
H858   H     0.90308   0.34663   0.75518   0.00000  Uiso   1.00
N859   N     0.98241   0.51407   0.76416   0.00000  Uiso   1.00
N860   N     0.68426   0.48593   0.73584   0.00000  Uiso   1.00
O861   O     0.79464   0.57141   0.74633   0.00000  Uiso   1.00
O862   O     0.66992   0.45817   0.89721   0.00000  Uiso   1.00
O863   O     0.89524   0.58089   0.75586   0.00000  Uiso   1.00
O864   O     0.75848   0.49293   0.81839   0.00000  Uiso   1.00
O865   O     0.85908   0.50241   0.82793   0.00000  Uiso   1.00
O866   O     0.77142   0.41911   0.74413   0.00000  Uiso   1.00
O867   O     0.87203   0.42859   0.75367   0.00000  Uiso   1.00
O868   O     0.80758   0.49759   0.67207   0.00000  Uiso   1.00
O869   O     0.90819   0.50707   0.68160   0.00000  Uiso   1.00
O870   O     0.79998   0.44685   0.58129   0.00000  Uiso   1.00
C871   C     0.18184   0.93343   0.75144   0.00000  Uiso   1.00
C872   C     0.11116   0.83152   0.90421   0.00000  Uiso   1.00
C873   C     0.19048   0.98941   0.75184   0.00000  Uiso   1.00
C874   C     0.13276   0.83229   0.84750   0.00000  Uiso   1.00
C875   C     0.14286   0.67725   0.74800   0.00000  Uiso   1.00
C876   C     0.15149   0.73324   0.74855   0.00000  Uiso   1.00
C877   C     0.20079   0.83683   0.65281   0.00000  Uiso   1.00
C878   C     0.29021   0.90007   0.52822   0.00000  Uiso   1.00
C879   C     0.22196   0.84600   0.59754   0.00000  Uiso   1.00
C880   C     0.04848   0.80597   0.92671   0.00000  Uiso   1.00
C881   C     0.03076   0.79976   0.97992   0.00000  Uiso   1.00
C882   C     0.13921   0.83627   0.98839   0.00000  Uiso   1.00
C883   C     0.07548   0.81345   0.51015   0.00000  Uiso   1.00
C884   C     0.15580   0.73508   0.56038   0.00000  Uiso   1.00
C885   C     0.10459   0.68593   0.57686   0.00000  Uiso   1.00
C886   C     0.31769   0.73592   0.89495   0.00000  Uiso   1.00
C887   C     0.27544   0.72037   0.85638   0.00000  Uiso   1.00
C888   C     0.15468   0.85151   0.93636   0.00000  Uiso   1.00
C889   C     0.18708   0.84792   0.51761   0.00000  Uiso   1.00
C890   C     0.24482   0.88392   0.99810   0.00000  Uiso   1.00
C891   C     0.25610   0.90430   0.94915   0.00000  Uiso   1.00
C892   C     0.21214   0.88801   0.91853   0.00000  Uiso   1.00
C893   C     0.18011   0.82454   0.56542   0.00000  Uiso   1.00
C894   C     0.27793   0.88251   0.57832   0.00000  Uiso   1.00
Cu895  Cu    0.10710   0.82772   0.74435   0.00000  Uiso   1.00
Cu896  Cu    0.22623   0.83895   0.75564   0.00000  Uiso   1.00
H897   H     0.31099   0.89882   0.60255   0.00000  Uiso   1.00
H898   H     0.09696   0.98669   0.74448   0.00000  Uiso   1.00
H899   H     0.19837   0.73243   0.57460   0.00000  Uiso   1.00
H900   H     0.16770   0.73574   0.51756   0.00000  Uiso   1.00
H901   H     0.06164   0.68719   0.56278   0.00000  Uiso   1.00
H902   H     0.12169   0.98349   0.56054   0.00000  Uiso   1.00
H903   H     0.09232   0.68359   0.61943   0.00000  Uiso   1.00
H904   H     0.29024   0.72012   0.93299   0.00000  Uiso   1.00
H905   H     0.02599   0.71751   0.88212   0.00000  Uiso   1.00
H906   H     0.30180   0.73493   0.81774   0.00000  Uiso   1.00
H907   H     0.25995   0.67672   0.85431   0.00000  Uiso   1.00
H908   H     0.00351   0.87245   0.78984   0.00000  Uiso   1.00
H909   H     0.23306   0.73769   0.86824   0.00000  Uiso   1.00
H910   H     0.32975   0.79410   0.71027   0.00000  Uiso   1.00
H911   H     0.29934   0.93277   0.93426   0.00000  Uiso   1.00
H912   H     0.00066   0.92810   0.51379   0.00000  Uiso   1.00
H913   H     0.05819   0.80889   0.55104   0.00000  Uiso   1.00
H914   H     0.31527   0.78371   0.99802   0.00000  Uiso   1.00
H915   H     0.22260   0.90657   0.88169   0.00000  Uiso   1.00
H916   H     0.23642   0.67996   0.75518   0.00000  Uiso   1.00
N917   N     0.31574   0.84741   0.76416   0.00000  Uiso   1.00
N918   N     0.01759   0.81926   0.73584   0.00000  Uiso   1.00
O919   O     0.12797   0.90474   0.74633   0.00000  Uiso   1.00
O920   O     0.00326   0.79150   0.89721   0.00000  Uiso   1.00
O921   O     0.22858   0.91422   0.75586   0.00000  Uiso   1.00
O922   O     0.09181   0.82627   0.81839   0.00000  Uiso   1.00
O923   O     0.19242   0.83575   0.82793   0.00000  Uiso   1.00
O924   O     0.10476   0.75245   0.74413   0.00000  Uiso   1.00
O925   O     0.20536   0.76193   0.75367   0.00000  Uiso   1.00
O926   O     0.14092   0.83092   0.67207   0.00000  Uiso   1.00
O927   O     0.24152   0.84040   0.68160   0.00000  Uiso   1.00
O928   O     0.13332   0.78019   0.58129   0.00000  Uiso   1.00
C929   C     0.51517   0.93343   0.75144   0.00000  Uiso   1.00
C930   C     0.44450   0.83152   0.90421   0.00000  Uiso   1.00
C931   C     0.52381   0.98941   0.75184   0.00000  Uiso   1.00
C932   C     0.46609   0.83229   0.84750   0.00000  Uiso   1.00
C933   C     0.47620   0.67725   0.74800   0.00000  Uiso   1.00
C934   C     0.48483   0.73324   0.74855   0.00000  Uiso   1.00
C935   C     0.53413   0.83683   0.65281   0.00000  Uiso   1.00
C936   C     0.62355   0.90007   0.52822   0.00000  Uiso   1.00
C937   C     0.55529   0.84600   0.59754   0.00000  Uiso   1.00
C938   C     0.38182   0.80597   0.92671   0.00000  Uiso   1.00
C939   C     0.36410   0.79976   0.97992   0.00000  Uiso   1.00
C940   C     0.47254   0.83627   0.98839   0.00000  Uiso   1.00
C941   C     0.40882   0.81345   0.51015   0.00000  Uiso   1.00
C942   C     0.48913   0.73508   0.56038   0.00000  Uiso   1.00
C943   C     0.43792   0.68593   0.57686   0.00000  Uiso   1.00
C944   C     0.65102   0.73592   0.89495   0.00000  Uiso   1.00
C945   C     0.60877   0.72037   0.85638   0.00000  Uiso   1.00
C946   C     0.48802   0.85151   0.93636   0.00000  Uiso   1.00
C947   C     0.52042   0.84792   0.51761   0.00000  Uiso   1.00
C948   C     0.57815   0.88392   0.99810   0.00000  Uiso   1.00
C949   C     0.58943   0.90430   0.94915   0.00000  Uiso   1.00
C950   C     0.54547   0.88801   0.91853   0.00000  Uiso   1.00
C951   C     0.51344   0.82454   0.56542   0.00000  Uiso   1.00
C952   C     0.61126   0.88251   0.57832   0.00000  Uiso   1.00
Cu953  Cu    0.44043   0.82772   0.74435   0.00000  Uiso   1.00
Cu954  Cu    0.55957   0.83895   0.75564   0.00000  Uiso   1.00
H955   H     0.64432   0.89882   0.60255   0.00000  Uiso   1.00
H956   H     0.43030   0.98669   0.74448   0.00000  Uiso   1.00
H957   H     0.53170   0.73243   0.57460   0.00000  Uiso   1.00
H958   H     0.50103   0.73574   0.51756   0.00000  Uiso   1.00
H959   H     0.39497   0.68719   0.56278   0.00000  Uiso   1.00
H960   H     0.45503   0.98349   0.56054   0.00000  Uiso   1.00
H961   H     0.42566   0.68359   0.61943   0.00000  Uiso   1.00
H962   H     0.62358   0.72012   0.93299   0.00000  Uiso   1.00
H963   H     0.35933   0.71751   0.88212   0.00000  Uiso   1.00
H964   H     0.63513   0.73493   0.81774   0.00000  Uiso   1.00
H965   H     0.59328   0.67672   0.85431   0.00000  Uiso   1.00
H966   H     0.33685   0.87245   0.78984   0.00000  Uiso   1.00
H967   H     0.56639   0.73769   0.86824   0.00000  Uiso   1.00
H968   H     0.66309   0.79410   0.71027   0.00000  Uiso   1.00
H969   H     0.63267   0.93277   0.93426   0.00000  Uiso   1.00
H970   H     0.33400   0.92810   0.51379   0.00000  Uiso   1.00
H971   H     0.39152   0.80889   0.55104   0.00000  Uiso   1.00
H972   H     0.64860   0.78371   0.99802   0.00000  Uiso   1.00
H973   H     0.55594   0.90657   0.88169   0.00000  Uiso   1.00
H974   H     0.56975   0.67996   0.75518   0.00000  Uiso   1.00
N975   N     0.64908   0.84741   0.76416   0.00000  Uiso   1.00
N976   N     0.35092   0.81926   0.73584   0.00000  Uiso   1.00
O977   O     0.46131   0.90474   0.74633   0.00000  Uiso   1.00
O978   O     0.33659   0.79150   0.89721   0.00000  Uiso   1.00
O979   O     0.56191   0.91422   0.75586   0.00000  Uiso   1.00
O980   O     0.42515   0.82627   0.81839   0.00000  Uiso   1.00
O981   O     0.52575   0.83575   0.82793   0.00000  Uiso   1.00
O982   O     0.43809   0.75245   0.74413   0.00000  Uiso   1.00
O983   O     0.53869   0.76193   0.75367   0.00000  Uiso   1.00
O984   O     0.47425   0.83092   0.67207   0.00000  Uiso   1.00
O985   O     0.57485   0.84040   0.68160   0.00000  Uiso   1.00
O986   O     0.46665   0.78019   0.58129   0.00000  Uiso   1.00
C987   C     0.84851   0.93343   0.75144   0.00000  Uiso   1.00
C988   C     0.77783   0.83152   0.90421   0.00000  Uiso   1.00
C989   C     0.85715   0.98941   0.75184   0.00000  Uiso   1.00
C990   C     0.79942   0.83229   0.84750   0.00000  Uiso   1.00
C991   C     0.80953   0.67725   0.74800   0.00000  Uiso   1.00
C992   C     0.81816   0.73324   0.74855   0.00000  Uiso   1.00
C993   C     0.86746   0.83683   0.65281   0.00000  Uiso   1.00
C994   C     0.95688   0.90007   0.52822   0.00000  Uiso   1.00
C995   C     0.88863   0.84600   0.59754   0.00000  Uiso   1.00
C996   C     0.71515   0.80597   0.92671   0.00000  Uiso   1.00
C997   C     0.69743   0.79976   0.97992   0.00000  Uiso   1.00
C998   C     0.80587   0.83627   0.98839   0.00000  Uiso   1.00
C999   C     0.74215   0.81345   0.51015   0.00000  Uiso   1.00
C1000  C     0.82246   0.73508   0.56038   0.00000  Uiso   1.00
C1001  C     0.77125   0.68593   0.57686   0.00000  Uiso   1.00
C1002  C     0.98436   0.73592   0.89495   0.00000  Uiso   1.00
C1003  C     0.94211   0.72037   0.85638   0.00000  Uiso   1.00
C1004  C     0.82135   0.85151   0.93636   0.00000  Uiso   1.00
C1005  C     0.85375   0.84792   0.51761   0.00000  Uiso   1.00
C1006  C     0.91149   0.88392   0.99810   0.00000  Uiso   1.00
C1007  C     0.92276   0.90430   0.94915   0.00000  Uiso   1.00
C1008  C     0.87880   0.88801   0.91853   0.00000  Uiso   1.00
C1009  C     0.84677   0.82454   0.56542   0.00000  Uiso   1.00
C1010  C     0.94460   0.88251   0.57832   0.00000  Uiso   1.00
Cu1011 Cu    0.77377   0.82772   0.74435   0.00000  Uiso   1.00
Cu1012 Cu    0.89290   0.83895   0.75564   0.00000  Uiso   1.00
H1013  H     0.97766   0.89882   0.60255   0.00000  Uiso   1.00
H1014  H     0.76363   0.98669   0.74448   0.00000  Uiso   1.00
H1015  H     0.86503   0.73243   0.57460   0.00000  Uiso   1.00
H1016  H     0.83436   0.73574   0.51756   0.00000  Uiso   1.00
H1017  H     0.72830   0.68719   0.56278   0.00000  Uiso   1.00
H1018  H     0.78836   0.98349   0.56054   0.00000  Uiso   1.00
H1019  H     0.75899   0.68359   0.61943   0.00000  Uiso   1.00
H1020  H     0.95691   0.72012   0.93299   0.00000  Uiso   1.00
H1021  H     0.69266   0.71751   0.88212   0.00000  Uiso   1.00
H1022  H     0.96847   0.73493   0.81774   0.00000  Uiso   1.00
H1023  H     0.92662   0.67672   0.85431   0.00000  Uiso   1.00
H1024  H     0.67018   0.87245   0.78984   0.00000  Uiso   1.00
H1025  H     0.89973   0.73769   0.86824   0.00000  Uiso   1.00
H1026  H     0.99642   0.79410   0.71027   0.00000  Uiso   1.00
H1027  H     0.96600   0.93277   0.93426   0.00000  Uiso   1.00
H1028  H     0.66733   0.92810   0.51379   0.00000  Uiso   1.00
H1029  H     0.72485   0.80889   0.55104   0.00000  Uiso   1.00
H1030  H     0.98193   0.78371   0.99802   0.00000  Uiso   1.00
H1031  H     0.88927   0.90657   0.88169   0.00000  Uiso   1.00
H1032  H     0.90308   0.67996   0.75518   0.00000  Uiso   1.00
N1033  N     0.98241   0.84741   0.76416   0.00000  Uiso   1.00
N1034  N     0.68426   0.81926   0.73584   0.00000  Uiso   1.00
O1035  O     0.79464   0.90474   0.74633   0.00000  Uiso   1.00
O1036  O     0.66992   0.79150   0.89721   0.00000  Uiso   1.00
O1037  O     0.89524   0.91422   0.75586   0.00000  Uiso   1.00
O1038  O     0.75848   0.82627   0.81839   0.00000  Uiso   1.00
O1039  O     0.85908   0.83575   0.82793   0.00000  Uiso   1.00
O1040  O     0.77142   0.75245   0.74413   0.00000  Uiso   1.00
O1041  O     0.87203   0.76193   0.75367   0.00000  Uiso   1.00
O1042  O     0.80758   0.83092   0.67207   0.00000  Uiso   1.00
O1043  O     0.90819   0.84040   0.68160   0.00000  Uiso   1.00
O1044  O     0.79998   0.78019   0.58129   0.00000  Uiso   1.00
loop_
_geom_bond_atom_site_label_1
_geom_bond_atom_site_label_2
_geom_bond_distance
_geom_bond_site_symmetry_2
_ccdc_geom_bond_type
C1     O51     1.284   .     A
C1     O49     1.290   .     A
C1     C3      1.425   .     S
C2     C4      1.483   .     S
C2     C18     1.424   .     A
C2     C10     1.415   .     A
C3     C179    1.328   .     S
C3     H220    1.087   .     S
C4     O53     1.298   .     A
C4     O52     1.302   .     A
C5     C6      1.425   .     S
C5     C351    1.328   1_545 S
C5     H376    1.088   1_545 S
C6     O55     1.290   .     A
C6     O54     1.284   .     A
C7     O57     1.299   .     A
C7     O56     1.294   .     A
C7     C9      1.464   .     S
C8     C24     1.392   .     A
C8     C542    1.403   1_554 S
C8     H100    1.084   .     S
C9     C24     1.399   .     A
C9     C23     1.404   .     A
C10    C11     1.398   .     A
C10    O50     1.385   .     S
C11    C535    1.389   .     S
C11    H160    1.083   1_455 S
C12    C18     1.416   .     A
C12    C535    1.412   .     S
C12    C541    1.425   .     S
C13    H43     1.079   .     S
C13    C534    1.412   1_554 S
C13    C533    1.389   1_554 S
C14    H30     1.115   .     S
C14    O58     1.412   .     S
C14    H29     1.115   .     S
C14    C15     1.521   .     S
C15    H31     1.111   .     S
C15    H33     1.111   .     S
C15    H380    1.111   1_545 S
C16    H34     1.113   .     S
C16    C17     1.521   .     S
C16    H93     1.116   .     S
C16    O108    1.412   .     S
C17    H36     1.111   .     S
C17    H37     1.111   .     S
C17    H39     1.111   .     S
C18    C22     1.413   .     A
C19    C23     1.415   .     A
C19    C534    1.425   1_554 S
C19    C542    1.420   1_554 S
C20    C21     1.393   .     A
C20    C541    1.420   .     S
C20    C530    1.403   .     S
C21    C22     1.388   .     A
C21    H41     1.084   .     S
C22    H45     1.080   .     S
C23    O58     1.384   .     S
C24    H27     1.083   .     S
Cu25   O56     1.909   .     S
Cu25   O52     1.932   .     S
Cu25   N48     2.016   .     S
Cu25   O54     1.948   .     S
Cu25   O49     1.952   .     S
Cu25   Cu26    2.683   .     S
Cu26   O55     1.952   .     S
Cu26   N47     2.016   .     S
Cu26   O57     1.932   .     S
Cu26   O51     1.948   .     S
Cu26   O53     1.909   .     S
H28    C179    1.088   .     S
H32    C189    1.111   .     S
H35    C132    1.116   1_455 S
H38    N163    1.029   1_455 S
H40    N106    1.029   .     S
H42    C124    1.084   1_455 S
H44    C69     1.083   .     S
H46    C351    1.087   1_545 S
N47    H96     1.029   .     S
N47    N106    1.282   .     S
N48    N163    1.282   1_455 S
N48    H156    1.029   1_455 S
O50    C132    1.412   1_455 S
C59    O109    1.284   .     A
C59    O107    1.290   .     A
C59    C61     1.425   .     S
C60    C62     1.483   .     S
C60    C76     1.424   .     A
C60    C68     1.415   .     A
C61    C237    1.328   .     S
C61    H278    1.087   .     S
C62    O111    1.298   .     A
C62    O110    1.302   .     A
C63    C64     1.425   .     S
C63    C409    1.328   1_545 S
C63    H434    1.088   1_545 S
C64    O113    1.290   .     A
C64    O112    1.284   .     A
C65    O115    1.299   .     A
C65    O114    1.294   .     A
C65    C67     1.464   .     S
C66    C82     1.392   .     A
C66    C600    1.403   1_554 S
C66    H158    1.084   .     S
C67    C82     1.399   .     A
C67    C81     1.404   .     A
C68    C69     1.398   .     A
C68    O108    1.385   .     S
C69    C593    1.389   .     S
C70    C76     1.416   .     A
C70    C593    1.412   .     S
C70    C599    1.425   .     S
C71    H101    1.079   .     S
C71    C592    1.412   1_554 S
C71    C591    1.389   1_554 S
C72    H88     1.115   .     S
C72    O116    1.412   .     S
C72    H87     1.115   .     S
C72    C73     1.521   .     S
C73    H89     1.111   .     S
C73    H91     1.111   .     S
C73    H438    1.111   1_545 S
C74    H92     1.113   .     S
C74    C75     1.521   .     S
C74    H151    1.116   .     S
C74    O166    1.412   .     S
C75    H94     1.111   .     S
C75    H95     1.111   .     S
C75    H97     1.111   .     S
C76    C80     1.413   .     A
C77    C81     1.415   .     A
C77    C592    1.425   1_554 S
C77    C600    1.420   1_554 S
C78    C79     1.393   .     A
C78    C599    1.420   .     S
C78    C588    1.403   .     S
C79    C80     1.388   .     A
C79    H99     1.084   .     S
C80    H103    1.080   .     S
C81    O116    1.384   .     S
C82    H85     1.083   .     S
Cu83   O114    1.909   .     S
Cu83   O110    1.932   .     S
Cu83   N106    2.016   .     S
Cu83   O112    1.948   .     S
Cu83   O107    1.952   .     S
Cu83   Cu84    2.683   .     S
Cu84   O113    1.952   .     S
Cu84   N105    2.016   .     S
Cu84   O115    1.932   .     S
Cu84   O109    1.948   .     S
Cu84   O111    1.909   .     S
H86    C237    1.088   .     S
H90    C247    1.111   .     S
H98    N164    1.029   .     S
H102   C127    1.083   .     S
H104   C409    1.087   1_545 S
N105   H154    1.029   .     S
N105   N164    1.282   .     S
C117   O167    1.284   .     A
C117   O165    1.290   .     A
C117   C119    1.425   .     S
C118   C120    1.483   .     S
C118   C134    1.424   .     A
C118   C126    1.415   .     A
C119   C295    1.328   .     S
C119   H336    1.087   .     S
C120   O169    1.298   .     A
C120   O168    1.302   .     A
C121   C122    1.425   .     S
C121   C467    1.328   1_545 S
C121   H492    1.088   1_545 S
C122   O171    1.290   .     A
C122   O170    1.284   .     A
C123   O173    1.299   .     A
C123   O172    1.294   .     A
C123   C125    1.464   .     S
C124   C140    1.392   .     A
C124   C658    1.403   1_554 S
C124   H42     1.084   1_655 S
C125   C140    1.399   .     A
C125   C139    1.404   .     A
C126   C127    1.398   .     A
C126   O166    1.385   .     S
C127   C651    1.389   .     S
C128   C134    1.416   .     A
C128   C651    1.412   .     S
C128   C657    1.425   .     S
C129   H159    1.079   .     S
C129   C650    1.412   1_554 S
C129   C649    1.389   1_554 S
C130   H146    1.115   .     S
C130   O174    1.412   .     S
C130   H145    1.115   .     S
C130   C131    1.521   .     S
C131   H147    1.111   .     S
C131   H149    1.111   .     S
C131   H496    1.111   1_545 S
C132   H150    1.113   .     S
C132   C133    1.521   .     S
C132   H35     1.116   1_655 S
C132   O50     1.412   1_655 S
C133   H152    1.111   .     S
C133   H153    1.111   .     S
C133   H155    1.111   .     S
C134   C138    1.413   .     A
C135   C139    1.415   .     A
C135   C650    1.425   1_554 S
C135   C658    1.420   1_554 S
C136   C137    1.393   .     A
C136   C657    1.420   .     S
C136   C646    1.403   .     S
C137   C138    1.388   .     A
C137   H157    1.084   .     S
C138   H161    1.080   .     S
C139   O174    1.384   .     S
C140   H143    1.083   .     S
Cu141  O172    1.909   .     S
Cu141  O168    1.932   .     S
Cu141  N164    2.016   .     S
Cu141  O170    1.948   .     S
Cu141  O165    1.952   .     S
Cu141  Cu142   2.683   .     S
Cu142  O171    1.952   .     S
Cu142  N163    2.016   .     S
Cu142  O173    1.932   .     S
Cu142  O167    1.948   .     S
Cu142  O169    1.909   .     S
H144   C295    1.088   .     S
H148   C305    1.111   .     S
H156   N48     1.029   1_655 S
H160   C11     1.083   1_655 S
H162   C467    1.087   1_545 S
N163   H38     1.029   1_655 S
N163   N48     1.282   1_655 S
C175   O225    1.284   .     A
C175   O223    1.290   .     A
C175   C177    1.425   .     S
C176   C178    1.483   .     S
C176   C192    1.424   .     A
C176   C184    1.415   .     A
C177   C353    1.328   .     S
C177   H394    1.087   .     S
C178   O227    1.298   .     A
C178   O226    1.302   .     A
C179   C180    1.425   .     S
C180   O229    1.290   .     A
C180   O228    1.284   .     A
C181   O231    1.299   .     A
C181   O230    1.294   .     A
C181   C183    1.464   .     S
C182   C198    1.392   .     A
C182   C716    1.403   1_554 S
C182   H274    1.084   .     S
C183   C198    1.399   .     A
C183   C197    1.404   .     A
C184   C185    1.398   .     A
C184   O224    1.385   .     S
C185   C709    1.389   .     S
C185   H334    1.083   1_455 S
C186   C192    1.416   .     A
C186   C709    1.412   .     S
C186   C715    1.425   .     S
C187   H217    1.079   .     S
C187   C708    1.412   1_554 S
C187   C707    1.389   1_554 S
C188   H204    1.115   .     S
C188   O232    1.412   .     S
C188   H203    1.115   .     S
C188   C189    1.521   .     S
C189   H205    1.111   .     S
C189   H207    1.111   .     S
C190   H208    1.113   .     S
C190   C191    1.521   .     S
C190   H267    1.116   .     S
C190   O282    1.412   .     S
C191   H210    1.111   .     S
C191   H211    1.111   .     S
C191   H213    1.111   .     S
C192   C196    1.413   .     A
C193   C197    1.415   .     A
C193   C708    1.425   1_554 S
C193   C716    1.420   1_554 S
C194   C195    1.393   .     A
C194   C715    1.420   .     S
C194   C704    1.403   .     S
C195   C196    1.388   .     A
C195   H215    1.084   .     S
C196   H219    1.080   .     S
C197   O232    1.384   .     S
C198   H201    1.083   .     S
Cu199  O230    1.909   .     S
Cu199  O226    1.932   .     S
Cu199  N222    2.016   .     S
Cu199  O228    1.948   .     S
Cu199  O223    1.952   .     S
Cu199  Cu200   2.683   .     S
Cu200  O229    1.952   .     S
Cu200  N221    2.016   .     S
Cu200  O231    1.932   .     S
Cu200  O225    1.948   .     S
Cu200  O227    1.909   .     S
H202   C353    1.088   .     S
H206   C363    1.111   .     S
H209   C306    1.116   1_455 S
H212   N337    1.029   1_455 S
H214   N280    1.029   .     S
H216   C298    1.084   1_455 S
H218   C243    1.083   .     S
N221   H270    1.029   .     S
N221   N280    1.282   .     S
N222   N337    1.282   1_455 S
N222   H330    1.029   1_455 S
O224   C306    1.412   1_455 S
C233   O283    1.284   .     A
C233   O281    1.290   .     A
C233   C235    1.425   .     S
C234   C236    1.483   .     S
C234   C250    1.424   .     A
C234   C242    1.415   .     A
C235   C411    1.328   .     S
C235   H452    1.087   .     S
C236   O285    1.298   .     A
C236   O284    1.302   .     A
C237   C238    1.425   .     S
C238   O287    1.290   .     A
C238   O286    1.284   .     A
C239   O289    1.299   .     A
C239   O288    1.294   .     A
C239   C241    1.464   .     S
C240   C256    1.392   .     A
C240   C774    1.403   1_554 S
C240   H332    1.084   .     S
C241   C256    1.399   .     A
C241   C255    1.404   .     A
C242   C243    1.398   .     A
C242   O282    1.385   .     S
C243   C767    1.389   .     S
C244   C250    1.416   .     A
C244   C767    1.412   .     S
C244   C773    1.425   .     S
C245   H275    1.079   .     S
C245   C766    1.412   1_554 S
C245   C765    1.389   1_554 S
C246   H262    1.115   .     S
C246   O290    1.412   .     S
C246   H261    1.115   .     S
C246   C247    1.521   .     S
C247   H263    1.111   .     S
C247   H265    1.111   .     S
C248   H266    1.113   .     S
C248   C249    1.521   .     S
C248   H325    1.116   .     S
C248   O340    1.412   .     S
C249   H268    1.111   .     S
C249   H269    1.111   .     S
C249   H271    1.111   .     S
C250   C254    1.413   .     A
C251   C255    1.415   .     A
C251   C766    1.425   1_554 S
C251   C774    1.420   1_554 S
C252   C253    1.393   .     A
C252   C773    1.420   .     S
C252   C762    1.403   .     S
C253   C254    1.388   .     A
C253   H273    1.084   .     S
C254   H277    1.080   .     S
C255   O290    1.384   .     S
C256   H259    1.083   .     S
Cu257  O288    1.909   .     S
Cu257  O284    1.932   .     S
Cu257  N280    2.016   .     S
Cu257  O286    1.948   .     S
Cu257  O281    1.952   .     S
Cu257  Cu258   2.683   .     S
Cu258  O287    1.952   .     S
Cu258  N279    2.016   .     S
Cu258  O289    1.932   .     S
Cu258  O283    1.948   .     S
Cu258  O285    1.909   .     S
H260   C411    1.088   .     S
H264   C421    1.111   .     S
H272   N338    1.029   .     S
H276   C301    1.083   .     S
N279   H328    1.029   .     S
N279   N338    1.282   .     S
C291   O341    1.284   .     A
C291   O339    1.290   .     A
C291   C293    1.425   .     S
C292   C294    1.483   .     S
C292   C308    1.424   .     A
C292   C300    1.415   .     A
C293   C469    1.328   .     S
C293   H510    1.087   .     S
C294   O343    1.298   .     A
C294   O342    1.302   .     A
C295   C296    1.425   .     S
C296   O345    1.290   .     A
C296   O344    1.284   .     A
C297   O347    1.299   .     A
C297   O346    1.294   .     A
C297   C299    1.464   .     S
C298   C314    1.392   .     A
C298   C832    1.403   1_554 S
C298   H216    1.084   1_655 S
C299   C314    1.399   .     A
C299   C313    1.404   .     A
C300   C301    1.398   .     A
C300   O340    1.385   .     S
C301   C825    1.389   .     S
C302   C308    1.416   .     A
C302   C825    1.412   .     S
C302   C831    1.425   .     S
C303   H333    1.079   .     S
C303   C824    1.412   1_554 S
C303   C823    1.389   1_554 S
C304   H320    1.115   .     S
C304   O348    1.412   .     S
C304   H319    1.115   .     S
C304   C305    1.521   .     S
C305   H321    1.111   .     S
C305   H323    1.111   .     S
C306   H324    1.113   .     S
C306   C307    1.521   .     S
C306   H209    1.116   1_655 S
C306   O224    1.412   1_655 S
C307   H326    1.111   .     S
C307   H327    1.111   .     S
C307   H329    1.111   .     S
C308   C312    1.413   .     A
C309   C313    1.415   .     A
C309   C824    1.425   1_554 S
C309   C832    1.420   1_554 S
C310   C311    1.393   .     A
C310   C831    1.420   .     S
C310   C820    1.403   .     S
C311   C312    1.388   .     A
C311   H331    1.084   .     S
C312   H335    1.080   .     S
C313   O348    1.384   .     S
C314   H317    1.083   .     S
Cu315  O346    1.909   .     S
Cu315  O342    1.932   .     S
Cu315  N338    2.016   .     S
Cu315  O344    1.948   .     S
Cu315  O339    1.952   .     S
Cu315  Cu316   2.683   .     S
Cu316  O345    1.952   .     S
Cu316  N337    2.016   .     S
Cu316  O347    1.932   .     S
Cu316  O341    1.948   .     S
Cu316  O343    1.909   .     S
H318   C469    1.088   .     S
H322   C479    1.111   .     S
H330   N222    1.029   1_655 S
H334   C185    1.083   1_655 S
N337   H212    1.029   1_655 S
N337   N222    1.282   1_655 S
C349   O399    1.284   .     A
C349   O397    1.290   .     A
C349   C351    1.425   .     S
C350   C352    1.483   .     S
C350   C366    1.424   .     A
C350   C358    1.415   .     A
C351   C5      1.328   1_565 S
C351   H46     1.087   1_565 S
C352   O401    1.298   .     A
C352   O400    1.302   .     A
C353   C354    1.425   .     S
C354   O403    1.290   .     A
C354   O402    1.284   .     A
C355   O405    1.299   .     A
C355   O404    1.294   .     A
C355   C357    1.464   .     S
C356   C372    1.392   .     A
C356   C890    1.403   1_554 S
C356   H448    1.084   .     S
C357   C372    1.399   .     A
C357   C371    1.404   .     A
C358   C359    1.398   .     A
C358   O398    1.385   .     S
C359   C883    1.389   .     S
C359   H508    1.083   1_455 S
C360   C366    1.416   .     A
C360   C883    1.412   .     S
C360   C889    1.425   .     S
C361   H391    1.079   .     S
C361   C882    1.412   1_554 S
C361   C881    1.389   1_554 S
C362   H378    1.115   .     S
C362   O406    1.412   .     S
C362   H377    1.115   .     S
C362   C363    1.521   .     S
C363   H379    1.111   .     S
C363   H381    1.111   .     S
C364   H382    1.113   .     S
C364   C365    1.521   .     S
C364   H441    1.116   .     S
C364   O456    1.412   .     S
C365   H384    1.111   .     S
C365   H385    1.111   .     S
C365   H387    1.111   .     S
C366   C370    1.413   .     A
C367   C371    1.415   .     A
C367   C882    1.425   1_554 S
C367   C890    1.420   1_554 S
C368   C369    1.393   .     A
C368   C889    1.420   .     S
C368   C878    1.403   .     S
C369   C370    1.388   .     A
C369   H389    1.084   .     S
C370   H393    1.080   .     S
C371   O406    1.384   .     S
C372   H375    1.083   .     S
Cu373  O404    1.909   .     S
Cu373  O400    1.932   .     S
Cu373  N396    2.016   .     S
Cu373  O402    1.948   .     S
Cu373  O397    1.952   .     S
Cu373  Cu374   2.683   .     S
Cu374  O403    1.952   .     S
Cu374  N395    2.016   .     S
Cu374  O405    1.932   .     S
Cu374  O399    1.948   .     S
Cu374  O401    1.909   .     S
H376   C5      1.088   1_565 S
H380   C15     1.111   1_565 S
H383   C480    1.116   1_455 S
H386   N511    1.029   1_455 S
H388   N454    1.029   .     S
H390   C472    1.084   1_455 S
H392   C417    1.083   .     S
N395   H444    1.029   .     S
N395   N454    1.282   .     S
N396   N511    1.282   1_455 S
N396   H504    1.029   1_455 S
O398   C480    1.412   1_455 S
C407   O457    1.284   .     A
C407   O455    1.290   .     A
C407   C409    1.425   .     S
C408   C410    1.483   .     S
C408   C424    1.424   .     A
C408   C416    1.415   .     A
C409   C63     1.328   1_565 S
C409   H104    1.087   1_565 S
C410   O459    1.298   .     A
C410   O458    1.302   .     A
C411   C412    1.425   .     S
C412   O461    1.290   .     A
C412   O460    1.284   .     A
C413   O463    1.299   .     A
C413   O462    1.294   .     A
C413   C415    1.464   .     S
C414   C430    1.392   .     A
C414   C948    1.403   1_554 S
C414   H506    1.084   .     S
C415   C430    1.399   .     A
C415   C429    1.404   .     A
C416   C417    1.398   .     A
C416   O456    1.385   .     S
C417   C941    1.389   .     S
C418   C424    1.416   .     A
C418   C941    1.412   .     S
C418   C947    1.425   .     S
C419   H449    1.079   .     S
C419   C940    1.412   1_554 S
C419   C939    1.389   1_554 S
C420   H436    1.115   .     S
C420   O464    1.412   .     S
C420   H435    1.115   .     S
C420   C421    1.521   .     S
C421   H437    1.111   .     S
C421   H439    1.111   .     S
C422   H440    1.113   .     S
C422   C423    1.521   .     S
C422   H499    1.116   .     S
C422   O514    1.412   .     S
C423   H442    1.111   .     S
C423   H443    1.111   .     S
C423   H445    1.111   .     S
C424   C428    1.413   .     A
C425   C429    1.415   .     A
C425   C940    1.425   1_554 S
C425   C948    1.420   1_554 S
C426   C427    1.393   .     A
C426   C947    1.420   .     S
C426   C936    1.403   .     S
C427   C428    1.388   .     A
C427   H447    1.084   .     S
C428   H451    1.080   .     S
C429   O464    1.384   .     S
C430   H433    1.083   .     S
Cu431  O462    1.909   .     S
Cu431  O458    1.932   .     S
Cu431  N454    2.016   .     S
Cu431  O460    1.948   .     S
Cu431  O455    1.952   .     S
Cu431  Cu432   2.683   .     S
Cu432  O461    1.952   .     S
Cu432  N453    2.016   .     S
Cu432  O463    1.932   .     S
Cu432  O457    1.948   .     S
Cu432  O459    1.909   .     S
H434   C63     1.088   1_565 S
H438   C73     1.111   1_565 S
H446   N512    1.029   .     S
H450   C475    1.083   .     S
N453   H502    1.029   .     S
N453   N512    1.282   .     S
C465   O515    1.284   .     A
C465   O513    1.290   .     A
C465   C467    1.425   .     S
C466   C468    1.483   .     S
C466   C482    1.424   .     A
C466   C474    1.415   .     A
C467   C121    1.328   1_565 S
C467   H162    1.087   1_565 S
C468   O517    1.298   .     A
C468   O516    1.302   .     A
C469   C470    1.425   .     S
C470   O519    1.290   .     A
C470   O518    1.284   .     A
C471   O521    1.299   .     A
C471   O520    1.294   .     A
C471   C473    1.464   .     S
C472   C488    1.392   .     A
C472   C1006   1.403   1_554 S
C472   H390    1.084   1_655 S
C473   C488    1.399   .     A
C473   C487    1.404   .     A
C474   C475    1.398   .     A
C474   O514    1.385   .     S
C475   C999    1.389   .     S
C476   C482    1.416   .     A
C476   C999    1.412   .     S
C476   C1005   1.425   .     S
C477   H507    1.079   .     S
C477   C998    1.412   1_554 S
C477   C997    1.389   1_554 S
C478   H494    1.115   .     S
C478   O522    1.412   .     S
C478   H493    1.115   .     S
C478   C479    1.521   .     S
C479   H495    1.111   .     S
C479   H497    1.111   .     S
C480   H498    1.113   .     S
C480   C481    1.521   .     S
C480   H383    1.116   1_655 S
C480   O398    1.412   1_655 S
C481   H500    1.111   .     S
C481   H501    1.111   .     S
C481   H503    1.111   .     S
C482   C486    1.413   .     A
C483   C487    1.415   .     A
C483   C998    1.425   1_554 S
C483   C1006   1.420   1_554 S
C484   C485    1.393   .     A
C484   C1005   1.420   .     S
C484   C994    1.403   .     S
C485   C486    1.388   .     A
C485   H505    1.084   .     S
C486   H509    1.080   .     S
C487   O522    1.384   .     S
C488   H491    1.083   .     S
Cu489  O520    1.909   .     S
Cu489  O516    1.932   .     S
Cu489  N512    2.016   .     S
Cu489  O518    1.948   .     S
Cu489  O513    1.952   .     S
Cu489  Cu490   2.683   .     S
Cu490  O519    1.952   .     S
Cu490  N511    2.016   .     S
Cu490  O521    1.932   .     S
Cu490  O515    1.948   .     S
Cu490  O517    1.909   .     S
H492   C121    1.088   1_565 S
H496   C131    1.111   1_565 S
H504   N396    1.029   1_655 S
H508   C359    1.083   1_655 S
N511   H386    1.029   1_655 S
N511   N396    1.282   1_655 S
C523   O573    1.284   .     A
C523   O571    1.290   .     A
C523   C525    1.425   .     S
C524   C526    1.483   .     S
C524   C540    1.424   .     A
C524   C532    1.415   .     A
C525   C701    1.328   .     S
C525   H742    1.087   .     S
C526   O575    1.298   .     A
C526   O574    1.302   .     A
C527   C528    1.425   .     S
C527   C873    1.328   1_545 S
C527   H898    1.088   1_545 S
C528   O577    1.290   .     A
C528   O576    1.284   .     A
C529   O579    1.299   .     A
C529   O578    1.294   .     A
C529   C531    1.464   .     S
C530   C546    1.392   .     A
C530   H622    1.084   .     S
C531   C546    1.399   .     A
C531   C545    1.404   .     A
C532   C533    1.398   .     A
C532   O572    1.385   .     S
C533   C13     1.389   1_556 S
C533   H682    1.083   1_455 S
C534   C540    1.416   .     A
C534   C13     1.412   1_556 S
C534   C19     1.425   1_556 S
C535   H565    1.079   .     S
C536   H552    1.115   .     S
C536   O580    1.412   .     S
C536   H551    1.115   .     S
C536   C537    1.521   .     S
C537   H553    1.111   .     S
C537   H555    1.111   .     S
C537   H902    1.111   1_545 S
C538   H556    1.113   .     S
C538   C539    1.521   .     S
C538   H615    1.116   .     S
C538   O630    1.412   .     S
C539   H558    1.111   .     S
C539   H559    1.111   .     S
C539   H561    1.111   .     S
C540   C544    1.413   .     A
C541   C545    1.415   .     A
C542   C543    1.393   .     A
C542   C19     1.420   1_556 S
C542   C8      1.403   1_556 S
C543   C544    1.388   .     A
C543   H563    1.084   .     S
C544   H567    1.080   .     S
C545   O580    1.384   .     S
C546   H549    1.083   .     S
Cu547  O578    1.909   .     S
Cu547  O574    1.932   .     S
Cu547  N570    2.016   .     S
Cu547  O576    1.948   .     S
Cu547  O571    1.952   .     S
Cu547  Cu548   2.683   .     S
Cu548  O577    1.952   .     S
Cu548  N569    2.016   .     S
Cu548  O579    1.932   .     S
Cu548  O573    1.948   .     S
Cu548  O575    1.909   .     S
H550   C701    1.088   .     S
H554   C711    1.111   .     S
H557   C654    1.116   1_455 S
H560   N685    1.029   1_455 S
H562   N628    1.029   .     S
H564   C646    1.084   1_455 S
H566   C591    1.083   .     S
H568   C873    1.087   1_545 S
N569   H618    1.029   .     S
N569   N628    1.282   .     S
N570   N685    1.282   1_455 S
N570   H678    1.029   1_455 S
O572   C654    1.412   1_455 S
C581   O631    1.284   .     A
C581   O629    1.290   .     A
C581   C583    1.425   .     S
C582   C584    1.483   .     S
C582   C598    1.424   .     A
C582   C590    1.415   .     A
C583   C759    1.328   .     S
C583   H800    1.087   .     S
C584   O633    1.298   .     A
C584   O632    1.302   .     A
C585   C586    1.425   .     S
C585   C931    1.328   1_545 S
C585   H956    1.088   1_545 S
C586   O635    1.290   .     A
C586   O634    1.284   .     A
C587   O637    1.299   .     A
C587   O636    1.294   .     A
C587   C589    1.464   .     S
C588   C604    1.392   .     A
C588   H680    1.084   .     S
C589   C604    1.399   .     A
C589   C603    1.404   .     A
C590   C591    1.398   .     A
C590   O630    1.385   .     S
C591   C71     1.389   1_556 S
C592   C598    1.416   .     A
C592   C71     1.412   1_556 S
C592   C77     1.425   1_556 S
C593   H623    1.079   .     S
C594   H610    1.115   .     S
C594   O638    1.412   .     S
C594   H609    1.115   .     S
C594   C595    1.521   .     S
C595   H611    1.111   .     S
C595   H613    1.111   .     S
C595   H960    1.111   1_545 S
C596   H614    1.113   .     S
C596   C597    1.521   .     S
C596   H673    1.116   .     S
C596   O688    1.412   .     S
C597   H616    1.111   .     S
C597   H617    1.111   .     S
C597   H619    1.111   .     S
C598   C602    1.413   .     A
C599   C603    1.415   .     A
C600   C601    1.393   .     A
C600   C77     1.420   1_556 S
C600   C66     1.403   1_556 S
C601   C602    1.388   .     A
C601   H621    1.084   .     S
C602   H625    1.080   .     S
C603   O638    1.384   .     S
C604   H607    1.083   .     S
Cu605  O636    1.909   .     S
Cu605  O632    1.932   .     S
Cu605  N628    2.016   .     S
Cu605  O634    1.948   .     S
Cu605  O629    1.952   .     S
Cu605  Cu606   2.683   .     S
Cu606  O635    1.952   .     S
Cu606  N627    2.016   .     S
Cu606  O637    1.932   .     S
Cu606  O631    1.948   .     S
Cu606  O633    1.909   .     S
H608   C759    1.088   .     S
H612   C769    1.111   .     S
H620   N686    1.029   .     S
H624   C649    1.083   .     S
H626   C931    1.087   1_545 S
N627   H676    1.029   .     S
N627   N686    1.282   .     S
C639   O689    1.284   .     A
C639   O687    1.290   .     A
C639   C641    1.425   .     S
C640   C642    1.483   .     S
C640   C656    1.424   .     A
C640   C648    1.415   .     A
C641   C817    1.328   .     S
C641   H858    1.087   .     S
C642   O691    1.298   .     A
C642   O690    1.302   .     A
C643   C644    1.425   .     S
C643   C989    1.328   1_545 S
C643   H1014   1.088   1_545 S
C644   O693    1.290   .     A
C644   O692    1.284   .     A
C645   O695    1.299   .     A
C645   O694    1.294   .     A
C645   C647    1.464   .     S
C646   C662    1.392   .     A
C646   H564    1.084   1_655 S
C647   C662    1.399   .     A
C647   C661    1.404   .     A
C648   C649    1.398   .     A
C648   O688    1.385   .     S
C649   C129    1.389   1_556 S
C650   C656    1.416   .     A
C650   C129    1.412   1_556 S
C650   C135    1.425   1_556 S
C651   H681    1.079   .     S
C652   H668    1.115   .     S
C652   O696    1.412   .     S
C652   H667    1.115   .     S
C652   C653    1.521   .     S
C653   H669    1.111   .     S
C653   H671    1.111   .     S
C653   H1018   1.111   1_545 S
C654   H672    1.113   .     S
C654   C655    1.521   .     S
C654   H557    1.116   1_655 S
C654   O572    1.412   1_655 S
C655   H674    1.111   .     S
C655   H675    1.111   .     S
C655   H677    1.111   .     S
C656   C660    1.413   .     A
C657   C661    1.415   .     A
C658   C659    1.393   .     A
C658   C135    1.420   1_556 S
C658   C124    1.403   1_556 S
C659   C660    1.388   .     A
C659   H679    1.084   .     S
C660   H683    1.080   .     S
C661   O696    1.384   .     S
C662   H665    1.083   .     S
Cu663  O694    1.909   .     S
Cu663  O690    1.932   .     S
Cu663  N686    2.016   .     S
Cu663  O692    1.948   .     S
Cu663  O687    1.952   .     S
Cu663  Cu664   2.683   .     S
Cu664  O693    1.952   .     S
Cu664  N685    2.016   .     S
Cu664  O695    1.932   .     S
Cu664  O689    1.948   .     S
Cu664  O691    1.909   .     S
H666   C817    1.088   .     S
H670   C827    1.111   .     S
H678   N570    1.029   1_655 S
H682   C533    1.083   1_655 S
H684   C989    1.087   1_545 S
N685   H560    1.029   1_655 S
N685   N570    1.282   1_655 S
C697   O747    1.284   .     A
C697   O745    1.290   .     A
C697   C699    1.425   .     S
C698   C700    1.483   .     S
C698   C714    1.424   .     A
C698   C706    1.415   .     A
C699   C875    1.328   .     S
C699   H916    1.087   .     S
C700   O749    1.298   .     A
C700   O748    1.302   .     A
C701   C702    1.425   .     S
C702   O751    1.290   .     A
C702   O750    1.284   .     A
C703   O753    1.299   .     A
C703   O752    1.294   .     A
C703   C705    1.464   .     S
C704   C720    1.392   .     A
C704   H796    1.084   .     S
C705   C720    1.399   .     A
C705   C719    1.404   .     A
C706   C707    1.398   .     A
C706   O746    1.385   .     S
C707   C187    1.389   1_556 S
C707   H856    1.083   1_455 S
C708   C714    1.416   .     A
C708   C187    1.412   1_556 S
C708   C193    1.425   1_556 S
C709   H739    1.079   .     S
C710   H726    1.115   .     S
C710   O754    1.412   .     S
C710   H725    1.115   .     S
C710   C711    1.521   .     S
C711   H727    1.111   .     S
C711   H729    1.111   .     S
C712   H730    1.113   .     S
C712   C713    1.521   .     S
C712   H789    1.116   .     S
C712   O804    1.412   .     S
C713   H732    1.111   .     S
C713   H733    1.111   .     S
C713   H735    1.111   .     S
C714   C718    1.413   .     A
C715   C719    1.415   .     A
C716   C717    1.393   .     A
C716   C193    1.420   1_556 S
C716   C182    1.403   1_556 S
C717   C718    1.388   .     A
C717   H737    1.084   .     S
C718   H741    1.080   .     S
C719   O754    1.384   .     S
C720   H723    1.083   .     S
Cu721  O752    1.909   .     S
Cu721  O748    1.932   .     S
Cu721  N744    2.016   .     S
Cu721  O750    1.948   .     S
Cu721  O745    1.952   .     S
Cu721  Cu722   2.683   .     S
Cu722  O751    1.952   .     S
Cu722  N743    2.016   .     S
Cu722  O753    1.932   .     S
Cu722  O747    1.948   .     S
Cu722  O749    1.909   .     S
H724   C875    1.088   .     S
H728   C885    1.111   .     S
H731   C828    1.116   1_455 S
H734   N859    1.029   1_455 S
H736   N802    1.029   .     S
H738   C820    1.084   1_455 S
H740   C765    1.083   .     S
N743   H792    1.029   .     S
N743   N802    1.282   .     S
N744   N859    1.282   1_455 S
N744   H852    1.029   1_455 S
O746   C828    1.412   1_455 S
C755   O805    1.284   .     A
C755   O803    1.290   .     A
C755   C757    1.425   .     S
C756   C758    1.483   .     S
C756   C772    1.424   .     A
C756   C764    1.415   .     A
C757   C933    1.328   .     S
C757   H974    1.087   .     S
C758   O807    1.298   .     A
C758   O806    1.302   .     A
C759   C760    1.425   .     S
C760   O809    1.290   .     A
C760   O808    1.284   .     A
C761   O811    1.299   .     A
C761   O810    1.294   .     A
C761   C763    1.464   .     S
C762   C778    1.392   .     A
C762   H854    1.084   .     S
C763   C778    1.399   .     A
C763   C777    1.404   .     A
C764   C765    1.398   .     A
C764   O804    1.385   .     S
C765   C245    1.389   1_556 S
C766   C772    1.416   .     A
C766   C245    1.412   1_556 S
C766   C251    1.425   1_556 S
C767   H797    1.079   .     S
C768   H784    1.115   .     S
C768   O812    1.412   .     S
C768   H783    1.115   .     S
C768   C769    1.521   .     S
C769   H785    1.111   .     S
C769   H787    1.111   .     S
C770   H788    1.113   .     S
C770   C771    1.521   .     S
C770   H847    1.116   .     S
C770   O862    1.412   .     S
C771   H790    1.111   .     S
C771   H791    1.111   .     S
C771   H793    1.111   .     S
C772   C776    1.413   .     A
C773   C777    1.415   .     A
C774   C775    1.393   .     A
C774   C251    1.420   1_556 S
C774   C240    1.403   1_556 S
C775   C776    1.388   .     A
C775   H795    1.084   .     S
C776   H799    1.080   .     S
C777   O812    1.384   .     S
C778   H781    1.083   .     S
Cu779  O810    1.909   .     S
Cu779  O806    1.932   .     S
Cu779  N802    2.016   .     S
Cu779  O808    1.948   .     S
Cu779  O803    1.952   .     S
Cu779  Cu780   2.683   .     S
Cu780  O809    1.952   .     S
Cu780  N801    2.016   .     S
Cu780  O811    1.932   .     S
Cu780  O805    1.948   .     S
Cu780  O807    1.909   .     S
H782   C933    1.088   .     S
H786   C943    1.111   .     S
H794   N860    1.029   .     S
H798   C823    1.083   .     S
N801   H850    1.029   .     S
N801   N860    1.282   .     S
C813   O863    1.284   .     A
C813   O861    1.290   .     A
C813   C815    1.425   .     S
C814   C816    1.483   .     S
C814   C830    1.424   .     A
C814   C822    1.415   .     A
C815   C991    1.328   .     S
C815   H1032   1.087   .     S
C816   O865    1.298   .     A
C816   O864    1.302   .     A
C817   C818    1.425   .     S
C818   O867    1.290   .     A
C818   O866    1.284   .     A
C819   O869    1.299   .     A
C819   O868    1.294   .     A
C819   C821    1.464   .     S
C820   C836    1.392   .     A
C820   H738    1.084   1_655 S
C821   C836    1.399   .     A
C821   C835    1.404   .     A
C822   C823    1.398   .     A
C822   O862    1.385   .     S
C823   C303    1.389   1_556 S
C824   C830    1.416   .     A
C824   C303    1.412   1_556 S
C824   C309    1.425   1_556 S
C825   H855    1.079   .     S
C826   H842    1.115   .     S
C826   O870    1.412   .     S
C826   H841    1.115   .     S
C826   C827    1.521   .     S
C827   H843    1.111   .     S
C827   H845    1.111   .     S
C828   H846    1.113   .     S
C828   C829    1.521   .     S
C828   H731    1.116   1_655 S
C828   O746    1.412   1_655 S
C829   H848    1.111   .     S
C829   H849    1.111   .     S
C829   H851    1.111   .     S
C830   C834    1.413   .     A
C831   C835    1.415   .     A
C832   C833    1.393   .     A
C832   C309    1.420   1_556 S
C832   C298    1.403   1_556 S
C833   C834    1.388   .     A
C833   H853    1.084   .     S
C834   H857    1.080   .     S
C835   O870    1.384   .     S
C836   H839    1.083   .     S
Cu837  O868    1.909   .     S
Cu837  O864    1.932   .     S
Cu837  N860    2.016   .     S
Cu837  O866    1.948   .     S
Cu837  O861    1.952   .     S
Cu837  Cu838   2.683   .     S
Cu838  O867    1.952   .     S
Cu838  N859    2.016   .     S
Cu838  O869    1.932   .     S
Cu838  O863    1.948   .     S
Cu838  O865    1.909   .     S
H840   C991    1.088   .     S
H844   C1001   1.111   .     S
H852   N744    1.029   1_655 S
H856   C707    1.083   1_655 S
N859   H734    1.029   1_655 S
N859   N744    1.282   1_655 S
C871   O921    1.284   .     A
C871   O919    1.290   .     A
C871   C873    1.425   .     S
C872   C874    1.483   .     S
C872   C888    1.424   .     A
C872   C880    1.415   .     A
C873   C527    1.328   1_565 S
C873   H568    1.087   1_565 S
C874   O923    1.298   .     A
C874   O922    1.302   .     A
C875   C876    1.425   .     S
C876   O925    1.290   .     A
C876   O924    1.284   .     A
C877   O927    1.299   .     A
C877   O926    1.294   .     A
C877   C879    1.464   .     S
C878   C894    1.392   .     A
C878   H970    1.084   .     S
C879   C894    1.399   .     A
C879   C893    1.404   .     A
C880   C881    1.398   .     A
C880   O920    1.385   .     S
C881   C361    1.389   1_556 S
C881   H1030   1.083   1_455 S
C882   C888    1.416   .     A
C882   C361    1.412   1_556 S
C882   C367    1.425   1_556 S
C883   H913    1.079   .     S
C884   H900    1.115   .     S
C884   O928    1.412   .     S
C884   H899    1.115   .     S
C884   C885    1.521   .     S
C885   H901    1.111   .     S
C885   H903    1.111   .     S
C886   H904    1.113   .     S
C886   C887    1.521   .     S
C886   H963    1.116   .     S
C886   O978    1.412   .     S
C887   H906    1.111   .     S
C887   H907    1.111   .     S
C887   H909    1.111   .     S
C888   C892    1.413   .     A
C889   C893    1.415   .     A
C890   C891    1.393   .     A
C890   C367    1.420   1_556 S
C890   C356    1.403   1_556 S
C891   C892    1.388   .     A
C891   H911    1.084   .     S
C892   H915    1.080   .     S
C893   O928    1.384   .     S
C894   H897    1.083   .     S
Cu895  O926    1.909   .     S
Cu895  O922    1.932   .     S
Cu895  N918    2.016   .     S
Cu895  O924    1.948   .     S
Cu895  O919    1.952   .     S
Cu895  Cu896   2.683   .     S
Cu896  O925    1.952   .     S
Cu896  N917    2.016   .     S
Cu896  O927    1.932   .     S
Cu896  O921    1.948   .     S
Cu896  O923    1.909   .     S
H898   C527    1.088   1_565 S
H902   C537    1.111   1_565 S
H905   C1002   1.116   1_455 S
H908   N1033   1.029   1_455 S
H910   N976    1.029   .     S
H912   C994    1.084   1_455 S
H914   C939    1.083   .     S
N917   H966    1.029   .     S
N917   N976    1.282   .     S
N918   N1033   1.282   1_455 S
N918   H1026   1.029   1_455 S
O920   C1002   1.412   1_455 S
C929   O979    1.284   .     A
C929   O977    1.290   .     A
C929   C931    1.425   .     S
C930   C932    1.483   .     S
C930   C946    1.424   .     A
C930   C938    1.415   .     A
C931   C585    1.328   1_565 S
C931   H626    1.087   1_565 S
C932   O981    1.298   .     A
C932   O980    1.302   .     A
C933   C934    1.425   .     S
C934   O983    1.290   .     A
C934   O982    1.284   .     A
C935   O985    1.299   .     A
C935   O984    1.294   .     A
C935   C937    1.464   .     S
C936   C952    1.392   .     A
C936   H1028   1.084   .     S
C937   C952    1.399   .     A
C937   C951    1.404   .     A
C938   C939    1.398   .     A
C938   O978    1.385   .     S
C939   C419    1.389   1_556 S
C940   C946    1.416   .     A
C940   C419    1.412   1_556 S
C940   C425    1.425   1_556 S
C941   H971    1.079   .     S
C942   H958    1.115   .     S
C942   O986    1.412   .     S
C942   H957    1.115   .     S
C942   C943    1.521   .     S
C943   H959    1.111   .     S
C943   H961    1.111   .     S
C944   H962    1.113   .     S
C944   C945    1.521   .     S
C944   H1021   1.116   .     S
C944   O1036   1.412   .     S
C945   H964    1.111   .     S
C945   H965    1.111   .     S
C945   H967    1.111   .     S
C946   C950    1.413   .     A
C947   C951    1.415   .     A
C948   C949    1.393   .     A
C948   C425    1.420   1_556 S
C948   C414    1.403   1_556 S
C949   C950    1.388   .     A
C949   H969    1.084   .     S
C950   H973    1.080   .     S
C951   O986    1.384   .     S
C952   H955    1.083   .     S
Cu953  O984    1.909   .     S
Cu953  O980    1.932   .     S
Cu953  N976    2.016   .     S
Cu953  O982    1.948   .     S
Cu953  O977    1.952   .     S
Cu953  Cu954   2.683   .     S
Cu954  O983    1.952   .     S
Cu954  N975    2.016   .     S
Cu954  O985    1.932   .     S
Cu954  O979    1.948   .     S
Cu954  O981    1.909   .     S
H956   C585    1.088   1_565 S
H960   C595    1.111   1_565 S
H968   N1034   1.029   .     S
H972   C997    1.083   .     S
N975   H1024   1.029   .     S
N975   N1034   1.282   .     S
C987   O1037   1.284   .     A
C987   O1035   1.290   .     A
C987   C989    1.425   .     S
C988   C990    1.483   .     S
C988   C1004   1.424   .     A
C988   C996    1.415   .     A
C989   C643    1.328   1_565 S
C989   H684    1.087   1_565 S
C990   O1039   1.298   .     A
C990   O1038   1.302   .     A
C991   C992    1.425   .     S
C992   O1041   1.290   .     A
C992   O1040   1.284   .     A
C993   O1043   1.299   .     A
C993   O1042   1.294   .     A
C993   C995    1.464   .     S
C994   C1010   1.392   .     A
C994   H912    1.084   1_655 S
C995   C1010   1.399   .     A
C995   C1009   1.404   .     A
C996   C997    1.398   .     A
C996   O1036   1.385   .     S
C997   C477    1.389   1_556 S
C998   C1004   1.416   .     A
C998   C477    1.412   1_556 S
C998   C483    1.425   1_556 S
C999   H1029   1.079   .     S
C1000  H1016   1.115   .     S
C1000  O1044   1.412   .     S
C1000  H1015   1.115   .     S
C1000  C1001   1.521   .     S
C1001  H1017   1.111   .     S
C1001  H1019   1.111   .     S
C1002  H1020   1.113   .     S
C1002  C1003   1.521   .     S
C1002  H905    1.116   1_655 S
C1002  O920    1.412   1_655 S
C1003  H1022   1.111   .     S
C1003  H1023   1.111   .     S
C1003  H1025   1.111   .     S
C1004  C1008   1.413   .     A
C1005  C1009   1.415   .     A
C1006  C1007   1.393   .     A
C1006  C483    1.420   1_556 S
C1006  C472    1.403   1_556 S
C1007  C1008   1.388   .     A
C1007  H1027   1.084   .     S
C1008  H1031   1.080   .     S
C1009  O1044   1.384   .     S
C1010  H1013   1.083   .     S
Cu1011 O1042   1.909   .     S
Cu1011 O1038   1.932   .     S
Cu1011 N1034   2.016   .     S
Cu1011 O1040   1.948   .     S
Cu1011 O1035   1.952   .     S
Cu1011 Cu1012  2.683   .     S
Cu1012 O1041   1.952   .     S
Cu1012 N1033   2.016   .     S
Cu1012 O1043   1.932   .     S
Cu1012 O1037   1.948   .     S
Cu1012 O1039   1.909   .     S
H1014  C643    1.088   1_565 S
H1018  C653    1.111   1_565 S
H1026  N918    1.029   1_655 S
H1030  C881    1.083   1_655 S
N1033  H908    1.029   1_655 S
N1033  N918    1.282   1_655 S
