data_str_m2_o1_o2_pcu_sym.122
_audit_creation_date              2020-01-03
_audit_creation_method            'Materials Studio'
_symmetry_space_group_name_H-M    'P1'
_symmetry_Int_Tables_number       1
_symmetry_cell_setting            triclinic
loop_
_symmetry_equiv_pos_as_xyz
  x,y,z
_cell_length_a                    32.2744
_cell_length_b                    28.9376
_cell_length_c                    30.2639
_cell_angle_alpha                 90.0246
_cell_angle_beta                  92.5382
_cell_angle_gamma                 89.9056
loop_
_atom_site_label
_atom_site_type_symbol
_atom_site_fract_x
_atom_site_fract_y
_atom_site_fract_z
_atom_site_U_iso_or_equiv
_atom_site_adp_type
_atom_site_occupancy
C1     C     0.08760   0.16668   0.24978   0.00000  Uiso   1.00
C2     C     0.24573   0.16665   0.25020   0.00000  Uiso   1.00
C3     C     0.16653   0.16665   0.16511   0.00000  Uiso   1.00
C4     C     0.16682   0.16666   0.33491   0.00000  Uiso   1.00
C5     C     0.14643   0.02449   0.21672   0.00000  Uiso   1.00
C6     C     0.18698   0.30888   0.28322   0.00000  Uiso   1.00
C7     C     0.18688   0.02441   0.28328   0.00000  Uiso   1.00
C8     C     0.14637   0.30895   0.21677   0.00000  Uiso   1.00
C9     C     0.02331   0.15247   0.28804   0.00000  Uiso   1.00
C10    C     0.31001   0.18083   0.21190   0.00000  Uiso   1.00
C11    C     0.31343   0.15262   0.28822   0.00000  Uiso   1.00
C12    C     0.01989   0.18073   0.21173   0.00000  Uiso   1.00
C13    C     0.15348   0.20570   0.04698   0.00000  Uiso   1.00
C14    C     0.15474   0.12677   0.45173   0.00000  Uiso   1.00
C15    C     0.17912   0.20603   0.45305   0.00000  Uiso   1.00
C16    C     0.17980   0.12712   0.04836   0.00000  Uiso   1.00
C17    C     0.15366   0.20588   0.09291   0.00000  Uiso   1.00
C18    C     0.15502   0.12676   0.40580   0.00000  Uiso   1.00
C19    C     0.17886   0.20622   0.40711   0.00000  Uiso   1.00
C20    C     0.17945   0.12710   0.09428   0.00000  Uiso   1.00
C21    C     0.16654   0.16655   0.11683   0.00000  Uiso   1.00
C22    C     0.16690   0.16656   0.38321   0.00000  Uiso   1.00
C23    C     0.16672   0.16638   0.02432   0.00000  Uiso   1.00
C24    C     0.16688   0.16638   0.47573   0.00000  Uiso   1.00
C25    C     0.29040   0.16666   0.25010   0.00000  Uiso   1.00
C26    C     0.04293   0.16667   0.24986   0.00000  Uiso   1.00
Cu27   Cu    0.16667   0.21355   0.25000   0.00000  Uiso   1.00
Cu28   Cu    0.16667   0.11978   0.25000   0.00000  Uiso   1.00
H29    H     0.14252   0.23612   0.02919   0.00000  Uiso   1.00
H30    H     0.14450   0.09601   0.46840   0.00000  Uiso   1.00
H31    H     0.18934   0.23674   0.47082   0.00000  Uiso   1.00
H32    H     0.19082   0.09664   0.03171   0.00000  Uiso   1.00
H33    H     0.14319   0.23655   0.10962   0.00000  Uiso   1.00
H34    H     0.14536   0.09586   0.38799   0.00000  Uiso   1.00
H35    H     0.18852   0.23718   0.39039   0.00000  Uiso   1.00
H36    H     0.18985   0.09647   0.11214   0.00000  Uiso   1.00
N37    N     0.16667   0.28402   0.25000   0.00000  Uiso   1.00
N38    N     0.16667   0.04931   0.25000   0.00000  Uiso   1.00
O39    O     0.10655   0.20625   0.24999   0.00000  Uiso   1.00
O40    O     0.22679   0.12709   0.25001   0.00000  Uiso   1.00
O41    O     0.22679   0.20625   0.25001   0.00000  Uiso   1.00
O42    O     0.10655   0.12709   0.25000   0.00000  Uiso   1.00
O43    O     0.16666   0.20626   0.18573   0.00000  Uiso   1.00
O44    O     0.16667   0.12707   0.31427   0.00000  Uiso   1.00
O45    O     0.16667   0.20626   0.31427   0.00000  Uiso   1.00
O46    O     0.16666   0.12707   0.18573   0.00000  Uiso   1.00
O47    O     0.12468   0.04575   0.18231   0.00000  Uiso   1.00
H48    H     0.11221   0.07403   0.19382   0.00000  Uiso   1.00
O49    O     0.20902   0.28770   0.31747   0.00000  Uiso   1.00
H50    H     0.22112   0.25919   0.30605   0.00000  Uiso   1.00
O51    O     0.20863   0.04561   0.31766   0.00000  Uiso   1.00
H52    H     0.22101   0.07381   0.30606   0.00000  Uiso   1.00
O53    O     0.12435   0.28783   0.18255   0.00000  Uiso   1.00
H54    H     0.11235   0.25940   0.19408   0.00000  Uiso   1.00
Cl55   Cl    0.05284   0.13564   0.33607   0.00000  Uiso   1.00
Cl56   Cl    0.28046   0.19754   0.16386   0.00000  Uiso   1.00
Cl57   Cl    0.28825   0.13690   0.33673   0.00000  Uiso   1.00
Cl58   Cl    0.04508   0.19654   0.16324   0.00000  Uiso   1.00
C59    C     0.42093   0.16668   0.24978   0.00000  Uiso   1.00
C60    C     0.57906   0.16665   0.25020   0.00000  Uiso   1.00
C61    C     0.49987   0.16665   0.16511   0.00000  Uiso   1.00
C62    C     0.50016   0.16666   0.33491   0.00000  Uiso   1.00
C63    C     0.47977   0.02449   0.21672   0.00000  Uiso   1.00
C64    C     0.52032   0.30888   0.28322   0.00000  Uiso   1.00
C65    C     0.52022   0.02441   0.28328   0.00000  Uiso   1.00
C66    C     0.47970   0.30895   0.21677   0.00000  Uiso   1.00
C67    C     0.35664   0.15247   0.28804   0.00000  Uiso   1.00
C68    C     0.64335   0.18083   0.21190   0.00000  Uiso   1.00
C69    C     0.64677   0.15262   0.28822   0.00000  Uiso   1.00
C70    C     0.35323   0.18073   0.21173   0.00000  Uiso   1.00
C71    C     0.48681   0.20570   0.04698   0.00000  Uiso   1.00
C72    C     0.48807   0.12677   0.45173   0.00000  Uiso   1.00
C73    C     0.51246   0.20603   0.45305   0.00000  Uiso   1.00
C74    C     0.51314   0.12712   0.04836   0.00000  Uiso   1.00
C75    C     0.48700   0.20588   0.09291   0.00000  Uiso   1.00
C76    C     0.48836   0.12676   0.40580   0.00000  Uiso   1.00
C77    C     0.51220   0.20622   0.40711   0.00000  Uiso   1.00
C78    C     0.51278   0.12710   0.09428   0.00000  Uiso   1.00
C79    C     0.49987   0.16655   0.11683   0.00000  Uiso   1.00
C80    C     0.50024   0.16656   0.38321   0.00000  Uiso   1.00
C81    C     0.50005   0.16638   0.02432   0.00000  Uiso   1.00
C82    C     0.50022   0.16638   0.47573   0.00000  Uiso   1.00
C83    C     0.62373   0.16666   0.25010   0.00000  Uiso   1.00
C84    C     0.37626   0.16667   0.24986   0.00000  Uiso   1.00
Cu85   Cu    0.50000   0.21355   0.25000   0.00000  Uiso   1.00
Cu86   Cu    0.50000   0.11978   0.25000   0.00000  Uiso   1.00
H87    H     0.47585   0.23612   0.02919   0.00000  Uiso   1.00
H88    H     0.47783   0.09601   0.46840   0.00000  Uiso   1.00
H89    H     0.52268   0.23674   0.47082   0.00000  Uiso   1.00
H90    H     0.52415   0.09664   0.03171   0.00000  Uiso   1.00
H91    H     0.47653   0.23655   0.10962   0.00000  Uiso   1.00
H92    H     0.47869   0.09586   0.38799   0.00000  Uiso   1.00
H93    H     0.52185   0.23718   0.39039   0.00000  Uiso   1.00
H94    H     0.52318   0.09647   0.11214   0.00000  Uiso   1.00
N95    N     0.50000   0.28402   0.25000   0.00000  Uiso   1.00
N96    N     0.50000   0.04931   0.25000   0.00000  Uiso   1.00
O97    O     0.43988   0.20625   0.24999   0.00000  Uiso   1.00
O98    O     0.56012   0.12709   0.25001   0.00000  Uiso   1.00
O99    O     0.56012   0.20625   0.25001   0.00000  Uiso   1.00
O100   O     0.43988   0.12709   0.25000   0.00000  Uiso   1.00
O101   O     0.50000   0.20626   0.18573   0.00000  Uiso   1.00
O102   O     0.50000   0.12707   0.31427   0.00000  Uiso   1.00
O103   O     0.50000   0.20626   0.31427   0.00000  Uiso   1.00
O104   O     0.50000   0.12707   0.18573   0.00000  Uiso   1.00
O105   O     0.45802   0.04575   0.18231   0.00000  Uiso   1.00
H106   H     0.44555   0.07403   0.19382   0.00000  Uiso   1.00
O107   O     0.54235   0.28770   0.31747   0.00000  Uiso   1.00
H108   H     0.55445   0.25919   0.30605   0.00000  Uiso   1.00
O109   O     0.54196   0.04561   0.31766   0.00000  Uiso   1.00
H110   H     0.55434   0.07381   0.30606   0.00000  Uiso   1.00
O111   O     0.45768   0.28783   0.18255   0.00000  Uiso   1.00
H112   H     0.44568   0.25940   0.19408   0.00000  Uiso   1.00
Cl113  Cl    0.38617   0.13564   0.33607   0.00000  Uiso   1.00
Cl114  Cl    0.61379   0.19754   0.16386   0.00000  Uiso   1.00
Cl115  Cl    0.62158   0.13690   0.33673   0.00000  Uiso   1.00
Cl116  Cl    0.37841   0.19654   0.16324   0.00000  Uiso   1.00
C117   C     0.75427   0.16668   0.24978   0.00000  Uiso   1.00
C118   C     0.91240   0.16665   0.25020   0.00000  Uiso   1.00
C119   C     0.83320   0.16665   0.16511   0.00000  Uiso   1.00
C120   C     0.83349   0.16666   0.33491   0.00000  Uiso   1.00
C121   C     0.81310   0.02449   0.21672   0.00000  Uiso   1.00
C122   C     0.85365   0.30888   0.28322   0.00000  Uiso   1.00
C123   C     0.85355   0.02441   0.28328   0.00000  Uiso   1.00
C124   C     0.81304   0.30895   0.21677   0.00000  Uiso   1.00
C125   C     0.68997   0.15247   0.28804   0.00000  Uiso   1.00
C126   C     0.97668   0.18083   0.21190   0.00000  Uiso   1.00
C127   C     0.98010   0.15262   0.28822   0.00000  Uiso   1.00
C128   C     0.68656   0.18073   0.21173   0.00000  Uiso   1.00
C129   C     0.82014   0.20570   0.04698   0.00000  Uiso   1.00
C130   C     0.82141   0.12677   0.45173   0.00000  Uiso   1.00
C131   C     0.84579   0.20603   0.45305   0.00000  Uiso   1.00
C132   C     0.84647   0.12712   0.04836   0.00000  Uiso   1.00
C133   C     0.82033   0.20588   0.09291   0.00000  Uiso   1.00
C134   C     0.82169   0.12676   0.40580   0.00000  Uiso   1.00
C135   C     0.84553   0.20622   0.40711   0.00000  Uiso   1.00
C136   C     0.84612   0.12710   0.09428   0.00000  Uiso   1.00
C137   C     0.83321   0.16655   0.11683   0.00000  Uiso   1.00
C138   C     0.83357   0.16656   0.38321   0.00000  Uiso   1.00
C139   C     0.83338   0.16638   0.02432   0.00000  Uiso   1.00
C140   C     0.83355   0.16638   0.47573   0.00000  Uiso   1.00
C141   C     0.95706   0.16666   0.25010   0.00000  Uiso   1.00
C142   C     0.70960   0.16667   0.24986   0.00000  Uiso   1.00
Cu143  Cu    0.83333   0.21355   0.25000   0.00000  Uiso   1.00
Cu144  Cu    0.83333   0.11978   0.25000   0.00000  Uiso   1.00
H145   H     0.80918   0.23612   0.02919   0.00000  Uiso   1.00
H146   H     0.81116   0.09601   0.46840   0.00000  Uiso   1.00
H147   H     0.85601   0.23674   0.47082   0.00000  Uiso   1.00
H148   H     0.85748   0.09664   0.03171   0.00000  Uiso   1.00
H149   H     0.80986   0.23655   0.10962   0.00000  Uiso   1.00
H150   H     0.81202   0.09586   0.38799   0.00000  Uiso   1.00
H151   H     0.85518   0.23718   0.39039   0.00000  Uiso   1.00
H152   H     0.85652   0.09647   0.11214   0.00000  Uiso   1.00
N153   N     0.83333   0.28402   0.25000   0.00000  Uiso   1.00
N154   N     0.83333   0.04931   0.25000   0.00000  Uiso   1.00
O155   O     0.77321   0.20625   0.24999   0.00000  Uiso   1.00
O156   O     0.89345   0.12709   0.25001   0.00000  Uiso   1.00
O157   O     0.89345   0.20625   0.25001   0.00000  Uiso   1.00
O158   O     0.77321   0.12709   0.25000   0.00000  Uiso   1.00
O159   O     0.83333   0.20626   0.18573   0.00000  Uiso   1.00
O160   O     0.83334   0.12707   0.31427   0.00000  Uiso   1.00
O161   O     0.83334   0.20626   0.31427   0.00000  Uiso   1.00
O162   O     0.83333   0.12707   0.18573   0.00000  Uiso   1.00
O163   O     0.79135   0.04575   0.18231   0.00000  Uiso   1.00
H164   H     0.77888   0.07403   0.19382   0.00000  Uiso   1.00
O165   O     0.87568   0.28770   0.31747   0.00000  Uiso   1.00
H166   H     0.88778   0.25919   0.30605   0.00000  Uiso   1.00
O167   O     0.87530   0.04561   0.31766   0.00000  Uiso   1.00
H168   H     0.88767   0.07381   0.30606   0.00000  Uiso   1.00
O169   O     0.79101   0.28783   0.18255   0.00000  Uiso   1.00
H170   H     0.77901   0.25940   0.19408   0.00000  Uiso   1.00
Cl171  Cl    0.71951   0.13564   0.33607   0.00000  Uiso   1.00
Cl172  Cl    0.94712   0.19754   0.16386   0.00000  Uiso   1.00
Cl173  Cl    0.95491   0.13690   0.33673   0.00000  Uiso   1.00
Cl174  Cl    0.71175   0.19654   0.16324   0.00000  Uiso   1.00
C175   C     0.08760   0.50002   0.24978   0.00000  Uiso   1.00
C176   C     0.24573   0.49998   0.25020   0.00000  Uiso   1.00
C177   C     0.16653   0.49998   0.16511   0.00000  Uiso   1.00
C178   C     0.16682   0.49999   0.33491   0.00000  Uiso   1.00
C179   C     0.14643   0.35782   0.21672   0.00000  Uiso   1.00
C180   C     0.18698   0.64221   0.28322   0.00000  Uiso   1.00
C181   C     0.18688   0.35775   0.28328   0.00000  Uiso   1.00
C182   C     0.14637   0.64229   0.21677   0.00000  Uiso   1.00
C183   C     0.02331   0.48580   0.28804   0.00000  Uiso   1.00
C184   C     0.31001   0.51416   0.21190   0.00000  Uiso   1.00
C185   C     0.31343   0.48595   0.28822   0.00000  Uiso   1.00
C186   C     0.01989   0.51406   0.21173   0.00000  Uiso   1.00
C187   C     0.15348   0.53903   0.04698   0.00000  Uiso   1.00
C188   C     0.15474   0.46010   0.45173   0.00000  Uiso   1.00
C189   C     0.17912   0.53936   0.45305   0.00000  Uiso   1.00
C190   C     0.17980   0.46045   0.04836   0.00000  Uiso   1.00
C191   C     0.15366   0.53921   0.09291   0.00000  Uiso   1.00
C192   C     0.15502   0.46010   0.40580   0.00000  Uiso   1.00
C193   C     0.17886   0.53955   0.40711   0.00000  Uiso   1.00
C194   C     0.17945   0.46043   0.09428   0.00000  Uiso   1.00
C195   C     0.16654   0.49988   0.11683   0.00000  Uiso   1.00
C196   C     0.16690   0.49989   0.38321   0.00000  Uiso   1.00
C197   C     0.16672   0.49972   0.02432   0.00000  Uiso   1.00
C198   C     0.16688   0.49971   0.47573   0.00000  Uiso   1.00
C199   C     0.29040   0.49999   0.25010   0.00000  Uiso   1.00
C200   C     0.04293   0.50000   0.24986   0.00000  Uiso   1.00
Cu201  Cu    0.16667   0.54689   0.25000   0.00000  Uiso   1.00
Cu202  Cu    0.16667   0.45311   0.25000   0.00000  Uiso   1.00
H203   H     0.14252   0.56945   0.02919   0.00000  Uiso   1.00
H204   H     0.14450   0.42934   0.46840   0.00000  Uiso   1.00
H205   H     0.18934   0.57007   0.47082   0.00000  Uiso   1.00
H206   H     0.19082   0.42998   0.03171   0.00000  Uiso   1.00
H207   H     0.14319   0.56988   0.10962   0.00000  Uiso   1.00
H208   H     0.14536   0.42919   0.38799   0.00000  Uiso   1.00
H209   H     0.18852   0.57052   0.39039   0.00000  Uiso   1.00
H210   H     0.18985   0.42981   0.11214   0.00000  Uiso   1.00
N211   N     0.16667   0.61736   0.25000   0.00000  Uiso   1.00
N212   N     0.16667   0.38264   0.25000   0.00000  Uiso   1.00
O213   O     0.10655   0.53958   0.24999   0.00000  Uiso   1.00
O214   O     0.22679   0.46042   0.25001   0.00000  Uiso   1.00
O215   O     0.22679   0.53958   0.25001   0.00000  Uiso   1.00
O216   O     0.10655   0.46042   0.25000   0.00000  Uiso   1.00
O217   O     0.16666   0.53959   0.18573   0.00000  Uiso   1.00
O218   O     0.16667   0.46041   0.31427   0.00000  Uiso   1.00
O219   O     0.16667   0.53959   0.31427   0.00000  Uiso   1.00
O220   O     0.16666   0.46041   0.18573   0.00000  Uiso   1.00
O221   O     0.12468   0.37908   0.18231   0.00000  Uiso   1.00
H222   H     0.11221   0.40736   0.19382   0.00000  Uiso   1.00
O223   O     0.20902   0.62104   0.31747   0.00000  Uiso   1.00
H224   H     0.22112   0.59252   0.30605   0.00000  Uiso   1.00
O225   O     0.20863   0.37895   0.31766   0.00000  Uiso   1.00
H226   H     0.22101   0.40715   0.30606   0.00000  Uiso   1.00
O227   O     0.12435   0.62117   0.18255   0.00000  Uiso   1.00
H228   H     0.11235   0.59273   0.19408   0.00000  Uiso   1.00
Cl229  Cl    0.05284   0.46898   0.33607   0.00000  Uiso   1.00
Cl230  Cl    0.28046   0.53087   0.16386   0.00000  Uiso   1.00
Cl231  Cl    0.28825   0.47023   0.33673   0.00000  Uiso   1.00
Cl232  Cl    0.04508   0.52988   0.16324   0.00000  Uiso   1.00
C233   C     0.42093   0.50002   0.24978   0.00000  Uiso   1.00
C234   C     0.57906   0.49998   0.25020   0.00000  Uiso   1.00
C235   C     0.49987   0.49998   0.16511   0.00000  Uiso   1.00
C236   C     0.50016   0.49999   0.33491   0.00000  Uiso   1.00
C237   C     0.47977   0.35782   0.21672   0.00000  Uiso   1.00
C238   C     0.52032   0.64221   0.28322   0.00000  Uiso   1.00
C239   C     0.52022   0.35775   0.28328   0.00000  Uiso   1.00
C240   C     0.47970   0.64229   0.21677   0.00000  Uiso   1.00
C241   C     0.35664   0.48580   0.28804   0.00000  Uiso   1.00
C242   C     0.64335   0.51416   0.21190   0.00000  Uiso   1.00
C243   C     0.64677   0.48595   0.28822   0.00000  Uiso   1.00
C244   C     0.35323   0.51406   0.21173   0.00000  Uiso   1.00
C245   C     0.48681   0.53903   0.04698   0.00000  Uiso   1.00
C246   C     0.48807   0.46010   0.45173   0.00000  Uiso   1.00
C247   C     0.51246   0.53936   0.45305   0.00000  Uiso   1.00
C248   C     0.51314   0.46045   0.04836   0.00000  Uiso   1.00
C249   C     0.48700   0.53921   0.09291   0.00000  Uiso   1.00
C250   C     0.48836   0.46010   0.40580   0.00000  Uiso   1.00
C251   C     0.51220   0.53955   0.40711   0.00000  Uiso   1.00
C252   C     0.51278   0.46043   0.09428   0.00000  Uiso   1.00
C253   C     0.49987   0.49988   0.11683   0.00000  Uiso   1.00
C254   C     0.50024   0.49989   0.38321   0.00000  Uiso   1.00
C255   C     0.50005   0.49972   0.02432   0.00000  Uiso   1.00
C256   C     0.50022   0.49971   0.47573   0.00000  Uiso   1.00
C257   C     0.62373   0.49999   0.25010   0.00000  Uiso   1.00
C258   C     0.37626   0.50000   0.24986   0.00000  Uiso   1.00
Cu259  Cu    0.50000   0.54689   0.25000   0.00000  Uiso   1.00
Cu260  Cu    0.50000   0.45311   0.25000   0.00000  Uiso   1.00
H261   H     0.47585   0.56945   0.02919   0.00000  Uiso   1.00
H262   H     0.47783   0.42934   0.46840   0.00000  Uiso   1.00
H263   H     0.52268   0.57007   0.47082   0.00000  Uiso   1.00
H264   H     0.52415   0.42998   0.03171   0.00000  Uiso   1.00
H265   H     0.47653   0.56988   0.10962   0.00000  Uiso   1.00
H266   H     0.47869   0.42919   0.38799   0.00000  Uiso   1.00
H267   H     0.52185   0.57052   0.39039   0.00000  Uiso   1.00
H268   H     0.52318   0.42981   0.11214   0.00000  Uiso   1.00
N269   N     0.50000   0.61736   0.25000   0.00000  Uiso   1.00
N270   N     0.50000   0.38264   0.25000   0.00000  Uiso   1.00
O271   O     0.43988   0.53958   0.24999   0.00000  Uiso   1.00
O272   O     0.56012   0.46042   0.25001   0.00000  Uiso   1.00
O273   O     0.56012   0.53958   0.25001   0.00000  Uiso   1.00
O274   O     0.43988   0.46042   0.25000   0.00000  Uiso   1.00
O275   O     0.50000   0.53959   0.18573   0.00000  Uiso   1.00
O276   O     0.50000   0.46041   0.31427   0.00000  Uiso   1.00
O277   O     0.50000   0.53959   0.31427   0.00000  Uiso   1.00
O278   O     0.50000   0.46041   0.18573   0.00000  Uiso   1.00
O279   O     0.45802   0.37908   0.18231   0.00000  Uiso   1.00
H280   H     0.44555   0.40736   0.19382   0.00000  Uiso   1.00
O281   O     0.54235   0.62104   0.31747   0.00000  Uiso   1.00
H282   H     0.55445   0.59252   0.30605   0.00000  Uiso   1.00
O283   O     0.54196   0.37895   0.31766   0.00000  Uiso   1.00
H284   H     0.55434   0.40715   0.30606   0.00000  Uiso   1.00
O285   O     0.45768   0.62117   0.18255   0.00000  Uiso   1.00
H286   H     0.44568   0.59273   0.19408   0.00000  Uiso   1.00
Cl287  Cl    0.38617   0.46898   0.33607   0.00000  Uiso   1.00
Cl288  Cl    0.61379   0.53087   0.16386   0.00000  Uiso   1.00
Cl289  Cl    0.62158   0.47023   0.33673   0.00000  Uiso   1.00
Cl290  Cl    0.37841   0.52988   0.16324   0.00000  Uiso   1.00
C291   C     0.75427   0.50002   0.24978   0.00000  Uiso   1.00
C292   C     0.91240   0.49998   0.25020   0.00000  Uiso   1.00
C293   C     0.83320   0.49998   0.16511   0.00000  Uiso   1.00
C294   C     0.83349   0.49999   0.33491   0.00000  Uiso   1.00
C295   C     0.81310   0.35782   0.21672   0.00000  Uiso   1.00
C296   C     0.85365   0.64221   0.28322   0.00000  Uiso   1.00
C297   C     0.85355   0.35775   0.28328   0.00000  Uiso   1.00
C298   C     0.81304   0.64229   0.21677   0.00000  Uiso   1.00
C299   C     0.68997   0.48580   0.28804   0.00000  Uiso   1.00
C300   C     0.97668   0.51416   0.21190   0.00000  Uiso   1.00
C301   C     0.98010   0.48595   0.28822   0.00000  Uiso   1.00
C302   C     0.68656   0.51406   0.21173   0.00000  Uiso   1.00
C303   C     0.82014   0.53903   0.04698   0.00000  Uiso   1.00
C304   C     0.82141   0.46010   0.45173   0.00000  Uiso   1.00
C305   C     0.84579   0.53936   0.45305   0.00000  Uiso   1.00
C306   C     0.84647   0.46045   0.04836   0.00000  Uiso   1.00
C307   C     0.82033   0.53921   0.09291   0.00000  Uiso   1.00
C308   C     0.82169   0.46010   0.40580   0.00000  Uiso   1.00
C309   C     0.84553   0.53955   0.40711   0.00000  Uiso   1.00
C310   C     0.84612   0.46043   0.09428   0.00000  Uiso   1.00
C311   C     0.83321   0.49988   0.11683   0.00000  Uiso   1.00
C312   C     0.83357   0.49989   0.38321   0.00000  Uiso   1.00
C313   C     0.83338   0.49972   0.02432   0.00000  Uiso   1.00
C314   C     0.83355   0.49971   0.47573   0.00000  Uiso   1.00
C315   C     0.95706   0.49999   0.25010   0.00000  Uiso   1.00
C316   C     0.70960   0.50000   0.24986   0.00000  Uiso   1.00
Cu317  Cu    0.83333   0.54689   0.25000   0.00000  Uiso   1.00
Cu318  Cu    0.83333   0.45311   0.25000   0.00000  Uiso   1.00
H319   H     0.80918   0.56945   0.02919   0.00000  Uiso   1.00
H320   H     0.81116   0.42934   0.46840   0.00000  Uiso   1.00
H321   H     0.85601   0.57007   0.47082   0.00000  Uiso   1.00
H322   H     0.85748   0.42998   0.03171   0.00000  Uiso   1.00
H323   H     0.80986   0.56988   0.10962   0.00000  Uiso   1.00
H324   H     0.81202   0.42919   0.38799   0.00000  Uiso   1.00
H325   H     0.85518   0.57052   0.39039   0.00000  Uiso   1.00
H326   H     0.85652   0.42981   0.11214   0.00000  Uiso   1.00
N327   N     0.83333   0.61736   0.25000   0.00000  Uiso   1.00
N328   N     0.83333   0.38264   0.25000   0.00000  Uiso   1.00
O329   O     0.77321   0.53958   0.24999   0.00000  Uiso   1.00
O330   O     0.89345   0.46042   0.25001   0.00000  Uiso   1.00
O331   O     0.89345   0.53958   0.25001   0.00000  Uiso   1.00
O332   O     0.77321   0.46042   0.25000   0.00000  Uiso   1.00
O333   O     0.83333   0.53959   0.18573   0.00000  Uiso   1.00
O334   O     0.83334   0.46041   0.31427   0.00000  Uiso   1.00
O335   O     0.83334   0.53959   0.31427   0.00000  Uiso   1.00
O336   O     0.83333   0.46041   0.18573   0.00000  Uiso   1.00
O337   O     0.79135   0.37908   0.18231   0.00000  Uiso   1.00
H338   H     0.77888   0.40736   0.19382   0.00000  Uiso   1.00
O339   O     0.87568   0.62104   0.31747   0.00000  Uiso   1.00
H340   H     0.88778   0.59252   0.30605   0.00000  Uiso   1.00
O341   O     0.87530   0.37895   0.31766   0.00000  Uiso   1.00
H342   H     0.88767   0.40715   0.30606   0.00000  Uiso   1.00
O343   O     0.79101   0.62117   0.18255   0.00000  Uiso   1.00
H344   H     0.77901   0.59273   0.19408   0.00000  Uiso   1.00
Cl345  Cl    0.71951   0.46898   0.33607   0.00000  Uiso   1.00
Cl346  Cl    0.94712   0.53087   0.16386   0.00000  Uiso   1.00
Cl347  Cl    0.95491   0.47023   0.33673   0.00000  Uiso   1.00
Cl348  Cl    0.71175   0.52988   0.16324   0.00000  Uiso   1.00
C349   C     0.08760   0.83335   0.24978   0.00000  Uiso   1.00
C350   C     0.24573   0.83332   0.25020   0.00000  Uiso   1.00
C351   C     0.16653   0.83331   0.16511   0.00000  Uiso   1.00
C352   C     0.16682   0.83332   0.33491   0.00000  Uiso   1.00
C353   C     0.14643   0.69115   0.21672   0.00000  Uiso   1.00
C354   C     0.18698   0.97555   0.28322   0.00000  Uiso   1.00
C355   C     0.18688   0.69108   0.28328   0.00000  Uiso   1.00
C356   C     0.14637   0.97562   0.21677   0.00000  Uiso   1.00
C357   C     0.02331   0.81913   0.28804   0.00000  Uiso   1.00
C358   C     0.31001   0.84749   0.21190   0.00000  Uiso   1.00
C359   C     0.31343   0.81928   0.28822   0.00000  Uiso   1.00
C360   C     0.01989   0.84739   0.21173   0.00000  Uiso   1.00
C361   C     0.15348   0.87236   0.04698   0.00000  Uiso   1.00
C362   C     0.15474   0.79344   0.45173   0.00000  Uiso   1.00
C363   C     0.17912   0.87270   0.45305   0.00000  Uiso   1.00
C364   C     0.17980   0.79379   0.04836   0.00000  Uiso   1.00
C365   C     0.15366   0.87255   0.09291   0.00000  Uiso   1.00
C366   C     0.15502   0.79343   0.40580   0.00000  Uiso   1.00
C367   C     0.17886   0.87288   0.40711   0.00000  Uiso   1.00
C368   C     0.17945   0.79377   0.09428   0.00000  Uiso   1.00
C369   C     0.16654   0.83322   0.11683   0.00000  Uiso   1.00
C370   C     0.16690   0.83323   0.38321   0.00000  Uiso   1.00
C371   C     0.16672   0.83305   0.02432   0.00000  Uiso   1.00
C372   C     0.16688   0.83304   0.47573   0.00000  Uiso   1.00
C373   C     0.29040   0.83332   0.25010   0.00000  Uiso   1.00
C374   C     0.04293   0.83334   0.24986   0.00000  Uiso   1.00
Cu375  Cu    0.16667   0.88022   0.25000   0.00000  Uiso   1.00
Cu376  Cu    0.16667   0.78645   0.25000   0.00000  Uiso   1.00
H377   H     0.14252   0.90278   0.02919   0.00000  Uiso   1.00
H378   H     0.14450   0.76267   0.46840   0.00000  Uiso   1.00
H379   H     0.18934   0.90341   0.47082   0.00000  Uiso   1.00
H380   H     0.19082   0.76331   0.03171   0.00000  Uiso   1.00
H381   H     0.14319   0.90321   0.10962   0.00000  Uiso   1.00
H382   H     0.14536   0.76252   0.38799   0.00000  Uiso   1.00
H383   H     0.18852   0.90385   0.39039   0.00000  Uiso   1.00
H384   H     0.18985   0.76314   0.11214   0.00000  Uiso   1.00
N385   N     0.16667   0.95069   0.25000   0.00000  Uiso   1.00
N386   N     0.16667   0.71598   0.25000   0.00000  Uiso   1.00
O387   O     0.10655   0.87291   0.24999   0.00000  Uiso   1.00
O388   O     0.22679   0.79375   0.25001   0.00000  Uiso   1.00
O389   O     0.22679   0.87291   0.25001   0.00000  Uiso   1.00
O390   O     0.10655   0.79375   0.25000   0.00000  Uiso   1.00
O391   O     0.16666   0.87293   0.18573   0.00000  Uiso   1.00
O392   O     0.16667   0.79374   0.31427   0.00000  Uiso   1.00
O393   O     0.16667   0.87293   0.31427   0.00000  Uiso   1.00
O394   O     0.16666   0.79374   0.18573   0.00000  Uiso   1.00
O395   O     0.12468   0.71241   0.18231   0.00000  Uiso   1.00
H396   H     0.11221   0.74070   0.19382   0.00000  Uiso   1.00
O397   O     0.20902   0.95437   0.31747   0.00000  Uiso   1.00
H398   H     0.22112   0.92586   0.30605   0.00000  Uiso   1.00
O399   O     0.20863   0.71228   0.31766   0.00000  Uiso   1.00
H400   H     0.22101   0.74048   0.30606   0.00000  Uiso   1.00
O401   O     0.12435   0.95450   0.18255   0.00000  Uiso   1.00
H402   H     0.11235   0.92606   0.19408   0.00000  Uiso   1.00
Cl403  Cl    0.05284   0.80231   0.33607   0.00000  Uiso   1.00
Cl404  Cl    0.28046   0.86420   0.16386   0.00000  Uiso   1.00
Cl405  Cl    0.28825   0.80356   0.33673   0.00000  Uiso   1.00
Cl406  Cl    0.04508   0.86321   0.16324   0.00000  Uiso   1.00
C407   C     0.42093   0.83335   0.24978   0.00000  Uiso   1.00
C408   C     0.57906   0.83332   0.25020   0.00000  Uiso   1.00
C409   C     0.49987   0.83331   0.16511   0.00000  Uiso   1.00
C410   C     0.50016   0.83332   0.33491   0.00000  Uiso   1.00
C411   C     0.47977   0.69115   0.21672   0.00000  Uiso   1.00
C412   C     0.52032   0.97555   0.28322   0.00000  Uiso   1.00
C413   C     0.52022   0.69108   0.28328   0.00000  Uiso   1.00
C414   C     0.47970   0.97562   0.21677   0.00000  Uiso   1.00
C415   C     0.35664   0.81913   0.28804   0.00000  Uiso   1.00
C416   C     0.64335   0.84749   0.21190   0.00000  Uiso   1.00
C417   C     0.64677   0.81928   0.28822   0.00000  Uiso   1.00
C418   C     0.35323   0.84739   0.21173   0.00000  Uiso   1.00
C419   C     0.48681   0.87236   0.04698   0.00000  Uiso   1.00
C420   C     0.48807   0.79344   0.45173   0.00000  Uiso   1.00
C421   C     0.51246   0.87270   0.45305   0.00000  Uiso   1.00
C422   C     0.51314   0.79379   0.04836   0.00000  Uiso   1.00
C423   C     0.48700   0.87255   0.09291   0.00000  Uiso   1.00
C424   C     0.48836   0.79343   0.40580   0.00000  Uiso   1.00
C425   C     0.51220   0.87288   0.40711   0.00000  Uiso   1.00
C426   C     0.51278   0.79377   0.09428   0.00000  Uiso   1.00
C427   C     0.49987   0.83322   0.11683   0.00000  Uiso   1.00
C428   C     0.50024   0.83323   0.38321   0.00000  Uiso   1.00
C429   C     0.50005   0.83305   0.02432   0.00000  Uiso   1.00
C430   C     0.50022   0.83304   0.47573   0.00000  Uiso   1.00
C431   C     0.62373   0.83332   0.25010   0.00000  Uiso   1.00
C432   C     0.37626   0.83334   0.24986   0.00000  Uiso   1.00
Cu433  Cu    0.50000   0.88022   0.25000   0.00000  Uiso   1.00
Cu434  Cu    0.50000   0.78645   0.25000   0.00000  Uiso   1.00
H435   H     0.47585   0.90278   0.02919   0.00000  Uiso   1.00
H436   H     0.47783   0.76267   0.46840   0.00000  Uiso   1.00
H437   H     0.52268   0.90341   0.47082   0.00000  Uiso   1.00
H438   H     0.52415   0.76331   0.03171   0.00000  Uiso   1.00
H439   H     0.47653   0.90321   0.10962   0.00000  Uiso   1.00
H440   H     0.47869   0.76252   0.38799   0.00000  Uiso   1.00
H441   H     0.52185   0.90385   0.39039   0.00000  Uiso   1.00
H442   H     0.52318   0.76314   0.11214   0.00000  Uiso   1.00
N443   N     0.50000   0.95069   0.25000   0.00000  Uiso   1.00
N444   N     0.50000   0.71598   0.25000   0.00000  Uiso   1.00
O445   O     0.43988   0.87291   0.24999   0.00000  Uiso   1.00
O446   O     0.56012   0.79375   0.25001   0.00000  Uiso   1.00
O447   O     0.56012   0.87291   0.25001   0.00000  Uiso   1.00
O448   O     0.43988   0.79375   0.25000   0.00000  Uiso   1.00
O449   O     0.50000   0.87293   0.18573   0.00000  Uiso   1.00
O450   O     0.50000   0.79374   0.31427   0.00000  Uiso   1.00
O451   O     0.50000   0.87293   0.31427   0.00000  Uiso   1.00
O452   O     0.50000   0.79374   0.18573   0.00000  Uiso   1.00
O453   O     0.45802   0.71241   0.18231   0.00000  Uiso   1.00
H454   H     0.44555   0.74070   0.19382   0.00000  Uiso   1.00
O455   O     0.54235   0.95437   0.31747   0.00000  Uiso   1.00
H456   H     0.55445   0.92586   0.30605   0.00000  Uiso   1.00
O457   O     0.54196   0.71228   0.31766   0.00000  Uiso   1.00
H458   H     0.55434   0.74048   0.30606   0.00000  Uiso   1.00
O459   O     0.45768   0.95450   0.18255   0.00000  Uiso   1.00
H460   H     0.44568   0.92606   0.19408   0.00000  Uiso   1.00
Cl461  Cl    0.38617   0.80231   0.33607   0.00000  Uiso   1.00
Cl462  Cl    0.61379   0.86420   0.16386   0.00000  Uiso   1.00
Cl463  Cl    0.62158   0.80356   0.33673   0.00000  Uiso   1.00
Cl464  Cl    0.37841   0.86321   0.16324   0.00000  Uiso   1.00
C465   C     0.75427   0.83335   0.24978   0.00000  Uiso   1.00
C466   C     0.91240   0.83332   0.25020   0.00000  Uiso   1.00
C467   C     0.83320   0.83331   0.16511   0.00000  Uiso   1.00
C468   C     0.83349   0.83332   0.33491   0.00000  Uiso   1.00
C469   C     0.81310   0.69115   0.21672   0.00000  Uiso   1.00
C470   C     0.85365   0.97555   0.28322   0.00000  Uiso   1.00
C471   C     0.85355   0.69108   0.28328   0.00000  Uiso   1.00
C472   C     0.81304   0.97562   0.21677   0.00000  Uiso   1.00
C473   C     0.68997   0.81913   0.28804   0.00000  Uiso   1.00
C474   C     0.97668   0.84749   0.21190   0.00000  Uiso   1.00
C475   C     0.98010   0.81928   0.28822   0.00000  Uiso   1.00
C476   C     0.68656   0.84739   0.21173   0.00000  Uiso   1.00
C477   C     0.82014   0.87236   0.04698   0.00000  Uiso   1.00
C478   C     0.82141   0.79344   0.45173   0.00000  Uiso   1.00
C479   C     0.84579   0.87270   0.45305   0.00000  Uiso   1.00
C480   C     0.84647   0.79379   0.04836   0.00000  Uiso   1.00
C481   C     0.82033   0.87255   0.09291   0.00000  Uiso   1.00
C482   C     0.82169   0.79343   0.40580   0.00000  Uiso   1.00
C483   C     0.84553   0.87288   0.40711   0.00000  Uiso   1.00
C484   C     0.84612   0.79377   0.09428   0.00000  Uiso   1.00
C485   C     0.83321   0.83322   0.11683   0.00000  Uiso   1.00
C486   C     0.83357   0.83323   0.38321   0.00000  Uiso   1.00
C487   C     0.83338   0.83305   0.02432   0.00000  Uiso   1.00
C488   C     0.83355   0.83304   0.47573   0.00000  Uiso   1.00
C489   C     0.95706   0.83332   0.25010   0.00000  Uiso   1.00
C490   C     0.70960   0.83334   0.24986   0.00000  Uiso   1.00
Cu491  Cu    0.83333   0.88022   0.25000   0.00000  Uiso   1.00
Cu492  Cu    0.83333   0.78645   0.25000   0.00000  Uiso   1.00
H493   H     0.80918   0.90278   0.02919   0.00000  Uiso   1.00
H494   H     0.81116   0.76267   0.46840   0.00000  Uiso   1.00
H495   H     0.85601   0.90341   0.47082   0.00000  Uiso   1.00
H496   H     0.85748   0.76331   0.03171   0.00000  Uiso   1.00
H497   H     0.80986   0.90321   0.10962   0.00000  Uiso   1.00
H498   H     0.81202   0.76252   0.38799   0.00000  Uiso   1.00
H499   H     0.85518   0.90385   0.39039   0.00000  Uiso   1.00
H500   H     0.85652   0.76314   0.11214   0.00000  Uiso   1.00
N501   N     0.83333   0.95069   0.25000   0.00000  Uiso   1.00
N502   N     0.83333   0.71598   0.25000   0.00000  Uiso   1.00
O503   O     0.77321   0.87291   0.24999   0.00000  Uiso   1.00
O504   O     0.89345   0.79375   0.25001   0.00000  Uiso   1.00
O505   O     0.89345   0.87291   0.25001   0.00000  Uiso   1.00
O506   O     0.77321   0.79375   0.25000   0.00000  Uiso   1.00
O507   O     0.83333   0.87293   0.18573   0.00000  Uiso   1.00
O508   O     0.83334   0.79374   0.31427   0.00000  Uiso   1.00
O509   O     0.83334   0.87293   0.31427   0.00000  Uiso   1.00
O510   O     0.83333   0.79374   0.18573   0.00000  Uiso   1.00
O511   O     0.79135   0.71241   0.18231   0.00000  Uiso   1.00
H512   H     0.77888   0.74070   0.19382   0.00000  Uiso   1.00
O513   O     0.87568   0.95437   0.31747   0.00000  Uiso   1.00
H514   H     0.88778   0.92586   0.30605   0.00000  Uiso   1.00
O515   O     0.87530   0.71228   0.31766   0.00000  Uiso   1.00
H516   H     0.88767   0.74048   0.30606   0.00000  Uiso   1.00
O517   O     0.79101   0.95450   0.18255   0.00000  Uiso   1.00
H518   H     0.77901   0.92606   0.19408   0.00000  Uiso   1.00
Cl519  Cl    0.71951   0.80231   0.33607   0.00000  Uiso   1.00
Cl520  Cl    0.94712   0.86420   0.16386   0.00000  Uiso   1.00
Cl521  Cl    0.95491   0.80356   0.33673   0.00000  Uiso   1.00
Cl522  Cl    0.71175   0.86321   0.16324   0.00000  Uiso   1.00
C523   C     0.08760   0.16668   0.74978   0.00000  Uiso   1.00
C524   C     0.24573   0.16665   0.75020   0.00000  Uiso   1.00
C525   C     0.16653   0.16665   0.66511   0.00000  Uiso   1.00
C526   C     0.16682   0.16666   0.83491   0.00000  Uiso   1.00
C527   C     0.14643   0.02449   0.71672   0.00000  Uiso   1.00
C528   C     0.18698   0.30888   0.78322   0.00000  Uiso   1.00
C529   C     0.18688   0.02441   0.78328   0.00000  Uiso   1.00
C530   C     0.14637   0.30895   0.71677   0.00000  Uiso   1.00
C531   C     0.02331   0.15247   0.78804   0.00000  Uiso   1.00
C532   C     0.31001   0.18083   0.71190   0.00000  Uiso   1.00
C533   C     0.31343   0.15262   0.78822   0.00000  Uiso   1.00
C534   C     0.01989   0.18073   0.71173   0.00000  Uiso   1.00
C535   C     0.15348   0.20570   0.54698   0.00000  Uiso   1.00
C536   C     0.15474   0.12677   0.95173   0.00000  Uiso   1.00
C537   C     0.17912   0.20603   0.95305   0.00000  Uiso   1.00
C538   C     0.17980   0.12712   0.54836   0.00000  Uiso   1.00
C539   C     0.15366   0.20588   0.59291   0.00000  Uiso   1.00
C540   C     0.15502   0.12676   0.90580   0.00000  Uiso   1.00
C541   C     0.17886   0.20622   0.90711   0.00000  Uiso   1.00
C542   C     0.17945   0.12710   0.59428   0.00000  Uiso   1.00
C543   C     0.16654   0.16655   0.61683   0.00000  Uiso   1.00
C544   C     0.16690   0.16656   0.88321   0.00000  Uiso   1.00
C545   C     0.16672   0.16638   0.52432   0.00000  Uiso   1.00
C546   C     0.16688   0.16638   0.97573   0.00000  Uiso   1.00
C547   C     0.29040   0.16666   0.75010   0.00000  Uiso   1.00
C548   C     0.04293   0.16667   0.74986   0.00000  Uiso   1.00
Cu549  Cu    0.16667   0.21355   0.75000   0.00000  Uiso   1.00
Cu550  Cu    0.16667   0.11978   0.75000   0.00000  Uiso   1.00
H551   H     0.14252   0.23612   0.52919   0.00000  Uiso   1.00
H552   H     0.14450   0.09601   0.96840   0.00000  Uiso   1.00
H553   H     0.18934   0.23674   0.97082   0.00000  Uiso   1.00
H554   H     0.19082   0.09664   0.53171   0.00000  Uiso   1.00
H555   H     0.14319   0.23655   0.60962   0.00000  Uiso   1.00
H556   H     0.14536   0.09586   0.88799   0.00000  Uiso   1.00
H557   H     0.18852   0.23718   0.89039   0.00000  Uiso   1.00
H558   H     0.18985   0.09647   0.61214   0.00000  Uiso   1.00
N559   N     0.16667   0.28402   0.75000   0.00000  Uiso   1.00
N560   N     0.16667   0.04931   0.75000   0.00000  Uiso   1.00
O561   O     0.10655   0.20625   0.74999   0.00000  Uiso   1.00
O562   O     0.22679   0.12709   0.75001   0.00000  Uiso   1.00
O563   O     0.22679   0.20625   0.75001   0.00000  Uiso   1.00
O564   O     0.10655   0.12709   0.75000   0.00000  Uiso   1.00
O565   O     0.16666   0.20626   0.68573   0.00000  Uiso   1.00
O566   O     0.16667   0.12707   0.81427   0.00000  Uiso   1.00
O567   O     0.16667   0.20626   0.81427   0.00000  Uiso   1.00
O568   O     0.16666   0.12707   0.68573   0.00000  Uiso   1.00
O569   O     0.12468   0.04575   0.68231   0.00000  Uiso   1.00
H570   H     0.11221   0.07403   0.69382   0.00000  Uiso   1.00
O571   O     0.20902   0.28770   0.81747   0.00000  Uiso   1.00
H572   H     0.22112   0.25919   0.80605   0.00000  Uiso   1.00
O573   O     0.20863   0.04561   0.81766   0.00000  Uiso   1.00
H574   H     0.22101   0.07381   0.80606   0.00000  Uiso   1.00
O575   O     0.12435   0.28783   0.68255   0.00000  Uiso   1.00
H576   H     0.11235   0.25940   0.69408   0.00000  Uiso   1.00
Cl577  Cl    0.05284   0.13564   0.83607   0.00000  Uiso   1.00
Cl578  Cl    0.28046   0.19754   0.66386   0.00000  Uiso   1.00
Cl579  Cl    0.28825   0.13690   0.83673   0.00000  Uiso   1.00
Cl580  Cl    0.04508   0.19654   0.66324   0.00000  Uiso   1.00
C581   C     0.42093   0.16668   0.74978   0.00000  Uiso   1.00
C582   C     0.57906   0.16665   0.75020   0.00000  Uiso   1.00
C583   C     0.49987   0.16665   0.66511   0.00000  Uiso   1.00
C584   C     0.50016   0.16666   0.83491   0.00000  Uiso   1.00
C585   C     0.47977   0.02449   0.71672   0.00000  Uiso   1.00
C586   C     0.52032   0.30888   0.78322   0.00000  Uiso   1.00
C587   C     0.52022   0.02441   0.78328   0.00000  Uiso   1.00
C588   C     0.47970   0.30895   0.71677   0.00000  Uiso   1.00
C589   C     0.35664   0.15247   0.78804   0.00000  Uiso   1.00
C590   C     0.64335   0.18083   0.71190   0.00000  Uiso   1.00
C591   C     0.64677   0.15262   0.78822   0.00000  Uiso   1.00
C592   C     0.35323   0.18073   0.71173   0.00000  Uiso   1.00
C593   C     0.48681   0.20570   0.54698   0.00000  Uiso   1.00
C594   C     0.48807   0.12677   0.95173   0.00000  Uiso   1.00
C595   C     0.51246   0.20603   0.95305   0.00000  Uiso   1.00
C596   C     0.51314   0.12712   0.54836   0.00000  Uiso   1.00
C597   C     0.48700   0.20588   0.59291   0.00000  Uiso   1.00
C598   C     0.48836   0.12676   0.90580   0.00000  Uiso   1.00
C599   C     0.51220   0.20622   0.90711   0.00000  Uiso   1.00
C600   C     0.51278   0.12710   0.59428   0.00000  Uiso   1.00
C601   C     0.49987   0.16655   0.61683   0.00000  Uiso   1.00
C602   C     0.50024   0.16656   0.88321   0.00000  Uiso   1.00
C603   C     0.50005   0.16638   0.52432   0.00000  Uiso   1.00
C604   C     0.50022   0.16638   0.97573   0.00000  Uiso   1.00
C605   C     0.62373   0.16666   0.75010   0.00000  Uiso   1.00
C606   C     0.37626   0.16667   0.74986   0.00000  Uiso   1.00
Cu607  Cu    0.50000   0.21355   0.75000   0.00000  Uiso   1.00
Cu608  Cu    0.50000   0.11978   0.75000   0.00000  Uiso   1.00
H609   H     0.47585   0.23612   0.52919   0.00000  Uiso   1.00
H610   H     0.47783   0.09601   0.96840   0.00000  Uiso   1.00
H611   H     0.52268   0.23674   0.97082   0.00000  Uiso   1.00
H612   H     0.52415   0.09664   0.53171   0.00000  Uiso   1.00
H613   H     0.47653   0.23655   0.60962   0.00000  Uiso   1.00
H614   H     0.47869   0.09586   0.88799   0.00000  Uiso   1.00
H615   H     0.52185   0.23718   0.89039   0.00000  Uiso   1.00
H616   H     0.52318   0.09647   0.61214   0.00000  Uiso   1.00
N617   N     0.50000   0.28402   0.75000   0.00000  Uiso   1.00
N618   N     0.50000   0.04931   0.75000   0.00000  Uiso   1.00
O619   O     0.43988   0.20625   0.74999   0.00000  Uiso   1.00
O620   O     0.56012   0.12709   0.75001   0.00000  Uiso   1.00
O621   O     0.56012   0.20625   0.75001   0.00000  Uiso   1.00
O622   O     0.43988   0.12709   0.75000   0.00000  Uiso   1.00
O623   O     0.50000   0.20626   0.68573   0.00000  Uiso   1.00
O624   O     0.50000   0.12707   0.81427   0.00000  Uiso   1.00
O625   O     0.50000   0.20626   0.81427   0.00000  Uiso   1.00
O626   O     0.50000   0.12707   0.68573   0.00000  Uiso   1.00
O627   O     0.45802   0.04575   0.68231   0.00000  Uiso   1.00
H628   H     0.44555   0.07403   0.69382   0.00000  Uiso   1.00
O629   O     0.54235   0.28770   0.81747   0.00000  Uiso   1.00
H630   H     0.55445   0.25919   0.80605   0.00000  Uiso   1.00
O631   O     0.54196   0.04561   0.81766   0.00000  Uiso   1.00
H632   H     0.55434   0.07381   0.80606   0.00000  Uiso   1.00
O633   O     0.45768   0.28783   0.68255   0.00000  Uiso   1.00
H634   H     0.44568   0.25940   0.69408   0.00000  Uiso   1.00
Cl635  Cl    0.38617   0.13564   0.83607   0.00000  Uiso   1.00
Cl636  Cl    0.61379   0.19754   0.66386   0.00000  Uiso   1.00
Cl637  Cl    0.62158   0.13690   0.83673   0.00000  Uiso   1.00
Cl638  Cl    0.37841   0.19654   0.66324   0.00000  Uiso   1.00
C639   C     0.75427   0.16668   0.74978   0.00000  Uiso   1.00
C640   C     0.91240   0.16665   0.75020   0.00000  Uiso   1.00
C641   C     0.83320   0.16665   0.66511   0.00000  Uiso   1.00
C642   C     0.83349   0.16666   0.83491   0.00000  Uiso   1.00
C643   C     0.81310   0.02449   0.71672   0.00000  Uiso   1.00
C644   C     0.85365   0.30888   0.78322   0.00000  Uiso   1.00
C645   C     0.85355   0.02441   0.78328   0.00000  Uiso   1.00
C646   C     0.81304   0.30895   0.71677   0.00000  Uiso   1.00
C647   C     0.68997   0.15247   0.78804   0.00000  Uiso   1.00
C648   C     0.97668   0.18083   0.71190   0.00000  Uiso   1.00
C649   C     0.98010   0.15262   0.78822   0.00000  Uiso   1.00
C650   C     0.68656   0.18073   0.71173   0.00000  Uiso   1.00
C651   C     0.82014   0.20570   0.54698   0.00000  Uiso   1.00
C652   C     0.82141   0.12677   0.95173   0.00000  Uiso   1.00
C653   C     0.84579   0.20603   0.95305   0.00000  Uiso   1.00
C654   C     0.84647   0.12712   0.54836   0.00000  Uiso   1.00
C655   C     0.82033   0.20588   0.59291   0.00000  Uiso   1.00
C656   C     0.82169   0.12676   0.90580   0.00000  Uiso   1.00
C657   C     0.84553   0.20622   0.90711   0.00000  Uiso   1.00
C658   C     0.84612   0.12710   0.59428   0.00000  Uiso   1.00
C659   C     0.83321   0.16655   0.61683   0.00000  Uiso   1.00
C660   C     0.83357   0.16656   0.88321   0.00000  Uiso   1.00
C661   C     0.83338   0.16638   0.52432   0.00000  Uiso   1.00
C662   C     0.83355   0.16638   0.97573   0.00000  Uiso   1.00
C663   C     0.95706   0.16666   0.75010   0.00000  Uiso   1.00
C664   C     0.70960   0.16667   0.74986   0.00000  Uiso   1.00
Cu665  Cu    0.83333   0.21355   0.75000   0.00000  Uiso   1.00
Cu666  Cu    0.83333   0.11978   0.75000   0.00000  Uiso   1.00
H667   H     0.80918   0.23612   0.52919   0.00000  Uiso   1.00
H668   H     0.81116   0.09601   0.96840   0.00000  Uiso   1.00
H669   H     0.85601   0.23674   0.97082   0.00000  Uiso   1.00
H670   H     0.85748   0.09664   0.53171   0.00000  Uiso   1.00
H671   H     0.80986   0.23655   0.60962   0.00000  Uiso   1.00
H672   H     0.81202   0.09586   0.88799   0.00000  Uiso   1.00
H673   H     0.85518   0.23718   0.89039   0.00000  Uiso   1.00
H674   H     0.85652   0.09647   0.61214   0.00000  Uiso   1.00
N675   N     0.83333   0.28402   0.75000   0.00000  Uiso   1.00
N676   N     0.83333   0.04931   0.75000   0.00000  Uiso   1.00
O677   O     0.77321   0.20625   0.74999   0.00000  Uiso   1.00
O678   O     0.89345   0.12709   0.75001   0.00000  Uiso   1.00
O679   O     0.89345   0.20625   0.75001   0.00000  Uiso   1.00
O680   O     0.77321   0.12709   0.75000   0.00000  Uiso   1.00
O681   O     0.83333   0.20626   0.68573   0.00000  Uiso   1.00
O682   O     0.83334   0.12707   0.81427   0.00000  Uiso   1.00
O683   O     0.83334   0.20626   0.81427   0.00000  Uiso   1.00
O684   O     0.83333   0.12707   0.68573   0.00000  Uiso   1.00
O685   O     0.79135   0.04575   0.68231   0.00000  Uiso   1.00
H686   H     0.77888   0.07403   0.69382   0.00000  Uiso   1.00
O687   O     0.87568   0.28770   0.81747   0.00000  Uiso   1.00
H688   H     0.88778   0.25919   0.80605   0.00000  Uiso   1.00
O689   O     0.87530   0.04561   0.81766   0.00000  Uiso   1.00
H690   H     0.88767   0.07381   0.80606   0.00000  Uiso   1.00
O691   O     0.79101   0.28783   0.68255   0.00000  Uiso   1.00
H692   H     0.77901   0.25940   0.69408   0.00000  Uiso   1.00
Cl693  Cl    0.71951   0.13564   0.83607   0.00000  Uiso   1.00
Cl694  Cl    0.94712   0.19754   0.66386   0.00000  Uiso   1.00
Cl695  Cl    0.95491   0.13690   0.83673   0.00000  Uiso   1.00
Cl696  Cl    0.71175   0.19654   0.66324   0.00000  Uiso   1.00
C697   C     0.08760   0.50002   0.74978   0.00000  Uiso   1.00
C698   C     0.24573   0.49998   0.75020   0.00000  Uiso   1.00
C699   C     0.16653   0.49998   0.66511   0.00000  Uiso   1.00
C700   C     0.16682   0.49999   0.83491   0.00000  Uiso   1.00
C701   C     0.14643   0.35782   0.71672   0.00000  Uiso   1.00
C702   C     0.18698   0.64221   0.78322   0.00000  Uiso   1.00
C703   C     0.18688   0.35775   0.78328   0.00000  Uiso   1.00
C704   C     0.14637   0.64229   0.71677   0.00000  Uiso   1.00
C705   C     0.02331   0.48580   0.78804   0.00000  Uiso   1.00
C706   C     0.31001   0.51416   0.71190   0.00000  Uiso   1.00
C707   C     0.31343   0.48595   0.78822   0.00000  Uiso   1.00
C708   C     0.01989   0.51406   0.71173   0.00000  Uiso   1.00
C709   C     0.15348   0.53903   0.54698   0.00000  Uiso   1.00
C710   C     0.15474   0.46010   0.95173   0.00000  Uiso   1.00
C711   C     0.17912   0.53936   0.95305   0.00000  Uiso   1.00
C712   C     0.17980   0.46045   0.54836   0.00000  Uiso   1.00
C713   C     0.15366   0.53921   0.59291   0.00000  Uiso   1.00
C714   C     0.15502   0.46010   0.90580   0.00000  Uiso   1.00
C715   C     0.17886   0.53955   0.90711   0.00000  Uiso   1.00
C716   C     0.17945   0.46043   0.59428   0.00000  Uiso   1.00
C717   C     0.16654   0.49988   0.61683   0.00000  Uiso   1.00
C718   C     0.16690   0.49989   0.88321   0.00000  Uiso   1.00
C719   C     0.16672   0.49972   0.52432   0.00000  Uiso   1.00
C720   C     0.16688   0.49971   0.97573   0.00000  Uiso   1.00
C721   C     0.29040   0.49999   0.75010   0.00000  Uiso   1.00
C722   C     0.04293   0.50000   0.74986   0.00000  Uiso   1.00
Cu723  Cu    0.16667   0.54689   0.75000   0.00000  Uiso   1.00
Cu724  Cu    0.16667   0.45311   0.75000   0.00000  Uiso   1.00
H725   H     0.14252   0.56945   0.52919   0.00000  Uiso   1.00
H726   H     0.14450   0.42934   0.96840   0.00000  Uiso   1.00
H727   H     0.18934   0.57007   0.97082   0.00000  Uiso   1.00
H728   H     0.19082   0.42998   0.53171   0.00000  Uiso   1.00
H729   H     0.14319   0.56988   0.60962   0.00000  Uiso   1.00
H730   H     0.14536   0.42919   0.88799   0.00000  Uiso   1.00
H731   H     0.18852   0.57052   0.89039   0.00000  Uiso   1.00
H732   H     0.18985   0.42981   0.61214   0.00000  Uiso   1.00
N733   N     0.16667   0.61736   0.75000   0.00000  Uiso   1.00
N734   N     0.16667   0.38264   0.75000   0.00000  Uiso   1.00
O735   O     0.10655   0.53958   0.74999   0.00000  Uiso   1.00
O736   O     0.22679   0.46042   0.75001   0.00000  Uiso   1.00
O737   O     0.22679   0.53958   0.75001   0.00000  Uiso   1.00
O738   O     0.10655   0.46042   0.75000   0.00000  Uiso   1.00
O739   O     0.16666   0.53959   0.68573   0.00000  Uiso   1.00
O740   O     0.16667   0.46041   0.81427   0.00000  Uiso   1.00
O741   O     0.16667   0.53959   0.81427   0.00000  Uiso   1.00
O742   O     0.16666   0.46041   0.68573   0.00000  Uiso   1.00
O743   O     0.12468   0.37908   0.68231   0.00000  Uiso   1.00
H744   H     0.11221   0.40736   0.69382   0.00000  Uiso   1.00
O745   O     0.20902   0.62104   0.81747   0.00000  Uiso   1.00
H746   H     0.22112   0.59252   0.80605   0.00000  Uiso   1.00
O747   O     0.20863   0.37895   0.81766   0.00000  Uiso   1.00
H748   H     0.22101   0.40715   0.80606   0.00000  Uiso   1.00
O749   O     0.12435   0.62117   0.68255   0.00000  Uiso   1.00
H750   H     0.11235   0.59273   0.69408   0.00000  Uiso   1.00
Cl751  Cl    0.05284   0.46898   0.83607   0.00000  Uiso   1.00
Cl752  Cl    0.28046   0.53087   0.66386   0.00000  Uiso   1.00
Cl753  Cl    0.28825   0.47023   0.83673   0.00000  Uiso   1.00
Cl754  Cl    0.04508   0.52988   0.66324   0.00000  Uiso   1.00
C755   C     0.42093   0.50002   0.74978   0.00000  Uiso   1.00
C756   C     0.57906   0.49998   0.75020   0.00000  Uiso   1.00
C757   C     0.49987   0.49998   0.66511   0.00000  Uiso   1.00
C758   C     0.50016   0.49999   0.83491   0.00000  Uiso   1.00
C759   C     0.47977   0.35782   0.71672   0.00000  Uiso   1.00
C760   C     0.52032   0.64221   0.78322   0.00000  Uiso   1.00
C761   C     0.52022   0.35775   0.78328   0.00000  Uiso   1.00
C762   C     0.47970   0.64229   0.71677   0.00000  Uiso   1.00
C763   C     0.35664   0.48580   0.78804   0.00000  Uiso   1.00
C764   C     0.64335   0.51416   0.71190   0.00000  Uiso   1.00
C765   C     0.64677   0.48595   0.78822   0.00000  Uiso   1.00
C766   C     0.35323   0.51406   0.71173   0.00000  Uiso   1.00
C767   C     0.48681   0.53903   0.54698   0.00000  Uiso   1.00
C768   C     0.48807   0.46010   0.95173   0.00000  Uiso   1.00
C769   C     0.51246   0.53936   0.95305   0.00000  Uiso   1.00
C770   C     0.51314   0.46045   0.54836   0.00000  Uiso   1.00
C771   C     0.48700   0.53921   0.59291   0.00000  Uiso   1.00
C772   C     0.48836   0.46010   0.90580   0.00000  Uiso   1.00
C773   C     0.51220   0.53955   0.90711   0.00000  Uiso   1.00
C774   C     0.51278   0.46043   0.59428   0.00000  Uiso   1.00
C775   C     0.49987   0.49988   0.61683   0.00000  Uiso   1.00
C776   C     0.50024   0.49989   0.88321   0.00000  Uiso   1.00
C777   C     0.50005   0.49972   0.52432   0.00000  Uiso   1.00
C778   C     0.50022   0.49971   0.97573   0.00000  Uiso   1.00
C779   C     0.62373   0.49999   0.75010   0.00000  Uiso   1.00
C780   C     0.37626   0.50000   0.74986   0.00000  Uiso   1.00
Cu781  Cu    0.50000   0.54689   0.75000   0.00000  Uiso   1.00
Cu782  Cu    0.50000   0.45311   0.75000   0.00000  Uiso   1.00
H783   H     0.47585   0.56945   0.52919   0.00000  Uiso   1.00
H784   H     0.47783   0.42934   0.96840   0.00000  Uiso   1.00
H785   H     0.52268   0.57007   0.97082   0.00000  Uiso   1.00
H786   H     0.52415   0.42998   0.53171   0.00000  Uiso   1.00
H787   H     0.47653   0.56988   0.60962   0.00000  Uiso   1.00
H788   H     0.47869   0.42919   0.88799   0.00000  Uiso   1.00
H789   H     0.52185   0.57052   0.89039   0.00000  Uiso   1.00
H790   H     0.52318   0.42981   0.61214   0.00000  Uiso   1.00
N791   N     0.50000   0.61736   0.75000   0.00000  Uiso   1.00
N792   N     0.50000   0.38264   0.75000   0.00000  Uiso   1.00
O793   O     0.43988   0.53958   0.74999   0.00000  Uiso   1.00
O794   O     0.56012   0.46042   0.75001   0.00000  Uiso   1.00
O795   O     0.56012   0.53958   0.75001   0.00000  Uiso   1.00
O796   O     0.43988   0.46042   0.75000   0.00000  Uiso   1.00
O797   O     0.50000   0.53959   0.68573   0.00000  Uiso   1.00
O798   O     0.50000   0.46041   0.81427   0.00000  Uiso   1.00
O799   O     0.50000   0.53959   0.81427   0.00000  Uiso   1.00
O800   O     0.50000   0.46041   0.68573   0.00000  Uiso   1.00
O801   O     0.45802   0.37908   0.68231   0.00000  Uiso   1.00
H802   H     0.44555   0.40736   0.69382   0.00000  Uiso   1.00
O803   O     0.54235   0.62104   0.81747   0.00000  Uiso   1.00
H804   H     0.55445   0.59252   0.80605   0.00000  Uiso   1.00
O805   O     0.54196   0.37895   0.81766   0.00000  Uiso   1.00
H806   H     0.55434   0.40715   0.80606   0.00000  Uiso   1.00
O807   O     0.45768   0.62117   0.68255   0.00000  Uiso   1.00
H808   H     0.44568   0.59273   0.69408   0.00000  Uiso   1.00
Cl809  Cl    0.38617   0.46898   0.83607   0.00000  Uiso   1.00
Cl810  Cl    0.61379   0.53087   0.66386   0.00000  Uiso   1.00
Cl811  Cl    0.62158   0.47023   0.83673   0.00000  Uiso   1.00
Cl812  Cl    0.37841   0.52988   0.66324   0.00000  Uiso   1.00
C813   C     0.75427   0.50002   0.74978   0.00000  Uiso   1.00
C814   C     0.91240   0.49998   0.75020   0.00000  Uiso   1.00
C815   C     0.83320   0.49998   0.66511   0.00000  Uiso   1.00
C816   C     0.83349   0.49999   0.83491   0.00000  Uiso   1.00
C817   C     0.81310   0.35782   0.71672   0.00000  Uiso   1.00
C818   C     0.85365   0.64221   0.78322   0.00000  Uiso   1.00
C819   C     0.85355   0.35775   0.78328   0.00000  Uiso   1.00
C820   C     0.81304   0.64229   0.71677   0.00000  Uiso   1.00
C821   C     0.68997   0.48580   0.78804   0.00000  Uiso   1.00
C822   C     0.97668   0.51416   0.71190   0.00000  Uiso   1.00
C823   C     0.98010   0.48595   0.78822   0.00000  Uiso   1.00
C824   C     0.68656   0.51406   0.71173   0.00000  Uiso   1.00
C825   C     0.82014   0.53903   0.54698   0.00000  Uiso   1.00
C826   C     0.82141   0.46010   0.95173   0.00000  Uiso   1.00
C827   C     0.84579   0.53936   0.95305   0.00000  Uiso   1.00
C828   C     0.84647   0.46045   0.54836   0.00000  Uiso   1.00
C829   C     0.82033   0.53921   0.59291   0.00000  Uiso   1.00
C830   C     0.82169   0.46010   0.90580   0.00000  Uiso   1.00
C831   C     0.84553   0.53955   0.90711   0.00000  Uiso   1.00
C832   C     0.84612   0.46043   0.59428   0.00000  Uiso   1.00
C833   C     0.83321   0.49988   0.61683   0.00000  Uiso   1.00
C834   C     0.83357   0.49989   0.88321   0.00000  Uiso   1.00
C835   C     0.83338   0.49972   0.52432   0.00000  Uiso   1.00
C836   C     0.83355   0.49971   0.97573   0.00000  Uiso   1.00
C837   C     0.95706   0.49999   0.75010   0.00000  Uiso   1.00
C838   C     0.70960   0.50000   0.74986   0.00000  Uiso   1.00
Cu839  Cu    0.83333   0.54689   0.75000   0.00000  Uiso   1.00
Cu840  Cu    0.83333   0.45311   0.75000   0.00000  Uiso   1.00
H841   H     0.80918   0.56945   0.52919   0.00000  Uiso   1.00
H842   H     0.81116   0.42934   0.96840   0.00000  Uiso   1.00
H843   H     0.85601   0.57007   0.97082   0.00000  Uiso   1.00
H844   H     0.85748   0.42998   0.53171   0.00000  Uiso   1.00
H845   H     0.80986   0.56988   0.60962   0.00000  Uiso   1.00
H846   H     0.81202   0.42919   0.88799   0.00000  Uiso   1.00
H847   H     0.85518   0.57052   0.89039   0.00000  Uiso   1.00
H848   H     0.85652   0.42981   0.61214   0.00000  Uiso   1.00
N849   N     0.83333   0.61736   0.75000   0.00000  Uiso   1.00
N850   N     0.83333   0.38264   0.75000   0.00000  Uiso   1.00
O851   O     0.77321   0.53958   0.74999   0.00000  Uiso   1.00
O852   O     0.89345   0.46042   0.75001   0.00000  Uiso   1.00
O853   O     0.89345   0.53958   0.75001   0.00000  Uiso   1.00
O854   O     0.77321   0.46042   0.75000   0.00000  Uiso   1.00
O855   O     0.83333   0.53959   0.68573   0.00000  Uiso   1.00
O856   O     0.83334   0.46041   0.81427   0.00000  Uiso   1.00
O857   O     0.83334   0.53959   0.81427   0.00000  Uiso   1.00
O858   O     0.83333   0.46041   0.68573   0.00000  Uiso   1.00
O859   O     0.79135   0.37908   0.68231   0.00000  Uiso   1.00
H860   H     0.77888   0.40736   0.69382   0.00000  Uiso   1.00
O861   O     0.87568   0.62104   0.81747   0.00000  Uiso   1.00
H862   H     0.88778   0.59252   0.80605   0.00000  Uiso   1.00
O863   O     0.87530   0.37895   0.81766   0.00000  Uiso   1.00
H864   H     0.88767   0.40715   0.80606   0.00000  Uiso   1.00
O865   O     0.79101   0.62117   0.68255   0.00000  Uiso   1.00
H866   H     0.77901   0.59273   0.69408   0.00000  Uiso   1.00
Cl867  Cl    0.71951   0.46898   0.83607   0.00000  Uiso   1.00
Cl868  Cl    0.94712   0.53087   0.66386   0.00000  Uiso   1.00
Cl869  Cl    0.95491   0.47023   0.83673   0.00000  Uiso   1.00
Cl870  Cl    0.71175   0.52988   0.66324   0.00000  Uiso   1.00
C871   C     0.08760   0.83335   0.74978   0.00000  Uiso   1.00
C872   C     0.24573   0.83332   0.75020   0.00000  Uiso   1.00
C873   C     0.16653   0.83331   0.66511   0.00000  Uiso   1.00
C874   C     0.16682   0.83332   0.83491   0.00000  Uiso   1.00
C875   C     0.14643   0.69115   0.71672   0.00000  Uiso   1.00
C876   C     0.18698   0.97555   0.78322   0.00000  Uiso   1.00
C877   C     0.18688   0.69108   0.78328   0.00000  Uiso   1.00
C878   C     0.14637   0.97562   0.71677   0.00000  Uiso   1.00
C879   C     0.02331   0.81913   0.78804   0.00000  Uiso   1.00
C880   C     0.31001   0.84749   0.71190   0.00000  Uiso   1.00
C881   C     0.31343   0.81928   0.78822   0.00000  Uiso   1.00
C882   C     0.01989   0.84739   0.71173   0.00000  Uiso   1.00
C883   C     0.15348   0.87236   0.54698   0.00000  Uiso   1.00
C884   C     0.15474   0.79344   0.95173   0.00000  Uiso   1.00
C885   C     0.17912   0.87270   0.95305   0.00000  Uiso   1.00
C886   C     0.17980   0.79379   0.54836   0.00000  Uiso   1.00
C887   C     0.15366   0.87255   0.59291   0.00000  Uiso   1.00
C888   C     0.15502   0.79343   0.90580   0.00000  Uiso   1.00
C889   C     0.17886   0.87288   0.90711   0.00000  Uiso   1.00
C890   C     0.17945   0.79377   0.59428   0.00000  Uiso   1.00
C891   C     0.16654   0.83322   0.61683   0.00000  Uiso   1.00
C892   C     0.16690   0.83323   0.88321   0.00000  Uiso   1.00
C893   C     0.16672   0.83305   0.52432   0.00000  Uiso   1.00
C894   C     0.16688   0.83304   0.97573   0.00000  Uiso   1.00
C895   C     0.29040   0.83332   0.75010   0.00000  Uiso   1.00
C896   C     0.04293   0.83334   0.74986   0.00000  Uiso   1.00
Cu897  Cu    0.16667   0.88022   0.75000   0.00000  Uiso   1.00
Cu898  Cu    0.16667   0.78645   0.75000   0.00000  Uiso   1.00
H899   H     0.14252   0.90278   0.52919   0.00000  Uiso   1.00
H900   H     0.14450   0.76267   0.96840   0.00000  Uiso   1.00
H901   H     0.18934   0.90341   0.97082   0.00000  Uiso   1.00
H902   H     0.19082   0.76331   0.53171   0.00000  Uiso   1.00
H903   H     0.14319   0.90321   0.60962   0.00000  Uiso   1.00
H904   H     0.14536   0.76252   0.88799   0.00000  Uiso   1.00
H905   H     0.18852   0.90385   0.89039   0.00000  Uiso   1.00
H906   H     0.18985   0.76314   0.61214   0.00000  Uiso   1.00
N907   N     0.16667   0.95069   0.75000   0.00000  Uiso   1.00
N908   N     0.16667   0.71598   0.75000   0.00000  Uiso   1.00
O909   O     0.10655   0.87291   0.74999   0.00000  Uiso   1.00
O910   O     0.22679   0.79375   0.75001   0.00000  Uiso   1.00
O911   O     0.22679   0.87291   0.75001   0.00000  Uiso   1.00
O912   O     0.10655   0.79375   0.75000   0.00000  Uiso   1.00
O913   O     0.16666   0.87293   0.68573   0.00000  Uiso   1.00
O914   O     0.16667   0.79374   0.81427   0.00000  Uiso   1.00
O915   O     0.16667   0.87293   0.81427   0.00000  Uiso   1.00
O916   O     0.16666   0.79374   0.68573   0.00000  Uiso   1.00
O917   O     0.12468   0.71241   0.68231   0.00000  Uiso   1.00
H918   H     0.11221   0.74070   0.69382   0.00000  Uiso   1.00
O919   O     0.20902   0.95437   0.81747   0.00000  Uiso   1.00
H920   H     0.22112   0.92586   0.80605   0.00000  Uiso   1.00
O921   O     0.20863   0.71228   0.81766   0.00000  Uiso   1.00
H922   H     0.22101   0.74048   0.80606   0.00000  Uiso   1.00
O923   O     0.12435   0.95450   0.68255   0.00000  Uiso   1.00
H924   H     0.11235   0.92606   0.69408   0.00000  Uiso   1.00
Cl925  Cl    0.05284   0.80231   0.83607   0.00000  Uiso   1.00
Cl926  Cl    0.28046   0.86420   0.66386   0.00000  Uiso   1.00
Cl927  Cl    0.28825   0.80356   0.83673   0.00000  Uiso   1.00
Cl928  Cl    0.04508   0.86321   0.66324   0.00000  Uiso   1.00
C929   C     0.42093   0.83335   0.74978   0.00000  Uiso   1.00
C930   C     0.57906   0.83332   0.75020   0.00000  Uiso   1.00
C931   C     0.49987   0.83331   0.66511   0.00000  Uiso   1.00
C932   C     0.50016   0.83332   0.83491   0.00000  Uiso   1.00
C933   C     0.47977   0.69115   0.71672   0.00000  Uiso   1.00
C934   C     0.52032   0.97555   0.78322   0.00000  Uiso   1.00
C935   C     0.52022   0.69108   0.78328   0.00000  Uiso   1.00
C936   C     0.47970   0.97562   0.71677   0.00000  Uiso   1.00
C937   C     0.35664   0.81913   0.78804   0.00000  Uiso   1.00
C938   C     0.64335   0.84749   0.71190   0.00000  Uiso   1.00
C939   C     0.64677   0.81928   0.78822   0.00000  Uiso   1.00
C940   C     0.35323   0.84739   0.71173   0.00000  Uiso   1.00
C941   C     0.48681   0.87236   0.54698   0.00000  Uiso   1.00
C942   C     0.48807   0.79344   0.95173   0.00000  Uiso   1.00
C943   C     0.51246   0.87270   0.95305   0.00000  Uiso   1.00
C944   C     0.51314   0.79379   0.54836   0.00000  Uiso   1.00
C945   C     0.48700   0.87255   0.59291   0.00000  Uiso   1.00
C946   C     0.48836   0.79343   0.90580   0.00000  Uiso   1.00
C947   C     0.51220   0.87288   0.90711   0.00000  Uiso   1.00
C948   C     0.51278   0.79377   0.59428   0.00000  Uiso   1.00
C949   C     0.49987   0.83322   0.61683   0.00000  Uiso   1.00
C950   C     0.50024   0.83323   0.88321   0.00000  Uiso   1.00
C951   C     0.50005   0.83305   0.52432   0.00000  Uiso   1.00
C952   C     0.50022   0.83304   0.97573   0.00000  Uiso   1.00
C953   C     0.62373   0.83332   0.75010   0.00000  Uiso   1.00
C954   C     0.37626   0.83334   0.74986   0.00000  Uiso   1.00
Cu955  Cu    0.50000   0.88022   0.75000   0.00000  Uiso   1.00
Cu956  Cu    0.50000   0.78645   0.75000   0.00000  Uiso   1.00
H957   H     0.47585   0.90278   0.52919   0.00000  Uiso   1.00
H958   H     0.47783   0.76267   0.96840   0.00000  Uiso   1.00
H959   H     0.52268   0.90341   0.97082   0.00000  Uiso   1.00
H960   H     0.52415   0.76331   0.53171   0.00000  Uiso   1.00
H961   H     0.47653   0.90321   0.60962   0.00000  Uiso   1.00
H962   H     0.47869   0.76252   0.88799   0.00000  Uiso   1.00
H963   H     0.52185   0.90385   0.89039   0.00000  Uiso   1.00
H964   H     0.52318   0.76314   0.61214   0.00000  Uiso   1.00
N965   N     0.50000   0.95069   0.75000   0.00000  Uiso   1.00
N966   N     0.50000   0.71598   0.75000   0.00000  Uiso   1.00
O967   O     0.43988   0.87291   0.74999   0.00000  Uiso   1.00
O968   O     0.56012   0.79375   0.75001   0.00000  Uiso   1.00
O969   O     0.56012   0.87291   0.75001   0.00000  Uiso   1.00
O970   O     0.43988   0.79375   0.75000   0.00000  Uiso   1.00
O971   O     0.50000   0.87293   0.68573   0.00000  Uiso   1.00
O972   O     0.50000   0.79374   0.81427   0.00000  Uiso   1.00
O973   O     0.50000   0.87293   0.81427   0.00000  Uiso   1.00
O974   O     0.50000   0.79374   0.68573   0.00000  Uiso   1.00
O975   O     0.45802   0.71241   0.68231   0.00000  Uiso   1.00
H976   H     0.44555   0.74070   0.69382   0.00000  Uiso   1.00
O977   O     0.54235   0.95437   0.81747   0.00000  Uiso   1.00
H978   H     0.55445   0.92586   0.80605   0.00000  Uiso   1.00
O979   O     0.54196   0.71228   0.81766   0.00000  Uiso   1.00
H980   H     0.55434   0.74048   0.80606   0.00000  Uiso   1.00
O981   O     0.45768   0.95450   0.68255   0.00000  Uiso   1.00
H982   H     0.44568   0.92606   0.69408   0.00000  Uiso   1.00
Cl983  Cl    0.38617   0.80231   0.83607   0.00000  Uiso   1.00
Cl984  Cl    0.61379   0.86420   0.66386   0.00000  Uiso   1.00
Cl985  Cl    0.62158   0.80356   0.83673   0.00000  Uiso   1.00
Cl986  Cl    0.37841   0.86321   0.66324   0.00000  Uiso   1.00
C987   C     0.75427   0.83335   0.74978   0.00000  Uiso   1.00
C988   C     0.91240   0.83332   0.75020   0.00000  Uiso   1.00
C989   C     0.83320   0.83331   0.66511   0.00000  Uiso   1.00
C990   C     0.83349   0.83332   0.83491   0.00000  Uiso   1.00
C991   C     0.81310   0.69115   0.71672   0.00000  Uiso   1.00
C992   C     0.85365   0.97555   0.78322   0.00000  Uiso   1.00
C993   C     0.85355   0.69108   0.78328   0.00000  Uiso   1.00
C994   C     0.81304   0.97562   0.71677   0.00000  Uiso   1.00
C995   C     0.68997   0.81913   0.78804   0.00000  Uiso   1.00
C996   C     0.97668   0.84749   0.71190   0.00000  Uiso   1.00
C997   C     0.98010   0.81928   0.78822   0.00000  Uiso   1.00
C998   C     0.68656   0.84739   0.71173   0.00000  Uiso   1.00
C999   C     0.82014   0.87236   0.54698   0.00000  Uiso   1.00
C1000  C     0.82141   0.79344   0.95173   0.00000  Uiso   1.00
C1001  C     0.84579   0.87270   0.95305   0.00000  Uiso   1.00
C1002  C     0.84647   0.79379   0.54836   0.00000  Uiso   1.00
C1003  C     0.82033   0.87255   0.59291   0.00000  Uiso   1.00
C1004  C     0.82169   0.79343   0.90580   0.00000  Uiso   1.00
C1005  C     0.84553   0.87288   0.90711   0.00000  Uiso   1.00
C1006  C     0.84612   0.79377   0.59428   0.00000  Uiso   1.00
C1007  C     0.83321   0.83322   0.61683   0.00000  Uiso   1.00
C1008  C     0.83357   0.83323   0.88321   0.00000  Uiso   1.00
C1009  C     0.83338   0.83305   0.52432   0.00000  Uiso   1.00
C1010  C     0.83355   0.83304   0.97573   0.00000  Uiso   1.00
C1011  C     0.95706   0.83332   0.75010   0.00000  Uiso   1.00
C1012  C     0.70960   0.83334   0.74986   0.00000  Uiso   1.00
Cu1013 Cu    0.83333   0.88022   0.75000   0.00000  Uiso   1.00
Cu1014 Cu    0.83333   0.78645   0.75000   0.00000  Uiso   1.00
H1015  H     0.80918   0.90278   0.52919   0.00000  Uiso   1.00
H1016  H     0.81116   0.76267   0.96840   0.00000  Uiso   1.00
H1017  H     0.85601   0.90341   0.97082   0.00000  Uiso   1.00
H1018  H     0.85748   0.76331   0.53171   0.00000  Uiso   1.00
H1019  H     0.80986   0.90321   0.60962   0.00000  Uiso   1.00
H1020  H     0.81202   0.76252   0.88799   0.00000  Uiso   1.00
H1021  H     0.85518   0.90385   0.89039   0.00000  Uiso   1.00
H1022  H     0.85652   0.76314   0.61214   0.00000  Uiso   1.00
N1023  N     0.83333   0.95069   0.75000   0.00000  Uiso   1.00
N1024  N     0.83333   0.71598   0.75000   0.00000  Uiso   1.00
O1025  O     0.77321   0.87291   0.74999   0.00000  Uiso   1.00
O1026  O     0.89345   0.79375   0.75001   0.00000  Uiso   1.00
O1027  O     0.89345   0.87291   0.75001   0.00000  Uiso   1.00
O1028  O     0.77321   0.79375   0.75000   0.00000  Uiso   1.00
O1029  O     0.83333   0.87293   0.68573   0.00000  Uiso   1.00
O1030  O     0.83334   0.79374   0.81427   0.00000  Uiso   1.00
O1031  O     0.83334   0.87293   0.81427   0.00000  Uiso   1.00
O1032  O     0.83333   0.79374   0.68573   0.00000  Uiso   1.00
O1033  O     0.79135   0.71241   0.68231   0.00000  Uiso   1.00
H1034  H     0.77888   0.74070   0.69382   0.00000  Uiso   1.00
O1035  O     0.87568   0.95437   0.81747   0.00000  Uiso   1.00
H1036  H     0.88778   0.92586   0.80605   0.00000  Uiso   1.00
O1037  O     0.87530   0.71228   0.81766   0.00000  Uiso   1.00
H1038  H     0.88767   0.74048   0.80606   0.00000  Uiso   1.00
O1039  O     0.79101   0.95450   0.68255   0.00000  Uiso   1.00
H1040  H     0.77901   0.92606   0.69408   0.00000  Uiso   1.00
Cl1041 Cl    0.71951   0.80231   0.83607   0.00000  Uiso   1.00
Cl1042 Cl    0.94712   0.86420   0.66386   0.00000  Uiso   1.00
Cl1043 Cl    0.95491   0.80356   0.83673   0.00000  Uiso   1.00
Cl1044 Cl    0.71175   0.86321   0.66324   0.00000  Uiso   1.00
loop_
_geom_bond_atom_site_label_1
_geom_bond_atom_site_label_2
_geom_bond_distance
_geom_bond_site_symmetry_2
_ccdc_geom_bond_type
C1     C26     1.442   .     S
C1     O42     1.298   .     A
C1     O39     1.299   .     A
C2     C25     1.442   .     S
C2     O41     1.298   .     A
C2     O40     1.299   .     A
C3     O46     1.304   .     A
C3     O43     1.305   .     A
C3     C21     1.461   .     S
C4     C22     1.462   .     S
C4     O45     1.305   .     A
C4     O44     1.304   .     A
C5     O47     1.375   .     S
C5     N38     1.378   .     A
C5     C356    1.414   1_545 S
C6     N37     1.379   .     A
C6     O49     1.374   .     S
C6     C181    1.414   .     S
C7     O51     1.374   .     S
C7     N38     1.378   .     A
C7     C354    1.414   1_545 S
C8     O53     1.374   .     S
C8     N37     1.379   .     A
C8     C179    1.414   .     S
C9     Cl55    1.771   .     S
C9     C26     1.404   .     A
C9     C127    1.395   1_455 S
C10    C25     1.404   .     A
C10    Cl56    1.770   .     S
C10    C70     1.395   .     S
C11    C25     1.404   .     A
C11    Cl57    1.769   .     S
C11    C67     1.395   .     S
C12    Cl58    1.770   .     S
C12    C26     1.405   .     A
C12    C126    1.395   1_455 S
C13    C17     1.390   .     A
C13    C23     1.404   .     A
C13    H29     1.083   .     S
C14    H30     1.083   .     S
C14    C24     1.404   .     A
C14    C18     1.390   .     A
C15    H31     1.083   .     S
C15    C19     1.390   .     A
C15    C24     1.404   .     A
C16    H32     1.083   .     S
C16    C20     1.390   .     A
C16    C23     1.404   .     A
C17    H33     1.082   .     S
C17    C21     1.402   .     A
C18    H34     1.083   .     S
C18    C22     1.402   .     A
C19    H35     1.082   .     S
C19    C22     1.402   .     A
C20    H36     1.083   .     S
C20    C21     1.402   .     A
C23    C546    1.471   1_554 S
C24    C545    1.471   .     S
Cu27   O43     1.956   .     S
Cu27   O41     1.951   .     S
Cu27   O45     1.957   .     S
Cu27   N37     2.039   .     S
Cu27   O39     1.952   .     S
Cu27   Cu28    2.714   .     S
Cu28   O46     1.957   .     S
Cu28   O42     1.951   .     S
Cu28   O40     1.952   .     S
Cu28   N38     2.039   .     S
Cu28   O44     1.956   .     S
O47    H48     0.982   .     S
O49    H50     0.982   .     S
O51    H52     0.981   .     S
O53    H54     0.981   .     S
C59    C84     1.442   .     S
C59    O100    1.298   .     A
C59    O97     1.299   .     A
C60    C83     1.442   .     S
C60    O99     1.298   .     A
C60    O98     1.299   .     A
C61    O104    1.304   .     A
C61    O101    1.305   .     A
C61    C79     1.461   .     S
C62    C80     1.462   .     S
C62    O103    1.305   .     A
C62    O102    1.304   .     A
C63    O105    1.375   .     S
C63    N96     1.378   .     A
C63    C414    1.414   1_545 S
C64    N95     1.379   .     A
C64    O107    1.374   .     S
C64    C239    1.414   .     S
C65    O109    1.374   .     S
C65    N96     1.378   .     A
C65    C412    1.414   1_545 S
C66    O111    1.374   .     S
C66    N95     1.379   .     A
C66    C237    1.414   .     S
C67    Cl113   1.771   .     S
C67    C84     1.404   .     A
C68    C83     1.404   .     A
C68    Cl114   1.770   .     S
C68    C128    1.395   .     S
C69    C83     1.404   .     A
C69    Cl115   1.769   .     S
C69    C125    1.395   .     S
C70    Cl116   1.770   .     S
C70    C84     1.405   .     A
C71    C75     1.390   .     A
C71    C81     1.404   .     A
C71    H87     1.083   .     S
C72    H88     1.083   .     S
C72    C82     1.404   .     A
C72    C76     1.390   .     A
C73    H89     1.083   .     S
C73    C77     1.390   .     A
C73    C82     1.404   .     A
C74    H90     1.083   .     S
C74    C78     1.390   .     A
C74    C81     1.404   .     A
C75    H91     1.082   .     S
C75    C79     1.402   .     A
C76    H92     1.083   .     S
C76    C80     1.402   .     A
C77    H93     1.082   .     S
C77    C80     1.402   .     A
C78    H94     1.083   .     S
C78    C79     1.402   .     A
C81    C604    1.471   1_554 S
C82    C603    1.471   .     S
Cu85   O101    1.956   .     S
Cu85   O99     1.951   .     S
Cu85   O103    1.957   .     S
Cu85   N95     2.039   .     S
Cu85   O97     1.952   .     S
Cu85   Cu86    2.714   .     S
Cu86   O104    1.957   .     S
Cu86   O100    1.951   .     S
Cu86   O98     1.952   .     S
Cu86   N96     2.039   .     S
Cu86   O102    1.956   .     S
O105   H106    0.982   .     S
O107   H108    0.982   .     S
O109   H110    0.981   .     S
O111   H112    0.981   .     S
C117   C142    1.442   .     S
C117   O158    1.298   .     A
C117   O155    1.299   .     A
C118   C141    1.442   .     S
C118   O157    1.298   .     A
C118   O156    1.299   .     A
C119   O162    1.304   .     A
C119   O159    1.305   .     A
C119   C137    1.461   .     S
C120   C138    1.462   .     S
C120   O161    1.305   .     A
C120   O160    1.304   .     A
C121   O163    1.375   .     S
C121   N154    1.378   .     A
C121   C472    1.414   1_545 S
C122   N153    1.379   .     A
C122   O165    1.374   .     S
C122   C297    1.414   .     S
C123   O167    1.374   .     S
C123   N154    1.378   .     A
C123   C470    1.414   1_545 S
C124   O169    1.374   .     S
C124   N153    1.379   .     A
C124   C295    1.414   .     S
C125   Cl171   1.771   .     S
C125   C142    1.404   .     A
C126   C141    1.404   .     A
C126   Cl172   1.770   .     S
C126   C12     1.395   1_655 S
C127   C141    1.404   .     A
C127   Cl173   1.769   .     S
C127   C9      1.395   1_655 S
C128   Cl174   1.770   .     S
C128   C142    1.405   .     A
C129   C133    1.390   .     A
C129   C139    1.404   .     A
C129   H145    1.083   .     S
C130   H146    1.083   .     S
C130   C140    1.404   .     A
C130   C134    1.390   .     A
C131   H147    1.083   .     S
C131   C135    1.390   .     A
C131   C140    1.404   .     A
C132   H148    1.083   .     S
C132   C136    1.390   .     A
C132   C139    1.404   .     A
C133   H149    1.082   .     S
C133   C137    1.402   .     A
C134   H150    1.083   .     S
C134   C138    1.402   .     A
C135   H151    1.082   .     S
C135   C138    1.402   .     A
C136   H152    1.083   .     S
C136   C137    1.402   .     A
C139   C662    1.471   1_554 S
C140   C661    1.471   .     S
Cu143  O159    1.956   .     S
Cu143  O157    1.951   .     S
Cu143  O161    1.957   .     S
Cu143  N153    2.039   .     S
Cu143  O155    1.952   .     S
Cu143  Cu144   2.714   .     S
Cu144  O162    1.957   .     S
Cu144  O158    1.951   .     S
Cu144  O156    1.952   .     S
Cu144  N154    2.039   .     S
Cu144  O160    1.956   .     S
O163   H164    0.982   .     S
O165   H166    0.982   .     S
O167   H168    0.981   .     S
O169   H170    0.981   .     S
C175   C200    1.442   .     S
C175   O216    1.298   .     A
C175   O213    1.299   .     A
C176   C199    1.442   .     S
C176   O215    1.298   .     A
C176   O214    1.299   .     A
C177   O220    1.304   .     A
C177   O217    1.305   .     A
C177   C195    1.461   .     S
C178   C196    1.462   .     S
C178   O219    1.305   .     A
C178   O218    1.304   .     A
C179   O221    1.375   .     S
C179   N212    1.378   .     A
C180   N211    1.379   .     A
C180   O223    1.374   .     S
C180   C355    1.414   .     S
C181   O225    1.374   .     S
C181   N212    1.378   .     A
C182   O227    1.374   .     S
C182   N211    1.379   .     A
C182   C353    1.414   .     S
C183   Cl229   1.771   .     S
C183   C200    1.404   .     A
C183   C301    1.395   1_455 S
C184   C199    1.404   .     A
C184   Cl230   1.770   .     S
C184   C244    1.395   .     S
C185   C199    1.404   .     A
C185   Cl231   1.769   .     S
C185   C241    1.395   .     S
C186   Cl232   1.770   .     S
C186   C200    1.405   .     A
C186   C300    1.395   1_455 S
C187   C191    1.390   .     A
C187   C197    1.404   .     A
C187   H203    1.083   .     S
C188   H204    1.083   .     S
C188   C198    1.404   .     A
C188   C192    1.390   .     A
C189   H205    1.083   .     S
C189   C193    1.390   .     A
C189   C198    1.404   .     A
C190   H206    1.083   .     S
C190   C194    1.390   .     A
C190   C197    1.404   .     A
C191   H207    1.082   .     S
C191   C195    1.402   .     A
C192   H208    1.083   .     S
C192   C196    1.402   .     A
C193   H209    1.082   .     S
C193   C196    1.402   .     A
C194   H210    1.083   .     S
C194   C195    1.402   .     A
C197   C720    1.471   1_554 S
C198   C719    1.471   .     S
Cu201  O217    1.956   .     S
Cu201  O215    1.951   .     S
Cu201  O219    1.957   .     S
Cu201  N211    2.039   .     S
Cu201  O213    1.952   .     S
Cu201  Cu202   2.714   .     S
Cu202  O220    1.957   .     S
Cu202  O216    1.951   .     S
Cu202  O214    1.952   .     S
Cu202  N212    2.039   .     S
Cu202  O218    1.956   .     S
O221   H222    0.982   .     S
O223   H224    0.982   .     S
O225   H226    0.981   .     S
O227   H228    0.981   .     S
C233   C258    1.442   .     S
C233   O274    1.298   .     A
C233   O271    1.299   .     A
C234   C257    1.442   .     S
C234   O273    1.298   .     A
C234   O272    1.299   .     A
C235   O278    1.304   .     A
C235   O275    1.305   .     A
C235   C253    1.461   .     S
C236   C254    1.462   .     S
C236   O277    1.305   .     A
C236   O276    1.304   .     A
C237   O279    1.375   .     S
C237   N270    1.378   .     A
C238   N269    1.379   .     A
C238   O281    1.374   .     S
C238   C413    1.414   .     S
C239   O283    1.374   .     S
C239   N270    1.378   .     A
C240   O285    1.374   .     S
C240   N269    1.379   .     A
C240   C411    1.414   .     S
C241   Cl287   1.771   .     S
C241   C258    1.404   .     A
C242   C257    1.404   .     A
C242   Cl288   1.770   .     S
C242   C302    1.395   .     S
C243   C257    1.404   .     A
C243   Cl289   1.769   .     S
C243   C299    1.395   .     S
C244   Cl290   1.770   .     S
C244   C258    1.405   .     A
C245   C249    1.390   .     A
C245   C255    1.404   .     A
C245   H261    1.083   .     S
C246   H262    1.083   .     S
C246   C256    1.404   .     A
C246   C250    1.390   .     A
C247   H263    1.083   .     S
C247   C251    1.390   .     A
C247   C256    1.404   .     A
C248   H264    1.083   .     S
C248   C252    1.390   .     A
C248   C255    1.404   .     A
C249   H265    1.082   .     S
C249   C253    1.402   .     A
C250   H266    1.083   .     S
C250   C254    1.402   .     A
C251   H267    1.082   .     S
C251   C254    1.402   .     A
C252   H268    1.083   .     S
C252   C253    1.402   .     A
C255   C778    1.471   1_554 S
C256   C777    1.471   .     S
Cu259  O275    1.956   .     S
Cu259  O273    1.951   .     S
Cu259  O277    1.957   .     S
Cu259  N269    2.039   .     S
Cu259  O271    1.952   .     S
Cu259  Cu260   2.714   .     S
Cu260  O278    1.957   .     S
Cu260  O274    1.951   .     S
Cu260  O272    1.952   .     S
Cu260  N270    2.039   .     S
Cu260  O276    1.956   .     S
O279   H280    0.982   .     S
O281   H282    0.982   .     S
O283   H284    0.981   .     S
O285   H286    0.981   .     S
C291   C316    1.442   .     S
C291   O332    1.298   .     A
C291   O329    1.299   .     A
C292   C315    1.442   .     S
C292   O331    1.298   .     A
C292   O330    1.299   .     A
C293   O336    1.304   .     A
C293   O333    1.305   .     A
C293   C311    1.461   .     S
C294   C312    1.462   .     S
C294   O335    1.305   .     A
C294   O334    1.304   .     A
C295   O337    1.375   .     S
C295   N328    1.378   .     A
C296   N327    1.379   .     A
C296   O339    1.374   .     S
C296   C471    1.414   .     S
C297   O341    1.374   .     S
C297   N328    1.378   .     A
C298   O343    1.374   .     S
C298   N327    1.379   .     A
C298   C469    1.414   .     S
C299   Cl345   1.771   .     S
C299   C316    1.404   .     A
C300   C315    1.404   .     A
C300   Cl346   1.770   .     S
C300   C186    1.395   1_655 S
C301   C315    1.404   .     A
C301   Cl347   1.769   .     S
C301   C183    1.395   1_655 S
C302   Cl348   1.770   .     S
C302   C316    1.405   .     A
C303   C307    1.390   .     A
C303   C313    1.404   .     A
C303   H319    1.083   .     S
C304   H320    1.083   .     S
C304   C314    1.404   .     A
C304   C308    1.390   .     A
C305   H321    1.083   .     S
C305   C309    1.390   .     A
C305   C314    1.404   .     A
C306   H322    1.083   .     S
C306   C310    1.390   .     A
C306   C313    1.404   .     A
C307   H323    1.082   .     S
C307   C311    1.402   .     A
C308   H324    1.083   .     S
C308   C312    1.402   .     A
C309   H325    1.082   .     S
C309   C312    1.402   .     A
C310   H326    1.083   .     S
C310   C311    1.402   .     A
C313   C836    1.471   1_554 S
C314   C835    1.471   .     S
Cu317  O333    1.956   .     S
Cu317  O331    1.951   .     S
Cu317  O335    1.957   .     S
Cu317  N327    2.039   .     S
Cu317  O329    1.952   .     S
Cu317  Cu318   2.714   .     S
Cu318  O336    1.957   .     S
Cu318  O332    1.951   .     S
Cu318  O330    1.952   .     S
Cu318  N328    2.039   .     S
Cu318  O334    1.956   .     S
O337   H338    0.982   .     S
O339   H340    0.982   .     S
O341   H342    0.981   .     S
O343   H344    0.981   .     S
C349   C374    1.442   .     S
C349   O390    1.298   .     A
C349   O387    1.299   .     A
C350   C373    1.442   .     S
C350   O389    1.298   .     A
C350   O388    1.299   .     A
C351   O394    1.304   .     A
C351   O391    1.305   .     A
C351   C369    1.461   .     S
C352   C370    1.462   .     S
C352   O393    1.305   .     A
C352   O392    1.304   .     A
C353   O395    1.375   .     S
C353   N386    1.378   .     A
C354   N385    1.379   .     A
C354   O397    1.374   .     S
C354   C7      1.414   1_565 S
C355   O399    1.374   .     S
C355   N386    1.378   .     A
C356   O401    1.374   .     S
C356   N385    1.379   .     A
C356   C5      1.414   1_565 S
C357   Cl403   1.771   .     S
C357   C374    1.404   .     A
C357   C475    1.395   1_455 S
C358   C373    1.404   .     A
C358   Cl404   1.770   .     S
C358   C418    1.395   .     S
C359   C373    1.404   .     A
C359   Cl405   1.769   .     S
C359   C415    1.395   .     S
C360   Cl406   1.770   .     S
C360   C374    1.405   .     A
C360   C474    1.395   1_455 S
C361   C365    1.390   .     A
C361   C371    1.404   .     A
C361   H377    1.083   .     S
C362   H378    1.083   .     S
C362   C372    1.404   .     A
C362   C366    1.390   .     A
C363   H379    1.083   .     S
C363   C367    1.390   .     A
C363   C372    1.404   .     A
C364   H380    1.083   .     S
C364   C368    1.390   .     A
C364   C371    1.404   .     A
C365   H381    1.082   .     S
C365   C369    1.402   .     A
C366   H382    1.083   .     S
C366   C370    1.402   .     A
C367   H383    1.082   .     S
C367   C370    1.402   .     A
C368   H384    1.083   .     S
C368   C369    1.402   .     A
C371   C894    1.471   1_554 S
C372   C893    1.471   .     S
Cu375  O391    1.956   .     S
Cu375  O389    1.951   .     S
Cu375  O393    1.957   .     S
Cu375  N385    2.039   .     S
Cu375  O387    1.952   .     S
Cu375  Cu376   2.714   .     S
Cu376  O394    1.957   .     S
Cu376  O390    1.951   .     S
Cu376  O388    1.952   .     S
Cu376  N386    2.039   .     S
Cu376  O392    1.956   .     S
O395   H396    0.982   .     S
O397   H398    0.982   .     S
O399   H400    0.981   .     S
O401   H402    0.981   .     S
C407   C432    1.442   .     S
C407   O448    1.298   .     A
C407   O445    1.299   .     A
C408   C431    1.442   .     S
C408   O447    1.298   .     A
C408   O446    1.299   .     A
C409   O452    1.304   .     A
C409   O449    1.305   .     A
C409   C427    1.461   .     S
C410   C428    1.462   .     S
C410   O451    1.305   .     A
C410   O450    1.304   .     A
C411   O453    1.375   .     S
C411   N444    1.378   .     A
C412   N443    1.379   .     A
C412   O455    1.374   .     S
C412   C65     1.414   1_565 S
C413   O457    1.374   .     S
C413   N444    1.378   .     A
C414   O459    1.374   .     S
C414   N443    1.379   .     A
C414   C63     1.414   1_565 S
C415   Cl461   1.771   .     S
C415   C432    1.404   .     A
C416   C431    1.404   .     A
C416   Cl462   1.770   .     S
C416   C476    1.395   .     S
C417   C431    1.404   .     A
C417   Cl463   1.769   .     S
C417   C473    1.395   .     S
C418   Cl464   1.770   .     S
C418   C432    1.405   .     A
C419   C423    1.390   .     A
C419   C429    1.404   .     A
C419   H435    1.083   .     S
C420   H436    1.083   .     S
C420   C430    1.404   .     A
C420   C424    1.390   .     A
C421   H437    1.083   .     S
C421   C425    1.390   .     A
C421   C430    1.404   .     A
C422   H438    1.083   .     S
C422   C426    1.390   .     A
C422   C429    1.404   .     A
C423   H439    1.082   .     S
C423   C427    1.402   .     A
C424   H440    1.083   .     S
C424   C428    1.402   .     A
C425   H441    1.082   .     S
C425   C428    1.402   .     A
C426   H442    1.083   .     S
C426   C427    1.402   .     A
C429   C952    1.471   1_554 S
C430   C951    1.471   .     S
Cu433  O449    1.956   .     S
Cu433  O447    1.951   .     S
Cu433  O451    1.957   .     S
Cu433  N443    2.039   .     S
Cu433  O445    1.952   .     S
Cu433  Cu434   2.714   .     S
Cu434  O452    1.957   .     S
Cu434  O448    1.951   .     S
Cu434  O446    1.952   .     S
Cu434  N444    2.039   .     S
Cu434  O450    1.956   .     S
O453   H454    0.982   .     S
O455   H456    0.982   .     S
O457   H458    0.981   .     S
O459   H460    0.981   .     S
C465   C490    1.442   .     S
C465   O506    1.298   .     A
C465   O503    1.299   .     A
C466   C489    1.442   .     S
C466   O505    1.298   .     A
C466   O504    1.299   .     A
C467   O510    1.304   .     A
C467   O507    1.305   .     A
C467   C485    1.461   .     S
C468   C486    1.462   .     S
C468   O509    1.305   .     A
C468   O508    1.304   .     A
C469   O511    1.375   .     S
C469   N502    1.378   .     A
C470   N501    1.379   .     A
C470   O513    1.374   .     S
C470   C123    1.414   1_565 S
C471   O515    1.374   .     S
C471   N502    1.378   .     A
C472   O517    1.374   .     S
C472   N501    1.379   .     A
C472   C121    1.414   1_565 S
C473   Cl519   1.771   .     S
C473   C490    1.404   .     A
C474   C489    1.404   .     A
C474   Cl520   1.770   .     S
C474   C360    1.395   1_655 S
C475   C489    1.404   .     A
C475   Cl521   1.769   .     S
C475   C357    1.395   1_655 S
C476   Cl522   1.770   .     S
C476   C490    1.405   .     A
C477   C481    1.390   .     A
C477   C487    1.404   .     A
C477   H493    1.083   .     S
C478   H494    1.083   .     S
C478   C488    1.404   .     A
C478   C482    1.390   .     A
C479   H495    1.083   .     S
C479   C483    1.390   .     A
C479   C488    1.404   .     A
C480   H496    1.083   .     S
C480   C484    1.390   .     A
C480   C487    1.404   .     A
C481   H497    1.082   .     S
C481   C485    1.402   .     A
C482   H498    1.083   .     S
C482   C486    1.402   .     A
C483   H499    1.082   .     S
C483   C486    1.402   .     A
C484   H500    1.083   .     S
C484   C485    1.402   .     A
C487   C1010   1.471   1_554 S
C488   C1009   1.471   .     S
Cu491  O507    1.956   .     S
Cu491  O505    1.951   .     S
Cu491  O509    1.957   .     S
Cu491  N501    2.039   .     S
Cu491  O503    1.952   .     S
Cu491  Cu492   2.714   .     S
Cu492  O510    1.957   .     S
Cu492  O506    1.951   .     S
Cu492  O504    1.952   .     S
Cu492  N502    2.039   .     S
Cu492  O508    1.956   .     S
O511   H512    0.982   .     S
O513   H514    0.982   .     S
O515   H516    0.981   .     S
O517   H518    0.981   .     S
C523   C548    1.442   .     S
C523   O564    1.298   .     A
C523   O561    1.299   .     A
C524   C547    1.442   .     S
C524   O563    1.298   .     A
C524   O562    1.299   .     A
C525   O568    1.304   .     A
C525   O565    1.305   .     A
C525   C543    1.461   .     S
C526   C544    1.462   .     S
C526   O567    1.305   .     A
C526   O566    1.304   .     A
C527   O569    1.375   .     S
C527   N560    1.378   .     A
C527   C878    1.414   1_545 S
C528   N559    1.379   .     A
C528   O571    1.374   .     S
C528   C703    1.414   .     S
C529   O573    1.374   .     S
C529   N560    1.378   .     A
C529   C876    1.414   1_545 S
C530   O575    1.374   .     S
C530   N559    1.379   .     A
C530   C701    1.414   .     S
C531   Cl577   1.771   .     S
C531   C548    1.404   .     A
C531   C649    1.395   1_455 S
C532   C547    1.404   .     A
C532   Cl578   1.770   .     S
C532   C592    1.395   .     S
C533   C547    1.404   .     A
C533   Cl579   1.769   .     S
C533   C589    1.395   .     S
C534   Cl580   1.770   .     S
C534   C548    1.405   .     A
C534   C648    1.395   1_455 S
C535   C539    1.390   .     A
C535   C545    1.404   .     A
C535   H551    1.083   .     S
C536   H552    1.083   .     S
C536   C546    1.404   .     A
C536   C540    1.390   .     A
C537   H553    1.083   .     S
C537   C541    1.390   .     A
C537   C546    1.404   .     A
C538   H554    1.083   .     S
C538   C542    1.390   .     A
C538   C545    1.404   .     A
C539   H555    1.082   .     S
C539   C543    1.402   .     A
C540   H556    1.083   .     S
C540   C544    1.402   .     A
C541   H557    1.082   .     S
C541   C544    1.402   .     A
C542   H558    1.083   .     S
C542   C543    1.402   .     A
C546   C23     1.471   1_556 S
Cu549  O565    1.956   .     S
Cu549  O563    1.951   .     S
Cu549  O567    1.957   .     S
Cu549  N559    2.039   .     S
Cu549  O561    1.952   .     S
Cu549  Cu550   2.714   .     S
Cu550  O568    1.957   .     S
Cu550  O564    1.951   .     S
Cu550  O562    1.952   .     S
Cu550  N560    2.039   .     S
Cu550  O566    1.956   .     S
O569   H570    0.982   .     S
O571   H572    0.982   .     S
O573   H574    0.981   .     S
O575   H576    0.981   .     S
C581   C606    1.442   .     S
C581   O622    1.298   .     A
C581   O619    1.299   .     A
C582   C605    1.442   .     S
C582   O621    1.298   .     A
C582   O620    1.299   .     A
C583   O626    1.304   .     A
C583   O623    1.305   .     A
C583   C601    1.461   .     S
C584   C602    1.462   .     S
C584   O625    1.305   .     A
C584   O624    1.304   .     A
C585   O627    1.375   .     S
C585   N618    1.378   .     A
C585   C936    1.414   1_545 S
C586   N617    1.379   .     A
C586   O629    1.374   .     S
C586   C761    1.414   .     S
C587   O631    1.374   .     S
C587   N618    1.378   .     A
C587   C934    1.414   1_545 S
C588   O633    1.374   .     S
C588   N617    1.379   .     A
C588   C759    1.414   .     S
C589   Cl635   1.771   .     S
C589   C606    1.404   .     A
C590   C605    1.404   .     A
C590   Cl636   1.770   .     S
C590   C650    1.395   .     S
C591   C605    1.404   .     A
C591   Cl637   1.769   .     S
C591   C647    1.395   .     S
C592   Cl638   1.770   .     S
C592   C606    1.405   .     A
C593   C597    1.390   .     A
C593   C603    1.404   .     A
C593   H609    1.083   .     S
C594   H610    1.083   .     S
C594   C604    1.404   .     A
C594   C598    1.390   .     A
C595   H611    1.083   .     S
C595   C599    1.390   .     A
C595   C604    1.404   .     A
C596   H612    1.083   .     S
C596   C600    1.390   .     A
C596   C603    1.404   .     A
C597   H613    1.082   .     S
C597   C601    1.402   .     A
C598   H614    1.083   .     S
C598   C602    1.402   .     A
C599   H615    1.082   .     S
C599   C602    1.402   .     A
C600   H616    1.083   .     S
C600   C601    1.402   .     A
C604   C81     1.471   1_556 S
Cu607  O623    1.956   .     S
Cu607  O621    1.951   .     S
Cu607  O625    1.957   .     S
Cu607  N617    2.039   .     S
Cu607  O619    1.952   .     S
Cu607  Cu608   2.714   .     S
Cu608  O626    1.957   .     S
Cu608  O622    1.951   .     S
Cu608  O620    1.952   .     S
Cu608  N618    2.039   .     S
Cu608  O624    1.956   .     S
O627   H628    0.982   .     S
O629   H630    0.982   .     S
O631   H632    0.981   .     S
O633   H634    0.981   .     S
C639   C664    1.442   .     S
C639   O680    1.298   .     A
C639   O677    1.299   .     A
C640   C663    1.442   .     S
C640   O679    1.298   .     A
C640   O678    1.299   .     A
C641   O684    1.304   .     A
C641   O681    1.305   .     A
C641   C659    1.461   .     S
C642   C660    1.462   .     S
C642   O683    1.305   .     A
C642   O682    1.304   .     A
C643   O685    1.375   .     S
C643   N676    1.378   .     A
C643   C994    1.414   1_545 S
C644   N675    1.379   .     A
C644   O687    1.374   .     S
C644   C819    1.414   .     S
C645   O689    1.374   .     S
C645   N676    1.378   .     A
C645   C992    1.414   1_545 S
C646   O691    1.374   .     S
C646   N675    1.379   .     A
C646   C817    1.414   .     S
C647   Cl693   1.771   .     S
C647   C664    1.404   .     A
C648   C663    1.404   .     A
C648   Cl694   1.770   .     S
C648   C534    1.395   1_655 S
C649   C663    1.404   .     A
C649   Cl695   1.769   .     S
C649   C531    1.395   1_655 S
C650   Cl696   1.770   .     S
C650   C664    1.405   .     A
C651   C655    1.390   .     A
C651   C661    1.404   .     A
C651   H667    1.083   .     S
C652   H668    1.083   .     S
C652   C662    1.404   .     A
C652   C656    1.390   .     A
C653   H669    1.083   .     S
C653   C657    1.390   .     A
C653   C662    1.404   .     A
C654   H670    1.083   .     S
C654   C658    1.390   .     A
C654   C661    1.404   .     A
C655   H671    1.082   .     S
C655   C659    1.402   .     A
C656   H672    1.083   .     S
C656   C660    1.402   .     A
C657   H673    1.082   .     S
C657   C660    1.402   .     A
C658   H674    1.083   .     S
C658   C659    1.402   .     A
C662   C139    1.471   1_556 S
Cu665  O681    1.956   .     S
Cu665  O679    1.951   .     S
Cu665  O683    1.957   .     S
Cu665  N675    2.039   .     S
Cu665  O677    1.952   .     S
Cu665  Cu666   2.714   .     S
Cu666  O684    1.957   .     S
Cu666  O680    1.951   .     S
Cu666  O678    1.952   .     S
Cu666  N676    2.039   .     S
Cu666  O682    1.956   .     S
O685   H686    0.982   .     S
O687   H688    0.982   .     S
O689   H690    0.981   .     S
O691   H692    0.981   .     S
C697   C722    1.442   .     S
C697   O738    1.298   .     A
C697   O735    1.299   .     A
C698   C721    1.442   .     S
C698   O737    1.298   .     A
C698   O736    1.299   .     A
C699   O742    1.304   .     A
C699   O739    1.305   .     A
C699   C717    1.461   .     S
C700   C718    1.462   .     S
C700   O741    1.305   .     A
C700   O740    1.304   .     A
C701   O743    1.375   .     S
C701   N734    1.378   .     A
C702   N733    1.379   .     A
C702   O745    1.374   .     S
C702   C877    1.414   .     S
C703   O747    1.374   .     S
C703   N734    1.378   .     A
C704   O749    1.374   .     S
C704   N733    1.379   .     A
C704   C875    1.414   .     S
C705   Cl751   1.771   .     S
C705   C722    1.404   .     A
C705   C823    1.395   1_455 S
C706   C721    1.404   .     A
C706   Cl752   1.770   .     S
C706   C766    1.395   .     S
C707   C721    1.404   .     A
C707   Cl753   1.769   .     S
C707   C763    1.395   .     S
C708   Cl754   1.770   .     S
C708   C722    1.405   .     A
C708   C822    1.395   1_455 S
C709   C713    1.390   .     A
C709   C719    1.404   .     A
C709   H725    1.083   .     S
C710   H726    1.083   .     S
C710   C720    1.404   .     A
C710   C714    1.390   .     A
C711   H727    1.083   .     S
C711   C715    1.390   .     A
C711   C720    1.404   .     A
C712   H728    1.083   .     S
C712   C716    1.390   .     A
C712   C719    1.404   .     A
C713   H729    1.082   .     S
C713   C717    1.402   .     A
C714   H730    1.083   .     S
C714   C718    1.402   .     A
C715   H731    1.082   .     S
C715   C718    1.402   .     A
C716   H732    1.083   .     S
C716   C717    1.402   .     A
C720   C197    1.471   1_556 S
Cu723  O739    1.956   .     S
Cu723  O737    1.951   .     S
Cu723  O741    1.957   .     S
Cu723  N733    2.039   .     S
Cu723  O735    1.952   .     S
Cu723  Cu724   2.714   .     S
Cu724  O742    1.957   .     S
Cu724  O738    1.951   .     S
Cu724  O736    1.952   .     S
Cu724  N734    2.039   .     S
Cu724  O740    1.956   .     S
O743   H744    0.982   .     S
O745   H746    0.982   .     S
O747   H748    0.981   .     S
O749   H750    0.981   .     S
C755   C780    1.442   .     S
C755   O796    1.298   .     A
C755   O793    1.299   .     A
C756   C779    1.442   .     S
C756   O795    1.298   .     A
C756   O794    1.299   .     A
C757   O800    1.304   .     A
C757   O797    1.305   .     A
C757   C775    1.461   .     S
C758   C776    1.462   .     S
C758   O799    1.305   .     A
C758   O798    1.304   .     A
C759   O801    1.375   .     S
C759   N792    1.378   .     A
C760   N791    1.379   .     A
C760   O803    1.374   .     S
C760   C935    1.414   .     S
C761   O805    1.374   .     S
C761   N792    1.378   .     A
C762   O807    1.374   .     S
C762   N791    1.379   .     A
C762   C933    1.414   .     S
C763   Cl809   1.771   .     S
C763   C780    1.404   .     A
C764   C779    1.404   .     A
C764   Cl810   1.770   .     S
C764   C824    1.395   .     S
C765   C779    1.404   .     A
C765   Cl811   1.769   .     S
C765   C821    1.395   .     S
C766   Cl812   1.770   .     S
C766   C780    1.405   .     A
C767   C771    1.390   .     A
C767   C777    1.404   .     A
C767   H783    1.083   .     S
C768   H784    1.083   .     S
C768   C778    1.404   .     A
C768   C772    1.390   .     A
C769   H785    1.083   .     S
C769   C773    1.390   .     A
C769   C778    1.404   .     A
C770   H786    1.083   .     S
C770   C774    1.390   .     A
C770   C777    1.404   .     A
C771   H787    1.082   .     S
C771   C775    1.402   .     A
C772   H788    1.083   .     S
C772   C776    1.402   .     A
C773   H789    1.082   .     S
C773   C776    1.402   .     A
C774   H790    1.083   .     S
C774   C775    1.402   .     A
C778   C255    1.471   1_556 S
Cu781  O797    1.956   .     S
Cu781  O795    1.951   .     S
Cu781  O799    1.957   .     S
Cu781  N791    2.039   .     S
Cu781  O793    1.952   .     S
Cu781  Cu782   2.714   .     S
Cu782  O800    1.957   .     S
Cu782  O796    1.951   .     S
Cu782  O794    1.952   .     S
Cu782  N792    2.039   .     S
Cu782  O798    1.956   .     S
O801   H802    0.982   .     S
O803   H804    0.982   .     S
O805   H806    0.981   .     S
O807   H808    0.981   .     S
C813   C838    1.442   .     S
C813   O854    1.298   .     A
C813   O851    1.299   .     A
C814   C837    1.442   .     S
C814   O853    1.298   .     A
C814   O852    1.299   .     A
C815   O858    1.304   .     A
C815   O855    1.305   .     A
C815   C833    1.461   .     S
C816   C834    1.462   .     S
C816   O857    1.305   .     A
C816   O856    1.304   .     A
C817   O859    1.375   .     S
C817   N850    1.378   .     A
C818   N849    1.379   .     A
C818   O861    1.374   .     S
C818   C993    1.414   .     S
C819   O863    1.374   .     S
C819   N850    1.378   .     A
C820   O865    1.374   .     S
C820   N849    1.379   .     A
C820   C991    1.414   .     S
C821   Cl867   1.771   .     S
C821   C838    1.404   .     A
C822   C837    1.404   .     A
C822   Cl868   1.770   .     S
C822   C708    1.395   1_655 S
C823   C837    1.404   .     A
C823   Cl869   1.769   .     S
C823   C705    1.395   1_655 S
C824   Cl870   1.770   .     S
C824   C838    1.405   .     A
C825   C829    1.390   .     A
C825   C835    1.404   .     A
C825   H841    1.083   .     S
C826   H842    1.083   .     S
C826   C836    1.404   .     A
C826   C830    1.390   .     A
C827   H843    1.083   .     S
C827   C831    1.390   .     A
C827   C836    1.404   .     A
C828   H844    1.083   .     S
C828   C832    1.390   .     A
C828   C835    1.404   .     A
C829   H845    1.082   .     S
C829   C833    1.402   .     A
C830   H846    1.083   .     S
C830   C834    1.402   .     A
C831   H847    1.082   .     S
C831   C834    1.402   .     A
C832   H848    1.083   .     S
C832   C833    1.402   .     A
C836   C313    1.471   1_556 S
Cu839  O855    1.956   .     S
Cu839  O853    1.951   .     S
Cu839  O857    1.957   .     S
Cu839  N849    2.039   .     S
Cu839  O851    1.952   .     S
Cu839  Cu840   2.714   .     S
Cu840  O858    1.957   .     S
Cu840  O854    1.951   .     S
Cu840  O852    1.952   .     S
Cu840  N850    2.039   .     S
Cu840  O856    1.956   .     S
O859   H860    0.982   .     S
O861   H862    0.982   .     S
O863   H864    0.981   .     S
O865   H866    0.981   .     S
C871   C896    1.442   .     S
C871   O912    1.298   .     A
C871   O909    1.299   .     A
C872   C895    1.442   .     S
C872   O911    1.298   .     A
C872   O910    1.299   .     A
C873   O916    1.304   .     A
C873   O913    1.305   .     A
C873   C891    1.461   .     S
C874   C892    1.462   .     S
C874   O915    1.305   .     A
C874   O914    1.304   .     A
C875   O917    1.375   .     S
C875   N908    1.378   .     A
C876   N907    1.379   .     A
C876   O919    1.374   .     S
C876   C529    1.414   1_565 S
C877   O921    1.374   .     S
C877   N908    1.378   .     A
C878   O923    1.374   .     S
C878   N907    1.379   .     A
C878   C527    1.414   1_565 S
C879   Cl925   1.771   .     S
C879   C896    1.404   .     A
C879   C997    1.395   1_455 S
C880   C895    1.404   .     A
C880   Cl926   1.770   .     S
C880   C940    1.395   .     S
C881   C895    1.404   .     A
C881   Cl927   1.769   .     S
C881   C937    1.395   .     S
C882   Cl928   1.770   .     S
C882   C896    1.405   .     A
C882   C996    1.395   1_455 S
C883   C887    1.390   .     A
C883   C893    1.404   .     A
C883   H899    1.083   .     S
C884   H900    1.083   .     S
C884   C894    1.404   .     A
C884   C888    1.390   .     A
C885   H901    1.083   .     S
C885   C889    1.390   .     A
C885   C894    1.404   .     A
C886   H902    1.083   .     S
C886   C890    1.390   .     A
C886   C893    1.404   .     A
C887   H903    1.082   .     S
C887   C891    1.402   .     A
C888   H904    1.083   .     S
C888   C892    1.402   .     A
C889   H905    1.082   .     S
C889   C892    1.402   .     A
C890   H906    1.083   .     S
C890   C891    1.402   .     A
C894   C371    1.471   1_556 S
Cu897  O913    1.956   .     S
Cu897  O911    1.951   .     S
Cu897  O915    1.957   .     S
Cu897  N907    2.039   .     S
Cu897  O909    1.952   .     S
Cu897  Cu898   2.714   .     S
Cu898  O916    1.957   .     S
Cu898  O912    1.951   .     S
Cu898  O910    1.952   .     S
Cu898  N908    2.039   .     S
Cu898  O914    1.956   .     S
O917   H918    0.982   .     S
O919   H920    0.982   .     S
O921   H922    0.981   .     S
O923   H924    0.981   .     S
C929   C954    1.442   .     S
C929   O970    1.298   .     A
C929   O967    1.299   .     A
C930   C953    1.442   .     S
C930   O969    1.298   .     A
C930   O968    1.299   .     A
C931   O974    1.304   .     A
C931   O971    1.305   .     A
C931   C949    1.461   .     S
C932   C950    1.462   .     S
C932   O973    1.305   .     A
C932   O972    1.304   .     A
C933   O975    1.375   .     S
C933   N966    1.378   .     A
C934   N965    1.379   .     A
C934   O977    1.374   .     S
C934   C587    1.414   1_565 S
C935   O979    1.374   .     S
C935   N966    1.378   .     A
C936   O981    1.374   .     S
C936   N965    1.379   .     A
C936   C585    1.414   1_565 S
C937   Cl983   1.771   .     S
C937   C954    1.404   .     A
C938   C953    1.404   .     A
C938   Cl984   1.770   .     S
C938   C998    1.395   .     S
C939   C953    1.404   .     A
C939   Cl985   1.769   .     S
C939   C995    1.395   .     S
C940   Cl986   1.770   .     S
C940   C954    1.405   .     A
C941   C945    1.390   .     A
C941   C951    1.404   .     A
C941   H957    1.083   .     S
C942   H958    1.083   .     S
C942   C952    1.404   .     A
C942   C946    1.390   .     A
C943   H959    1.083   .     S
C943   C947    1.390   .     A
C943   C952    1.404   .     A
C944   H960    1.083   .     S
C944   C948    1.390   .     A
C944   C951    1.404   .     A
C945   H961    1.082   .     S
C945   C949    1.402   .     A
C946   H962    1.083   .     S
C946   C950    1.402   .     A
C947   H963    1.082   .     S
C947   C950    1.402   .     A
C948   H964    1.083   .     S
C948   C949    1.402   .     A
C952   C429    1.471   1_556 S
Cu955  O971    1.956   .     S
Cu955  O969    1.951   .     S
Cu955  O973    1.957   .     S
Cu955  N965    2.039   .     S
Cu955  O967    1.952   .     S
Cu955  Cu956   2.714   .     S
Cu956  O974    1.957   .     S
Cu956  O970    1.951   .     S
Cu956  O968    1.952   .     S
Cu956  N966    2.039   .     S
Cu956  O972    1.956   .     S
O975   H976    0.982   .     S
O977   H978    0.982   .     S
O979   H980    0.981   .     S
O981   H982    0.981   .     S
C987   C1012   1.442   .     S
C987   O1028   1.298   .     A
C987   O1025   1.299   .     A
C988   C1011   1.442   .     S
C988   O1027   1.298   .     A
C988   O1026   1.299   .     A
C989   O1032   1.304   .     A
C989   O1029   1.305   .     A
C989   C1007   1.461   .     S
C990   C1008   1.462   .     S
C990   O1031   1.305   .     A
C990   O1030   1.304   .     A
C991   O1033   1.375   .     S
C991   N1024   1.378   .     A
C992   N1023   1.379   .     A
C992   O1035   1.374   .     S
C992   C645    1.414   1_565 S
C993   O1037   1.374   .     S
C993   N1024   1.378   .     A
C994   O1039   1.374   .     S
C994   N1023   1.379   .     A
C994   C643    1.414   1_565 S
C995   Cl1041  1.771   .     S
C995   C1012   1.404   .     A
C996   C1011   1.404   .     A
C996   Cl1042  1.770   .     S
C996   C882    1.395   1_655 S
C997   C1011   1.404   .     A
C997   Cl1043  1.769   .     S
C997   C879    1.395   1_655 S
C998   Cl1044  1.770   .     S
C998   C1012   1.405   .     A
C999   C1003   1.390   .     A
C999   C1009   1.404   .     A
C999   H1015   1.083   .     S
C1000  H1016   1.083   .     S
C1000  C1010   1.404   .     A
C1000  C1004   1.390   .     A
C1001  H1017   1.083   .     S
C1001  C1005   1.390   .     A
C1001  C1010   1.404   .     A
C1002  H1018   1.083   .     S
C1002  C1006   1.390   .     A
C1002  C1009   1.404   .     A
C1003  H1019   1.082   .     S
C1003  C1007   1.402   .     A
C1004  H1020   1.083   .     S
C1004  C1008   1.402   .     A
C1005  H1021   1.082   .     S
C1005  C1008   1.402   .     A
C1006  H1022   1.083   .     S
C1006  C1007   1.402   .     A
C1010  C487    1.471   1_556 S
Cu1013 O1029   1.956   .     S
Cu1013 O1027   1.951   .     S
Cu1013 O1031   1.957   .     S
Cu1013 N1023   2.039   .     S
Cu1013 O1025   1.952   .     S
Cu1013 Cu1014  2.714   .     S
Cu1014 O1032   1.957   .     S
Cu1014 O1028   1.951   .     S
Cu1014 O1026   1.952   .     S
Cu1014 N1024   2.039   .     S
Cu1014 O1030   1.956   .     S
O1033  H1034   0.982   .     S
O1035  H1036   0.982   .     S
O1037  H1038   0.981   .     S
O1039  H1040   0.981   .     S
