data_str_m2_o2_o5_pcu_sym.62
_audit_creation_date              2020-01-03
_audit_creation_method            'Materials Studio'
_symmetry_space_group_name_H-M    'P1'
_symmetry_Int_Tables_number       1
_symmetry_cell_setting            triclinic
loop_
_symmetry_equiv_pos_as_xyz
  x,y,z
_cell_length_a                    30.2985
_cell_length_b                    28.0747
_cell_length_c                    27.1541
_cell_angle_alpha                 90.0000
_cell_angle_beta                  92.2532
_cell_angle_gamma                 90.0002
loop_
_atom_site_label
_atom_site_type_symbol
_atom_site_fract_x
_atom_site_fract_y
_atom_site_fract_z
_atom_site_U_iso_or_equiv
_atom_site_adp_type
_atom_site_occupancy
Br1    Br    0.32048   0.13430   0.24197   0.00000  Uiso   1.00
Br2    Br    0.18914   0.36771   0.08131   0.00000  Uiso   1.00
Br3    Br    0.17952   0.13430   0.09136   0.00000  Uiso   1.00
Br4    Br    0.31086   0.36771   0.25202   0.00000  Uiso   1.00
C5     C     0.16530   0.24985   0.16592   0.00000  Uiso   1.00
C6     C     0.27328   0.44644   0.20295   0.00000  Uiso   1.00
C7     C     0.24992   0.25000   0.07365   0.00000  Uiso   1.00
C8     C     0.25008   0.25000   0.25968   0.00000  Uiso   1.00
C9     C     0.25000   0.02745   0.16667   0.00000  Uiso   1.00
C10    C     0.25000   0.47305   0.16667   0.00000  Uiso   1.00
C11    C     0.24997   0.24999   0.02188   0.00000  Uiso   1.00
C12    C     0.25003   0.24999   0.31145   0.00000  Uiso   1.00
C13    C     0.04612   0.25661   0.12296   0.00000  Uiso   1.00
C14    C     0.44997   0.23580   0.12380   0.00000  Uiso   1.00
C15    C     0.45388   0.25661   0.21037   0.00000  Uiso   1.00
C16    C     0.33470   0.24985   0.16741   0.00000  Uiso   1.00
C17    C     0.05003   0.23580   0.20954   0.00000  Uiso   1.00
C18    C     0.09210   0.25573   0.12179   0.00000  Uiso   1.00
C19    C     0.40389   0.23829   0.12325   0.00000  Uiso   1.00
C20    C     0.40790   0.25573   0.21155   0.00000  Uiso   1.00
C21    C     0.09611   0.23829   0.21008   0.00000  Uiso   1.00
C22    C     0.11721   0.24890   0.16605   0.00000  Uiso   1.00
C23    C     0.38279   0.24890   0.16728   0.00000  Uiso   1.00
C24    C     0.02451   0.24622   0.16648   0.00000  Uiso   1.00
C25    C     0.47549   0.24622   0.16685   0.00000  Uiso   1.00
C26    C     0.11351   0.25996   0.07284   0.00000  Uiso   1.00
C27    C     0.27929   0.10416   0.19667   0.00000  Uiso   1.00
C28    C     0.37771   0.22915   0.07573   0.00000  Uiso   1.00
C29    C     0.38649   0.25997   0.26049   0.00000  Uiso   1.00
C30    C     0.12229   0.22915   0.25761   0.00000  Uiso   1.00
C31    C     0.22606   0.39629   0.13144   0.00000  Uiso   1.00
C32    C     0.22070   0.10416   0.13666   0.00000  Uiso   1.00
C33    C     0.27393   0.39629   0.20189   0.00000  Uiso   1.00
C34    C     0.28027   0.05405   0.19615   0.00000  Uiso   1.00
C35    C     0.22671   0.44644   0.13038   0.00000  Uiso   1.00
C36    C     0.21973   0.05405   0.13718   0.00000  Uiso   1.00
Cu37   Cu    0.25000   0.29821   0.16667   0.00000  Uiso   1.00
Cu38   Cu    0.25000   0.20178   0.16667   0.00000  Uiso   1.00
H39    H     0.02739   0.26537   0.08946   0.00000  Uiso   1.00
H40    H     0.13373   0.22786   0.06612   0.00000  Uiso   1.00
H41    H     0.08876   0.26349   0.04177   0.00000  Uiso   1.00
H42    H     0.35705   0.26072   0.06607   0.00000  Uiso   1.00
H43    H     0.39950   0.22210   0.04460   0.00000  Uiso   1.00
H44    H     0.35601   0.19767   0.07992   0.00000  Uiso   1.00
H45    H     0.36508   0.29156   0.26058   0.00000  Uiso   1.00
H46    H     0.36627   0.22787   0.26721   0.00000  Uiso   1.00
H47    H     0.41124   0.26348   0.29156   0.00000  Uiso   1.00
H48    H     0.14295   0.26072   0.26726   0.00000  Uiso   1.00
H49    H     0.10050   0.22210   0.28874   0.00000  Uiso   1.00
H50    H     0.46566   0.22532   0.09039   0.00000  Uiso   1.00
H51    H     0.14399   0.19767   0.25341   0.00000  Uiso   1.00
H52    H     0.47261   0.26537   0.24387   0.00000  Uiso   1.00
H53    H     0.03434   0.22532   0.24294   0.00000  Uiso   1.00
H54    H     0.30530   0.03674   0.21912   0.00000  Uiso   1.00
H55    H     0.20868   0.46383   0.10044   0.00000  Uiso   1.00
H56    H     0.19470   0.03674   0.11422   0.00000  Uiso   1.00
H57    H     0.29132   0.46383   0.23289   0.00000  Uiso   1.00
H58    H     0.13493   0.29155   0.07275   0.00000  Uiso   1.00
N59    N     0.25000   0.12934   0.16667   0.00000  Uiso   1.00
N60    N     0.25000   0.37065   0.16667   0.00000  Uiso   1.00
O61    O     0.18573   0.29071   0.16667   0.00000  Uiso   1.00
O62    O     0.31427   0.20928   0.16666   0.00000  Uiso   1.00
O63    O     0.31427   0.29071   0.16666   0.00000  Uiso   1.00
O64    O     0.18573   0.20928   0.16667   0.00000  Uiso   1.00
O65    O     0.25000   0.29071   0.09613   0.00000  Uiso   1.00
O66    O     0.25000   0.20929   0.23720   0.00000  Uiso   1.00
O67    O     0.25000   0.29071   0.23720   0.00000  Uiso   1.00
O68    O     0.25000   0.20929   0.09613   0.00000  Uiso   1.00
Br69   Br    0.82048   0.13430   0.24197   0.00000  Uiso   1.00
Br70   Br    0.68914   0.36771   0.08131   0.00000  Uiso   1.00
Br71   Br    0.67952   0.13430   0.09136   0.00000  Uiso   1.00
Br72   Br    0.81086   0.36771   0.25202   0.00000  Uiso   1.00
C73    C     0.66530   0.24985   0.16592   0.00000  Uiso   1.00
C74    C     0.77328   0.44644   0.20295   0.00000  Uiso   1.00
C75    C     0.74992   0.25000   0.07365   0.00000  Uiso   1.00
C76    C     0.75008   0.25000   0.25968   0.00000  Uiso   1.00
C77    C     0.75000   0.02745   0.16667   0.00000  Uiso   1.00
C78    C     0.75000   0.47305   0.16667   0.00000  Uiso   1.00
C79    C     0.74997   0.24999   0.02188   0.00000  Uiso   1.00
C80    C     0.75003   0.24999   0.31145   0.00000  Uiso   1.00
C81    C     0.54612   0.25661   0.12296   0.00000  Uiso   1.00
C82    C     0.94997   0.23580   0.12380   0.00000  Uiso   1.00
C83    C     0.95388   0.25661   0.21037   0.00000  Uiso   1.00
C84    C     0.83470   0.24985   0.16741   0.00000  Uiso   1.00
C85    C     0.55003   0.23580   0.20954   0.00000  Uiso   1.00
C86    C     0.59210   0.25573   0.12179   0.00000  Uiso   1.00
C87    C     0.90389   0.23829   0.12325   0.00000  Uiso   1.00
C88    C     0.90790   0.25573   0.21155   0.00000  Uiso   1.00
C89    C     0.59611   0.23829   0.21008   0.00000  Uiso   1.00
C90    C     0.61721   0.24890   0.16605   0.00000  Uiso   1.00
C91    C     0.88279   0.24890   0.16728   0.00000  Uiso   1.00
C92    C     0.52451   0.24622   0.16648   0.00000  Uiso   1.00
C93    C     0.97549   0.24622   0.16685   0.00000  Uiso   1.00
C94    C     0.61351   0.25996   0.07284   0.00000  Uiso   1.00
C95    C     0.77929   0.10416   0.19667   0.00000  Uiso   1.00
C96    C     0.87771   0.22915   0.07573   0.00000  Uiso   1.00
C97    C     0.88649   0.25997   0.26049   0.00000  Uiso   1.00
C98    C     0.62229   0.22915   0.25761   0.00000  Uiso   1.00
C99    C     0.72606   0.39629   0.13144   0.00000  Uiso   1.00
C100   C     0.72070   0.10416   0.13666   0.00000  Uiso   1.00
C101   C     0.77393   0.39629   0.20189   0.00000  Uiso   1.00
C102   C     0.78027   0.05405   0.19615   0.00000  Uiso   1.00
C103   C     0.72671   0.44644   0.13038   0.00000  Uiso   1.00
C104   C     0.71973   0.05405   0.13718   0.00000  Uiso   1.00
Cu105  Cu    0.75000   0.29821   0.16667   0.00000  Uiso   1.00
Cu106  Cu    0.75000   0.20178   0.16667   0.00000  Uiso   1.00
H107   H     0.52739   0.26537   0.08946   0.00000  Uiso   1.00
H108   H     0.63373   0.22786   0.06612   0.00000  Uiso   1.00
H109   H     0.58876   0.26349   0.04177   0.00000  Uiso   1.00
H110   H     0.85705   0.26072   0.06607   0.00000  Uiso   1.00
H111   H     0.89950   0.22210   0.04460   0.00000  Uiso   1.00
H112   H     0.85601   0.19767   0.07992   0.00000  Uiso   1.00
H113   H     0.86508   0.29156   0.26058   0.00000  Uiso   1.00
H114   H     0.86627   0.22787   0.26721   0.00000  Uiso   1.00
H115   H     0.91124   0.26348   0.29156   0.00000  Uiso   1.00
H116   H     0.64295   0.26072   0.26726   0.00000  Uiso   1.00
H117   H     0.60050   0.22210   0.28874   0.00000  Uiso   1.00
H118   H     0.96566   0.22532   0.09039   0.00000  Uiso   1.00
H119   H     0.64399   0.19767   0.25341   0.00000  Uiso   1.00
H120   H     0.97261   0.26537   0.24387   0.00000  Uiso   1.00
H121   H     0.53434   0.22532   0.24294   0.00000  Uiso   1.00
H122   H     0.80530   0.03674   0.21912   0.00000  Uiso   1.00
H123   H     0.70868   0.46383   0.10044   0.00000  Uiso   1.00
H124   H     0.69470   0.03674   0.11422   0.00000  Uiso   1.00
H125   H     0.79132   0.46383   0.23289   0.00000  Uiso   1.00
H126   H     0.63493   0.29155   0.07275   0.00000  Uiso   1.00
N127   N     0.75000   0.12934   0.16667   0.00000  Uiso   1.00
N128   N     0.75000   0.37065   0.16667   0.00000  Uiso   1.00
O129   O     0.68573   0.29071   0.16667   0.00000  Uiso   1.00
O130   O     0.81427   0.20928   0.16666   0.00000  Uiso   1.00
O131   O     0.81427   0.29071   0.16666   0.00000  Uiso   1.00
O132   O     0.68573   0.20928   0.16667   0.00000  Uiso   1.00
O133   O     0.75000   0.29071   0.09613   0.00000  Uiso   1.00
O134   O     0.75000   0.20929   0.23720   0.00000  Uiso   1.00
O135   O     0.75000   0.29071   0.23720   0.00000  Uiso   1.00
O136   O     0.75000   0.20929   0.09613   0.00000  Uiso   1.00
Br137  Br    0.32048   0.63430   0.24197   0.00000  Uiso   1.00
Br138  Br    0.18914   0.86771   0.08131   0.00000  Uiso   1.00
Br139  Br    0.17952   0.63430   0.09136   0.00000  Uiso   1.00
Br140  Br    0.31086   0.86771   0.25202   0.00000  Uiso   1.00
C141   C     0.16530   0.74985   0.16592   0.00000  Uiso   1.00
C142   C     0.27328   0.94644   0.20295   0.00000  Uiso   1.00
C143   C     0.24992   0.75000   0.07365   0.00000  Uiso   1.00
C144   C     0.25008   0.75000   0.25968   0.00000  Uiso   1.00
C145   C     0.25000   0.52745   0.16667   0.00000  Uiso   1.00
C146   C     0.25000   0.97305   0.16667   0.00000  Uiso   1.00
C147   C     0.24997   0.74999   0.02188   0.00000  Uiso   1.00
C148   C     0.25003   0.74999   0.31145   0.00000  Uiso   1.00
C149   C     0.04612   0.75661   0.12296   0.00000  Uiso   1.00
C150   C     0.44997   0.73580   0.12380   0.00000  Uiso   1.00
C151   C     0.45388   0.75661   0.21037   0.00000  Uiso   1.00
C152   C     0.33470   0.74985   0.16741   0.00000  Uiso   1.00
C153   C     0.05003   0.73580   0.20954   0.00000  Uiso   1.00
C154   C     0.09210   0.75573   0.12179   0.00000  Uiso   1.00
C155   C     0.40389   0.73829   0.12325   0.00000  Uiso   1.00
C156   C     0.40790   0.75573   0.21155   0.00000  Uiso   1.00
C157   C     0.09611   0.73829   0.21008   0.00000  Uiso   1.00
C158   C     0.11721   0.74890   0.16605   0.00000  Uiso   1.00
C159   C     0.38279   0.74890   0.16728   0.00000  Uiso   1.00
C160   C     0.02451   0.74622   0.16648   0.00000  Uiso   1.00
C161   C     0.47549   0.74622   0.16685   0.00000  Uiso   1.00
C162   C     0.11351   0.75996   0.07284   0.00000  Uiso   1.00
C163   C     0.27929   0.60416   0.19667   0.00000  Uiso   1.00
C164   C     0.37771   0.72915   0.07573   0.00000  Uiso   1.00
C165   C     0.38649   0.75997   0.26049   0.00000  Uiso   1.00
C166   C     0.12229   0.72915   0.25761   0.00000  Uiso   1.00
C167   C     0.22606   0.89629   0.13144   0.00000  Uiso   1.00
C168   C     0.22070   0.60416   0.13666   0.00000  Uiso   1.00
C169   C     0.27393   0.89629   0.20189   0.00000  Uiso   1.00
C170   C     0.28027   0.55405   0.19615   0.00000  Uiso   1.00
C171   C     0.22671   0.94644   0.13038   0.00000  Uiso   1.00
C172   C     0.21973   0.55405   0.13718   0.00000  Uiso   1.00
Cu173  Cu    0.25000   0.79821   0.16667   0.00000  Uiso   1.00
Cu174  Cu    0.25000   0.70178   0.16667   0.00000  Uiso   1.00
H175   H     0.02739   0.76537   0.08946   0.00000  Uiso   1.00
H176   H     0.13373   0.72786   0.06612   0.00000  Uiso   1.00
H177   H     0.08876   0.76349   0.04177   0.00000  Uiso   1.00
H178   H     0.35705   0.76072   0.06607   0.00000  Uiso   1.00
H179   H     0.39950   0.72210   0.04460   0.00000  Uiso   1.00
H180   H     0.35601   0.69767   0.07992   0.00000  Uiso   1.00
H181   H     0.36508   0.79156   0.26058   0.00000  Uiso   1.00
H182   H     0.36627   0.72787   0.26721   0.00000  Uiso   1.00
H183   H     0.41124   0.76348   0.29156   0.00000  Uiso   1.00
H184   H     0.14295   0.76072   0.26726   0.00000  Uiso   1.00
H185   H     0.10050   0.72210   0.28874   0.00000  Uiso   1.00
H186   H     0.46566   0.72532   0.09039   0.00000  Uiso   1.00
H187   H     0.14399   0.69767   0.25341   0.00000  Uiso   1.00
H188   H     0.47261   0.76537   0.24387   0.00000  Uiso   1.00
H189   H     0.03434   0.72532   0.24294   0.00000  Uiso   1.00
H190   H     0.30530   0.53674   0.21912   0.00000  Uiso   1.00
H191   H     0.20868   0.96383   0.10044   0.00000  Uiso   1.00
H192   H     0.19470   0.53674   0.11422   0.00000  Uiso   1.00
H193   H     0.29132   0.96383   0.23289   0.00000  Uiso   1.00
H194   H     0.13493   0.79155   0.07275   0.00000  Uiso   1.00
N195   N     0.25000   0.62934   0.16667   0.00000  Uiso   1.00
N196   N     0.25000   0.87065   0.16667   0.00000  Uiso   1.00
O197   O     0.18573   0.79071   0.16667   0.00000  Uiso   1.00
O198   O     0.31427   0.70928   0.16666   0.00000  Uiso   1.00
O199   O     0.31427   0.79071   0.16666   0.00000  Uiso   1.00
O200   O     0.18573   0.70928   0.16667   0.00000  Uiso   1.00
O201   O     0.25000   0.79071   0.09613   0.00000  Uiso   1.00
O202   O     0.25000   0.70929   0.23720   0.00000  Uiso   1.00
O203   O     0.25000   0.79071   0.23720   0.00000  Uiso   1.00
O204   O     0.25000   0.70929   0.09613   0.00000  Uiso   1.00
Br205  Br    0.82048   0.63430   0.24197   0.00000  Uiso   1.00
Br206  Br    0.68914   0.86771   0.08131   0.00000  Uiso   1.00
Br207  Br    0.67952   0.63430   0.09136   0.00000  Uiso   1.00
Br208  Br    0.81086   0.86771   0.25202   0.00000  Uiso   1.00
C209   C     0.66530   0.74985   0.16592   0.00000  Uiso   1.00
C210   C     0.77328   0.94644   0.20295   0.00000  Uiso   1.00
C211   C     0.74992   0.75000   0.07365   0.00000  Uiso   1.00
C212   C     0.75008   0.75000   0.25968   0.00000  Uiso   1.00
C213   C     0.75000   0.52745   0.16667   0.00000  Uiso   1.00
C214   C     0.75000   0.97305   0.16667   0.00000  Uiso   1.00
C215   C     0.74997   0.74999   0.02188   0.00000  Uiso   1.00
C216   C     0.75003   0.74999   0.31145   0.00000  Uiso   1.00
C217   C     0.54612   0.75661   0.12296   0.00000  Uiso   1.00
C218   C     0.94997   0.73580   0.12380   0.00000  Uiso   1.00
C219   C     0.95388   0.75661   0.21037   0.00000  Uiso   1.00
C220   C     0.83470   0.74985   0.16741   0.00000  Uiso   1.00
C221   C     0.55003   0.73580   0.20954   0.00000  Uiso   1.00
C222   C     0.59210   0.75573   0.12179   0.00000  Uiso   1.00
C223   C     0.90389   0.73829   0.12325   0.00000  Uiso   1.00
C224   C     0.90790   0.75573   0.21155   0.00000  Uiso   1.00
C225   C     0.59611   0.73829   0.21008   0.00000  Uiso   1.00
C226   C     0.61721   0.74890   0.16605   0.00000  Uiso   1.00
C227   C     0.88279   0.74890   0.16728   0.00000  Uiso   1.00
C228   C     0.52451   0.74622   0.16648   0.00000  Uiso   1.00
C229   C     0.97549   0.74622   0.16685   0.00000  Uiso   1.00
C230   C     0.61351   0.75996   0.07284   0.00000  Uiso   1.00
C231   C     0.77929   0.60416   0.19667   0.00000  Uiso   1.00
C232   C     0.87771   0.72915   0.07573   0.00000  Uiso   1.00
C233   C     0.88649   0.75997   0.26049   0.00000  Uiso   1.00
C234   C     0.62229   0.72915   0.25761   0.00000  Uiso   1.00
C235   C     0.72606   0.89629   0.13144   0.00000  Uiso   1.00
C236   C     0.72070   0.60416   0.13666   0.00000  Uiso   1.00
C237   C     0.77393   0.89629   0.20189   0.00000  Uiso   1.00
C238   C     0.78027   0.55405   0.19615   0.00000  Uiso   1.00
C239   C     0.72671   0.94644   0.13038   0.00000  Uiso   1.00
C240   C     0.71973   0.55405   0.13718   0.00000  Uiso   1.00
Cu241  Cu    0.75000   0.79821   0.16667   0.00000  Uiso   1.00
Cu242  Cu    0.75000   0.70178   0.16667   0.00000  Uiso   1.00
H243   H     0.52739   0.76537   0.08946   0.00000  Uiso   1.00
H244   H     0.63373   0.72786   0.06612   0.00000  Uiso   1.00
H245   H     0.58876   0.76349   0.04177   0.00000  Uiso   1.00
H246   H     0.85705   0.76072   0.06607   0.00000  Uiso   1.00
H247   H     0.89950   0.72210   0.04460   0.00000  Uiso   1.00
H248   H     0.85601   0.69767   0.07992   0.00000  Uiso   1.00
H249   H     0.86508   0.79156   0.26058   0.00000  Uiso   1.00
H250   H     0.86627   0.72787   0.26721   0.00000  Uiso   1.00
H251   H     0.91124   0.76348   0.29156   0.00000  Uiso   1.00
H252   H     0.64295   0.76072   0.26726   0.00000  Uiso   1.00
H253   H     0.60050   0.72210   0.28874   0.00000  Uiso   1.00
H254   H     0.96566   0.72532   0.09039   0.00000  Uiso   1.00
H255   H     0.64399   0.69767   0.25341   0.00000  Uiso   1.00
H256   H     0.97261   0.76537   0.24387   0.00000  Uiso   1.00
H257   H     0.53434   0.72532   0.24294   0.00000  Uiso   1.00
H258   H     0.80530   0.53674   0.21912   0.00000  Uiso   1.00
H259   H     0.70868   0.96383   0.10044   0.00000  Uiso   1.00
H260   H     0.69470   0.53674   0.11422   0.00000  Uiso   1.00
H261   H     0.79132   0.96383   0.23289   0.00000  Uiso   1.00
H262   H     0.63493   0.79155   0.07275   0.00000  Uiso   1.00
N263   N     0.75000   0.62934   0.16667   0.00000  Uiso   1.00
N264   N     0.75000   0.87065   0.16667   0.00000  Uiso   1.00
O265   O     0.68573   0.79071   0.16667   0.00000  Uiso   1.00
O266   O     0.81427   0.70928   0.16666   0.00000  Uiso   1.00
O267   O     0.81427   0.79071   0.16666   0.00000  Uiso   1.00
O268   O     0.68573   0.70928   0.16667   0.00000  Uiso   1.00
O269   O     0.75000   0.79071   0.09613   0.00000  Uiso   1.00
O270   O     0.75000   0.70929   0.23720   0.00000  Uiso   1.00
O271   O     0.75000   0.79071   0.23720   0.00000  Uiso   1.00
O272   O     0.75000   0.70929   0.09613   0.00000  Uiso   1.00
Br273  Br    0.32048   0.13430   0.57530   0.00000  Uiso   1.00
Br274  Br    0.18914   0.36771   0.41464   0.00000  Uiso   1.00
Br275  Br    0.17952   0.13430   0.42470   0.00000  Uiso   1.00
Br276  Br    0.31086   0.36771   0.58536   0.00000  Uiso   1.00
C277   C     0.16530   0.24985   0.49925   0.00000  Uiso   1.00
C278   C     0.27328   0.44644   0.53629   0.00000  Uiso   1.00
C279   C     0.24992   0.25000   0.40698   0.00000  Uiso   1.00
C280   C     0.25008   0.25000   0.59302   0.00000  Uiso   1.00
C281   C     0.25000   0.02745   0.50000   0.00000  Uiso   1.00
C282   C     0.25000   0.47305   0.50000   0.00000  Uiso   1.00
C283   C     0.24997   0.24999   0.35522   0.00000  Uiso   1.00
C284   C     0.25003   0.24999   0.64478   0.00000  Uiso   1.00
C285   C     0.04612   0.25661   0.45629   0.00000  Uiso   1.00
C286   C     0.44997   0.23580   0.45713   0.00000  Uiso   1.00
C287   C     0.45388   0.25661   0.54371   0.00000  Uiso   1.00
C288   C     0.33470   0.24985   0.50075   0.00000  Uiso   1.00
C289   C     0.05003   0.23580   0.54287   0.00000  Uiso   1.00
C290   C     0.09210   0.25573   0.45512   0.00000  Uiso   1.00
C291   C     0.40389   0.23829   0.45658   0.00000  Uiso   1.00
C292   C     0.40790   0.25573   0.54488   0.00000  Uiso   1.00
C293   C     0.09611   0.23829   0.54342   0.00000  Uiso   1.00
C294   C     0.11721   0.24890   0.49938   0.00000  Uiso   1.00
C295   C     0.38279   0.24890   0.50062   0.00000  Uiso   1.00
C296   C     0.02451   0.24622   0.49982   0.00000  Uiso   1.00
C297   C     0.47549   0.24622   0.50018   0.00000  Uiso   1.00
C298   C     0.11351   0.25996   0.40617   0.00000  Uiso   1.00
C299   C     0.27929   0.10416   0.53000   0.00000  Uiso   1.00
C300   C     0.37771   0.22915   0.40906   0.00000  Uiso   1.00
C301   C     0.38649   0.25997   0.59383   0.00000  Uiso   1.00
C302   C     0.12229   0.22915   0.59094   0.00000  Uiso   1.00
C303   C     0.22606   0.39629   0.46477   0.00000  Uiso   1.00
C304   C     0.22070   0.10416   0.47000   0.00000  Uiso   1.00
C305   C     0.27393   0.39629   0.53523   0.00000  Uiso   1.00
C306   C     0.28027   0.05405   0.52949   0.00000  Uiso   1.00
C307   C     0.22671   0.44644   0.46371   0.00000  Uiso   1.00
C308   C     0.21973   0.05405   0.47051   0.00000  Uiso   1.00
Cu309  Cu    0.25000   0.29821   0.50000   0.00000  Uiso   1.00
Cu310  Cu    0.25000   0.20178   0.50000   0.00000  Uiso   1.00
H311   H     0.02739   0.26537   0.42279   0.00000  Uiso   1.00
H312   H     0.13373   0.22786   0.39945   0.00000  Uiso   1.00
H313   H     0.08876   0.26349   0.37511   0.00000  Uiso   1.00
H314   H     0.35705   0.26072   0.39941   0.00000  Uiso   1.00
H315   H     0.39950   0.22210   0.37793   0.00000  Uiso   1.00
H316   H     0.35601   0.19767   0.41325   0.00000  Uiso   1.00
H317   H     0.36508   0.29156   0.59392   0.00000  Uiso   1.00
H318   H     0.36627   0.22787   0.60054   0.00000  Uiso   1.00
H319   H     0.41124   0.26348   0.62489   0.00000  Uiso   1.00
H320   H     0.14295   0.26072   0.60059   0.00000  Uiso   1.00
H321   H     0.10050   0.22210   0.62207   0.00000  Uiso   1.00
H322   H     0.46566   0.22532   0.42373   0.00000  Uiso   1.00
H323   H     0.14399   0.19767   0.58675   0.00000  Uiso   1.00
H324   H     0.47261   0.26537   0.57721   0.00000  Uiso   1.00
H325   H     0.03434   0.22532   0.57627   0.00000  Uiso   1.00
H326   H     0.30530   0.03674   0.55245   0.00000  Uiso   1.00
H327   H     0.20868   0.46383   0.43377   0.00000  Uiso   1.00
H328   H     0.19470   0.03674   0.44755   0.00000  Uiso   1.00
H329   H     0.29132   0.46383   0.56623   0.00000  Uiso   1.00
H330   H     0.13493   0.29155   0.40608   0.00000  Uiso   1.00
N331   N     0.25000   0.12934   0.50000   0.00000  Uiso   1.00
N332   N     0.25000   0.37065   0.50000   0.00000  Uiso   1.00
O333   O     0.18573   0.29071   0.50000   0.00000  Uiso   1.00
O334   O     0.31427   0.20928   0.50000   0.00000  Uiso   1.00
O335   O     0.31427   0.29071   0.50000   0.00000  Uiso   1.00
O336   O     0.18573   0.20928   0.50000   0.00000  Uiso   1.00
O337   O     0.25000   0.29071   0.42946   0.00000  Uiso   1.00
O338   O     0.25000   0.20929   0.57054   0.00000  Uiso   1.00
O339   O     0.25000   0.29071   0.57054   0.00000  Uiso   1.00
O340   O     0.25000   0.20929   0.42946   0.00000  Uiso   1.00
Br341  Br    0.82048   0.13430   0.57530   0.00000  Uiso   1.00
Br342  Br    0.68914   0.36771   0.41464   0.00000  Uiso   1.00
Br343  Br    0.67952   0.13430   0.42470   0.00000  Uiso   1.00
Br344  Br    0.81086   0.36771   0.58536   0.00000  Uiso   1.00
C345   C     0.66530   0.24985   0.49925   0.00000  Uiso   1.00
C346   C     0.77328   0.44644   0.53629   0.00000  Uiso   1.00
C347   C     0.74992   0.25000   0.40698   0.00000  Uiso   1.00
C348   C     0.75008   0.25000   0.59302   0.00000  Uiso   1.00
C349   C     0.75000   0.02745   0.50000   0.00000  Uiso   1.00
C350   C     0.75000   0.47305   0.50000   0.00000  Uiso   1.00
C351   C     0.74997   0.24999   0.35522   0.00000  Uiso   1.00
C352   C     0.75003   0.24999   0.64478   0.00000  Uiso   1.00
C353   C     0.54612   0.25661   0.45629   0.00000  Uiso   1.00
C354   C     0.94997   0.23580   0.45713   0.00000  Uiso   1.00
C355   C     0.95388   0.25661   0.54371   0.00000  Uiso   1.00
C356   C     0.83470   0.24985   0.50075   0.00000  Uiso   1.00
C357   C     0.55003   0.23580   0.54287   0.00000  Uiso   1.00
C358   C     0.59210   0.25573   0.45512   0.00000  Uiso   1.00
C359   C     0.90389   0.23829   0.45658   0.00000  Uiso   1.00
C360   C     0.90790   0.25573   0.54488   0.00000  Uiso   1.00
C361   C     0.59611   0.23829   0.54342   0.00000  Uiso   1.00
C362   C     0.61721   0.24890   0.49938   0.00000  Uiso   1.00
C363   C     0.88279   0.24890   0.50062   0.00000  Uiso   1.00
C364   C     0.52451   0.24622   0.49982   0.00000  Uiso   1.00
C365   C     0.97549   0.24622   0.50018   0.00000  Uiso   1.00
C366   C     0.61351   0.25996   0.40617   0.00000  Uiso   1.00
C367   C     0.77929   0.10416   0.53000   0.00000  Uiso   1.00
C368   C     0.87771   0.22915   0.40906   0.00000  Uiso   1.00
C369   C     0.88649   0.25997   0.59383   0.00000  Uiso   1.00
C370   C     0.62229   0.22915   0.59094   0.00000  Uiso   1.00
C371   C     0.72606   0.39629   0.46477   0.00000  Uiso   1.00
C372   C     0.72070   0.10416   0.47000   0.00000  Uiso   1.00
C373   C     0.77393   0.39629   0.53523   0.00000  Uiso   1.00
C374   C     0.78027   0.05405   0.52949   0.00000  Uiso   1.00
C375   C     0.72671   0.44644   0.46371   0.00000  Uiso   1.00
C376   C     0.71973   0.05405   0.47051   0.00000  Uiso   1.00
Cu377  Cu    0.75000   0.29821   0.50000   0.00000  Uiso   1.00
Cu378  Cu    0.75000   0.20178   0.50000   0.00000  Uiso   1.00
H379   H     0.52739   0.26537   0.42279   0.00000  Uiso   1.00
H380   H     0.63373   0.22786   0.39945   0.00000  Uiso   1.00
H381   H     0.58876   0.26349   0.37511   0.00000  Uiso   1.00
H382   H     0.85705   0.26072   0.39941   0.00000  Uiso   1.00
H383   H     0.89950   0.22210   0.37793   0.00000  Uiso   1.00
H384   H     0.85601   0.19767   0.41325   0.00000  Uiso   1.00
H385   H     0.86508   0.29156   0.59392   0.00000  Uiso   1.00
H386   H     0.86627   0.22787   0.60054   0.00000  Uiso   1.00
H387   H     0.91124   0.26348   0.62489   0.00000  Uiso   1.00
H388   H     0.64295   0.26072   0.60059   0.00000  Uiso   1.00
H389   H     0.60050   0.22210   0.62207   0.00000  Uiso   1.00
H390   H     0.96566   0.22532   0.42373   0.00000  Uiso   1.00
H391   H     0.64399   0.19767   0.58675   0.00000  Uiso   1.00
H392   H     0.97261   0.26537   0.57721   0.00000  Uiso   1.00
H393   H     0.53434   0.22532   0.57627   0.00000  Uiso   1.00
H394   H     0.80530   0.03674   0.55245   0.00000  Uiso   1.00
H395   H     0.70868   0.46383   0.43377   0.00000  Uiso   1.00
H396   H     0.69470   0.03674   0.44755   0.00000  Uiso   1.00
H397   H     0.79132   0.46383   0.56623   0.00000  Uiso   1.00
H398   H     0.63493   0.29155   0.40608   0.00000  Uiso   1.00
N399   N     0.75000   0.12934   0.50000   0.00000  Uiso   1.00
N400   N     0.75000   0.37065   0.50000   0.00000  Uiso   1.00
O401   O     0.68573   0.29071   0.50000   0.00000  Uiso   1.00
O402   O     0.81427   0.20928   0.50000   0.00000  Uiso   1.00
O403   O     0.81427   0.29071   0.50000   0.00000  Uiso   1.00
O404   O     0.68573   0.20928   0.50000   0.00000  Uiso   1.00
O405   O     0.75000   0.29071   0.42946   0.00000  Uiso   1.00
O406   O     0.75000   0.20929   0.57054   0.00000  Uiso   1.00
O407   O     0.75000   0.29071   0.57054   0.00000  Uiso   1.00
O408   O     0.75000   0.20929   0.42946   0.00000  Uiso   1.00
Br409  Br    0.32048   0.63430   0.57530   0.00000  Uiso   1.00
Br410  Br    0.18914   0.86771   0.41464   0.00000  Uiso   1.00
Br411  Br    0.17952   0.63430   0.42470   0.00000  Uiso   1.00
Br412  Br    0.31086   0.86771   0.58536   0.00000  Uiso   1.00
C413   C     0.16530   0.74985   0.49925   0.00000  Uiso   1.00
C414   C     0.27328   0.94644   0.53629   0.00000  Uiso   1.00
C415   C     0.24992   0.75000   0.40698   0.00000  Uiso   1.00
C416   C     0.25008   0.75000   0.59302   0.00000  Uiso   1.00
C417   C     0.25000   0.52745   0.50000   0.00000  Uiso   1.00
C418   C     0.25000   0.97305   0.50000   0.00000  Uiso   1.00
C419   C     0.24997   0.74999   0.35522   0.00000  Uiso   1.00
C420   C     0.25003   0.74999   0.64478   0.00000  Uiso   1.00
C421   C     0.04612   0.75661   0.45629   0.00000  Uiso   1.00
C422   C     0.44997   0.73580   0.45713   0.00000  Uiso   1.00
C423   C     0.45388   0.75661   0.54371   0.00000  Uiso   1.00
C424   C     0.33470   0.74985   0.50075   0.00000  Uiso   1.00
C425   C     0.05003   0.73580   0.54287   0.00000  Uiso   1.00
C426   C     0.09210   0.75573   0.45512   0.00000  Uiso   1.00
C427   C     0.40389   0.73829   0.45658   0.00000  Uiso   1.00
C428   C     0.40790   0.75573   0.54488   0.00000  Uiso   1.00
C429   C     0.09611   0.73829   0.54342   0.00000  Uiso   1.00
C430   C     0.11721   0.74890   0.49938   0.00000  Uiso   1.00
C431   C     0.38279   0.74890   0.50062   0.00000  Uiso   1.00
C432   C     0.02451   0.74622   0.49982   0.00000  Uiso   1.00
C433   C     0.47549   0.74622   0.50018   0.00000  Uiso   1.00
C434   C     0.11351   0.75996   0.40617   0.00000  Uiso   1.00
C435   C     0.27929   0.60416   0.53000   0.00000  Uiso   1.00
C436   C     0.37771   0.72915   0.40906   0.00000  Uiso   1.00
C437   C     0.38649   0.75997   0.59383   0.00000  Uiso   1.00
C438   C     0.12229   0.72915   0.59094   0.00000  Uiso   1.00
C439   C     0.22606   0.89629   0.46477   0.00000  Uiso   1.00
C440   C     0.22070   0.60416   0.47000   0.00000  Uiso   1.00
C441   C     0.27393   0.89629   0.53523   0.00000  Uiso   1.00
C442   C     0.28027   0.55405   0.52949   0.00000  Uiso   1.00
C443   C     0.22671   0.94644   0.46371   0.00000  Uiso   1.00
C444   C     0.21973   0.55405   0.47051   0.00000  Uiso   1.00
Cu445  Cu    0.25000   0.79821   0.50000   0.00000  Uiso   1.00
Cu446  Cu    0.25000   0.70178   0.50000   0.00000  Uiso   1.00
H447   H     0.02739   0.76537   0.42279   0.00000  Uiso   1.00
H448   H     0.13373   0.72786   0.39945   0.00000  Uiso   1.00
H449   H     0.08876   0.76349   0.37511   0.00000  Uiso   1.00
H450   H     0.35705   0.76072   0.39941   0.00000  Uiso   1.00
H451   H     0.39950   0.72210   0.37793   0.00000  Uiso   1.00
H452   H     0.35601   0.69767   0.41325   0.00000  Uiso   1.00
H453   H     0.36508   0.79156   0.59392   0.00000  Uiso   1.00
H454   H     0.36627   0.72787   0.60054   0.00000  Uiso   1.00
H455   H     0.41124   0.76348   0.62489   0.00000  Uiso   1.00
H456   H     0.14295   0.76072   0.60059   0.00000  Uiso   1.00
H457   H     0.10050   0.72210   0.62207   0.00000  Uiso   1.00
H458   H     0.46566   0.72532   0.42373   0.00000  Uiso   1.00
H459   H     0.14399   0.69767   0.58675   0.00000  Uiso   1.00
H460   H     0.47261   0.76537   0.57721   0.00000  Uiso   1.00
H461   H     0.03434   0.72532   0.57627   0.00000  Uiso   1.00
H462   H     0.30530   0.53674   0.55245   0.00000  Uiso   1.00
H463   H     0.20868   0.96383   0.43377   0.00000  Uiso   1.00
H464   H     0.19470   0.53674   0.44755   0.00000  Uiso   1.00
H465   H     0.29132   0.96383   0.56623   0.00000  Uiso   1.00
H466   H     0.13493   0.79155   0.40608   0.00000  Uiso   1.00
N467   N     0.25000   0.62934   0.50000   0.00000  Uiso   1.00
N468   N     0.25000   0.87065   0.50000   0.00000  Uiso   1.00
O469   O     0.18573   0.79071   0.50000   0.00000  Uiso   1.00
O470   O     0.31427   0.70928   0.50000   0.00000  Uiso   1.00
O471   O     0.31427   0.79071   0.50000   0.00000  Uiso   1.00
O472   O     0.18573   0.70928   0.50000   0.00000  Uiso   1.00
O473   O     0.25000   0.79071   0.42946   0.00000  Uiso   1.00
O474   O     0.25000   0.70929   0.57054   0.00000  Uiso   1.00
O475   O     0.25000   0.79071   0.57054   0.00000  Uiso   1.00
O476   O     0.25000   0.70929   0.42946   0.00000  Uiso   1.00
Br477  Br    0.82048   0.63430   0.57530   0.00000  Uiso   1.00
Br478  Br    0.68914   0.86771   0.41464   0.00000  Uiso   1.00
Br479  Br    0.67952   0.63430   0.42470   0.00000  Uiso   1.00
Br480  Br    0.81086   0.86771   0.58536   0.00000  Uiso   1.00
C481   C     0.66530   0.74985   0.49925   0.00000  Uiso   1.00
C482   C     0.77328   0.94644   0.53629   0.00000  Uiso   1.00
C483   C     0.74992   0.75000   0.40698   0.00000  Uiso   1.00
C484   C     0.75008   0.75000   0.59302   0.00000  Uiso   1.00
C485   C     0.75000   0.52745   0.50000   0.00000  Uiso   1.00
C486   C     0.75000   0.97305   0.50000   0.00000  Uiso   1.00
C487   C     0.74997   0.74999   0.35522   0.00000  Uiso   1.00
C488   C     0.75003   0.74999   0.64478   0.00000  Uiso   1.00
C489   C     0.54612   0.75661   0.45629   0.00000  Uiso   1.00
C490   C     0.94997   0.73580   0.45713   0.00000  Uiso   1.00
C491   C     0.95388   0.75661   0.54371   0.00000  Uiso   1.00
C492   C     0.83470   0.74985   0.50075   0.00000  Uiso   1.00
C493   C     0.55003   0.73580   0.54287   0.00000  Uiso   1.00
C494   C     0.59210   0.75573   0.45512   0.00000  Uiso   1.00
C495   C     0.90389   0.73829   0.45658   0.00000  Uiso   1.00
C496   C     0.90790   0.75573   0.54488   0.00000  Uiso   1.00
C497   C     0.59611   0.73829   0.54342   0.00000  Uiso   1.00
C498   C     0.61721   0.74890   0.49938   0.00000  Uiso   1.00
C499   C     0.88279   0.74890   0.50062   0.00000  Uiso   1.00
C500   C     0.52451   0.74622   0.49982   0.00000  Uiso   1.00
C501   C     0.97549   0.74622   0.50018   0.00000  Uiso   1.00
C502   C     0.61351   0.75996   0.40617   0.00000  Uiso   1.00
C503   C     0.77929   0.60416   0.53000   0.00000  Uiso   1.00
C504   C     0.87771   0.72915   0.40906   0.00000  Uiso   1.00
C505   C     0.88649   0.75997   0.59383   0.00000  Uiso   1.00
C506   C     0.62229   0.72915   0.59094   0.00000  Uiso   1.00
C507   C     0.72606   0.89629   0.46477   0.00000  Uiso   1.00
C508   C     0.72070   0.60416   0.47000   0.00000  Uiso   1.00
C509   C     0.77393   0.89629   0.53523   0.00000  Uiso   1.00
C510   C     0.78027   0.55405   0.52949   0.00000  Uiso   1.00
C511   C     0.72671   0.94644   0.46371   0.00000  Uiso   1.00
C512   C     0.71973   0.55405   0.47051   0.00000  Uiso   1.00
Cu513  Cu    0.75000   0.79821   0.50000   0.00000  Uiso   1.00
Cu514  Cu    0.75000   0.70178   0.50000   0.00000  Uiso   1.00
H515   H     0.52739   0.76537   0.42279   0.00000  Uiso   1.00
H516   H     0.63373   0.72786   0.39945   0.00000  Uiso   1.00
H517   H     0.58876   0.76349   0.37511   0.00000  Uiso   1.00
H518   H     0.85705   0.76072   0.39941   0.00000  Uiso   1.00
H519   H     0.89950   0.72210   0.37793   0.00000  Uiso   1.00
H520   H     0.85601   0.69767   0.41325   0.00000  Uiso   1.00
H521   H     0.86508   0.79156   0.59392   0.00000  Uiso   1.00
H522   H     0.86627   0.72787   0.60054   0.00000  Uiso   1.00
H523   H     0.91124   0.76348   0.62489   0.00000  Uiso   1.00
H524   H     0.64295   0.76072   0.60059   0.00000  Uiso   1.00
H525   H     0.60050   0.72210   0.62207   0.00000  Uiso   1.00
H526   H     0.96566   0.72532   0.42373   0.00000  Uiso   1.00
H527   H     0.64399   0.69767   0.58675   0.00000  Uiso   1.00
H528   H     0.97261   0.76537   0.57721   0.00000  Uiso   1.00
H529   H     0.53434   0.72532   0.57627   0.00000  Uiso   1.00
H530   H     0.80530   0.53674   0.55245   0.00000  Uiso   1.00
H531   H     0.70868   0.96383   0.43377   0.00000  Uiso   1.00
H532   H     0.69470   0.53674   0.44755   0.00000  Uiso   1.00
H533   H     0.79132   0.96383   0.56623   0.00000  Uiso   1.00
H534   H     0.63493   0.79155   0.40608   0.00000  Uiso   1.00
N535   N     0.75000   0.62934   0.50000   0.00000  Uiso   1.00
N536   N     0.75000   0.87065   0.50000   0.00000  Uiso   1.00
O537   O     0.68573   0.79071   0.50000   0.00000  Uiso   1.00
O538   O     0.81427   0.70928   0.50000   0.00000  Uiso   1.00
O539   O     0.81427   0.79071   0.50000   0.00000  Uiso   1.00
O540   O     0.68573   0.70928   0.50000   0.00000  Uiso   1.00
O541   O     0.75000   0.79071   0.42946   0.00000  Uiso   1.00
O542   O     0.75000   0.70929   0.57054   0.00000  Uiso   1.00
O543   O     0.75000   0.79071   0.57054   0.00000  Uiso   1.00
O544   O     0.75000   0.70929   0.42946   0.00000  Uiso   1.00
Br545  Br    0.32048   0.13430   0.90864   0.00000  Uiso   1.00
Br546  Br    0.18914   0.36771   0.74798   0.00000  Uiso   1.00
Br547  Br    0.17952   0.13430   0.75803   0.00000  Uiso   1.00
Br548  Br    0.31086   0.36771   0.91869   0.00000  Uiso   1.00
C549   C     0.16530   0.24985   0.83259   0.00000  Uiso   1.00
C550   C     0.27328   0.44644   0.86962   0.00000  Uiso   1.00
C551   C     0.24992   0.25000   0.74032   0.00000  Uiso   1.00
C552   C     0.25008   0.25000   0.92635   0.00000  Uiso   1.00
C553   C     0.25000   0.02745   0.83333   0.00000  Uiso   1.00
C554   C     0.25000   0.47305   0.83333   0.00000  Uiso   1.00
C555   C     0.24997   0.24999   0.68855   0.00000  Uiso   1.00
C556   C     0.25003   0.24999   0.97812   0.00000  Uiso   1.00
C557   C     0.04612   0.25661   0.78963   0.00000  Uiso   1.00
C558   C     0.44997   0.23580   0.79046   0.00000  Uiso   1.00
C559   C     0.45388   0.25661   0.87704   0.00000  Uiso   1.00
C560   C     0.33470   0.24985   0.83408   0.00000  Uiso   1.00
C561   C     0.05003   0.23580   0.87620   0.00000  Uiso   1.00
C562   C     0.09210   0.25573   0.78845   0.00000  Uiso   1.00
C563   C     0.40389   0.23829   0.78992   0.00000  Uiso   1.00
C564   C     0.40790   0.25573   0.87821   0.00000  Uiso   1.00
C565   C     0.09611   0.23829   0.87675   0.00000  Uiso   1.00
C566   C     0.11721   0.24890   0.83272   0.00000  Uiso   1.00
C567   C     0.38279   0.24890   0.83395   0.00000  Uiso   1.00
C568   C     0.02451   0.24622   0.83315   0.00000  Uiso   1.00
C569   C     0.47549   0.24622   0.83352   0.00000  Uiso   1.00
C570   C     0.11351   0.25996   0.73951   0.00000  Uiso   1.00
C571   C     0.27929   0.10416   0.86334   0.00000  Uiso   1.00
C572   C     0.37771   0.22915   0.74239   0.00000  Uiso   1.00
C573   C     0.38649   0.25997   0.92716   0.00000  Uiso   1.00
C574   C     0.12229   0.22915   0.92427   0.00000  Uiso   1.00
C575   C     0.22606   0.39629   0.79811   0.00000  Uiso   1.00
C576   C     0.22070   0.10416   0.80333   0.00000  Uiso   1.00
C577   C     0.27393   0.39629   0.86856   0.00000  Uiso   1.00
C578   C     0.28027   0.05405   0.86282   0.00000  Uiso   1.00
C579   C     0.22671   0.44644   0.79705   0.00000  Uiso   1.00
C580   C     0.21973   0.05405   0.80385   0.00000  Uiso   1.00
Cu581  Cu    0.25000   0.29821   0.83333   0.00000  Uiso   1.00
Cu582  Cu    0.25000   0.20178   0.83333   0.00000  Uiso   1.00
H583   H     0.02739   0.26537   0.75613   0.00000  Uiso   1.00
H584   H     0.13373   0.22786   0.73279   0.00000  Uiso   1.00
H585   H     0.08876   0.26349   0.70844   0.00000  Uiso   1.00
H586   H     0.35705   0.26072   0.73274   0.00000  Uiso   1.00
H587   H     0.39950   0.22210   0.71126   0.00000  Uiso   1.00
H588   H     0.35601   0.19767   0.74659   0.00000  Uiso   1.00
H589   H     0.36508   0.29156   0.92725   0.00000  Uiso   1.00
H590   H     0.36627   0.22787   0.93388   0.00000  Uiso   1.00
H591   H     0.41124   0.26348   0.95823   0.00000  Uiso   1.00
H592   H     0.14295   0.26072   0.93393   0.00000  Uiso   1.00
H593   H     0.10050   0.22210   0.95540   0.00000  Uiso   1.00
H594   H     0.46566   0.22532   0.75706   0.00000  Uiso   1.00
H595   H     0.14399   0.19767   0.92008   0.00000  Uiso   1.00
H596   H     0.47261   0.26537   0.91054   0.00000  Uiso   1.00
H597   H     0.03434   0.22532   0.90961   0.00000  Uiso   1.00
H598   H     0.30530   0.03674   0.88578   0.00000  Uiso   1.00
H599   H     0.20868   0.46383   0.76711   0.00000  Uiso   1.00
H600   H     0.19470   0.03674   0.78088   0.00000  Uiso   1.00
H601   H     0.29132   0.46383   0.89956   0.00000  Uiso   1.00
H602   H     0.13493   0.29155   0.73942   0.00000  Uiso   1.00
N603   N     0.25000   0.12934   0.83333   0.00000  Uiso   1.00
N604   N     0.25000   0.37065   0.83333   0.00000  Uiso   1.00
O605   O     0.18573   0.29071   0.83334   0.00000  Uiso   1.00
O606   O     0.31427   0.20928   0.83333   0.00000  Uiso   1.00
O607   O     0.31427   0.29071   0.83333   0.00000  Uiso   1.00
O608   O     0.18573   0.20928   0.83334   0.00000  Uiso   1.00
O609   O     0.25000   0.29071   0.76280   0.00000  Uiso   1.00
O610   O     0.25000   0.20929   0.90387   0.00000  Uiso   1.00
O611   O     0.25000   0.29071   0.90387   0.00000  Uiso   1.00
O612   O     0.25000   0.20929   0.76280   0.00000  Uiso   1.00
Br613  Br    0.82048   0.13430   0.90864   0.00000  Uiso   1.00
Br614  Br    0.68914   0.36771   0.74798   0.00000  Uiso   1.00
Br615  Br    0.67952   0.13430   0.75803   0.00000  Uiso   1.00
Br616  Br    0.81086   0.36771   0.91869   0.00000  Uiso   1.00
C617   C     0.66530   0.24985   0.83259   0.00000  Uiso   1.00
C618   C     0.77328   0.44644   0.86962   0.00000  Uiso   1.00
C619   C     0.74992   0.25000   0.74032   0.00000  Uiso   1.00
C620   C     0.75008   0.25000   0.92635   0.00000  Uiso   1.00
C621   C     0.75000   0.02745   0.83333   0.00000  Uiso   1.00
C622   C     0.75000   0.47305   0.83333   0.00000  Uiso   1.00
C623   C     0.74997   0.24999   0.68855   0.00000  Uiso   1.00
C624   C     0.75003   0.24999   0.97812   0.00000  Uiso   1.00
C625   C     0.54612   0.25661   0.78963   0.00000  Uiso   1.00
C626   C     0.94997   0.23580   0.79046   0.00000  Uiso   1.00
C627   C     0.95388   0.25661   0.87704   0.00000  Uiso   1.00
C628   C     0.83470   0.24985   0.83408   0.00000  Uiso   1.00
C629   C     0.55003   0.23580   0.87620   0.00000  Uiso   1.00
C630   C     0.59210   0.25573   0.78845   0.00000  Uiso   1.00
C631   C     0.90389   0.23829   0.78992   0.00000  Uiso   1.00
C632   C     0.90790   0.25573   0.87821   0.00000  Uiso   1.00
C633   C     0.59611   0.23829   0.87675   0.00000  Uiso   1.00
C634   C     0.61721   0.24890   0.83272   0.00000  Uiso   1.00
C635   C     0.88279   0.24890   0.83395   0.00000  Uiso   1.00
C636   C     0.52451   0.24622   0.83315   0.00000  Uiso   1.00
C637   C     0.97549   0.24622   0.83352   0.00000  Uiso   1.00
C638   C     0.61351   0.25996   0.73951   0.00000  Uiso   1.00
C639   C     0.77929   0.10416   0.86334   0.00000  Uiso   1.00
C640   C     0.87771   0.22915   0.74239   0.00000  Uiso   1.00
C641   C     0.88649   0.25997   0.92716   0.00000  Uiso   1.00
C642   C     0.62229   0.22915   0.92427   0.00000  Uiso   1.00
C643   C     0.72606   0.39629   0.79811   0.00000  Uiso   1.00
C644   C     0.72070   0.10416   0.80333   0.00000  Uiso   1.00
C645   C     0.77393   0.39629   0.86856   0.00000  Uiso   1.00
C646   C     0.78027   0.05405   0.86282   0.00000  Uiso   1.00
C647   C     0.72671   0.44644   0.79705   0.00000  Uiso   1.00
C648   C     0.71973   0.05405   0.80385   0.00000  Uiso   1.00
Cu649  Cu    0.75000   0.29821   0.83333   0.00000  Uiso   1.00
Cu650  Cu    0.75000   0.20178   0.83333   0.00000  Uiso   1.00
H651   H     0.52739   0.26537   0.75613   0.00000  Uiso   1.00
H652   H     0.63373   0.22786   0.73279   0.00000  Uiso   1.00
H653   H     0.58876   0.26349   0.70844   0.00000  Uiso   1.00
H654   H     0.85705   0.26072   0.73274   0.00000  Uiso   1.00
H655   H     0.89950   0.22210   0.71126   0.00000  Uiso   1.00
H656   H     0.85601   0.19767   0.74659   0.00000  Uiso   1.00
H657   H     0.86508   0.29156   0.92725   0.00000  Uiso   1.00
H658   H     0.86627   0.22787   0.93388   0.00000  Uiso   1.00
H659   H     0.91124   0.26348   0.95823   0.00000  Uiso   1.00
H660   H     0.64295   0.26072   0.93393   0.00000  Uiso   1.00
H661   H     0.60050   0.22210   0.95540   0.00000  Uiso   1.00
H662   H     0.96566   0.22532   0.75706   0.00000  Uiso   1.00
H663   H     0.64399   0.19767   0.92008   0.00000  Uiso   1.00
H664   H     0.97261   0.26537   0.91054   0.00000  Uiso   1.00
H665   H     0.53434   0.22532   0.90961   0.00000  Uiso   1.00
H666   H     0.80530   0.03674   0.88578   0.00000  Uiso   1.00
H667   H     0.70868   0.46383   0.76711   0.00000  Uiso   1.00
H668   H     0.69470   0.03674   0.78088   0.00000  Uiso   1.00
H669   H     0.79132   0.46383   0.89956   0.00000  Uiso   1.00
H670   H     0.63493   0.29155   0.73942   0.00000  Uiso   1.00
N671   N     0.75000   0.12934   0.83333   0.00000  Uiso   1.00
N672   N     0.75000   0.37065   0.83333   0.00000  Uiso   1.00
O673   O     0.68573   0.29071   0.83334   0.00000  Uiso   1.00
O674   O     0.81427   0.20928   0.83333   0.00000  Uiso   1.00
O675   O     0.81427   0.29071   0.83333   0.00000  Uiso   1.00
O676   O     0.68573   0.20928   0.83334   0.00000  Uiso   1.00
O677   O     0.75000   0.29071   0.76280   0.00000  Uiso   1.00
O678   O     0.75000   0.20929   0.90387   0.00000  Uiso   1.00
O679   O     0.75000   0.29071   0.90387   0.00000  Uiso   1.00
O680   O     0.75000   0.20929   0.76280   0.00000  Uiso   1.00
Br681  Br    0.32048   0.63430   0.90864   0.00000  Uiso   1.00
Br682  Br    0.18914   0.86771   0.74798   0.00000  Uiso   1.00
Br683  Br    0.17952   0.63430   0.75803   0.00000  Uiso   1.00
Br684  Br    0.31086   0.86771   0.91869   0.00000  Uiso   1.00
C685   C     0.16530   0.74985   0.83259   0.00000  Uiso   1.00
C686   C     0.27328   0.94644   0.86962   0.00000  Uiso   1.00
C687   C     0.24992   0.75000   0.74032   0.00000  Uiso   1.00
C688   C     0.25008   0.75000   0.92635   0.00000  Uiso   1.00
C689   C     0.25000   0.52745   0.83333   0.00000  Uiso   1.00
C690   C     0.25000   0.97305   0.83333   0.00000  Uiso   1.00
C691   C     0.24997   0.74999   0.68855   0.00000  Uiso   1.00
C692   C     0.25003   0.74999   0.97812   0.00000  Uiso   1.00
C693   C     0.04612   0.75661   0.78963   0.00000  Uiso   1.00
C694   C     0.44997   0.73580   0.79046   0.00000  Uiso   1.00
C695   C     0.45388   0.75661   0.87704   0.00000  Uiso   1.00
C696   C     0.33470   0.74985   0.83408   0.00000  Uiso   1.00
C697   C     0.05003   0.73580   0.87620   0.00000  Uiso   1.00
C698   C     0.09210   0.75573   0.78845   0.00000  Uiso   1.00
C699   C     0.40389   0.73829   0.78992   0.00000  Uiso   1.00
C700   C     0.40790   0.75573   0.87821   0.00000  Uiso   1.00
C701   C     0.09611   0.73829   0.87675   0.00000  Uiso   1.00
C702   C     0.11721   0.74890   0.83272   0.00000  Uiso   1.00
C703   C     0.38279   0.74890   0.83395   0.00000  Uiso   1.00
C704   C     0.02451   0.74622   0.83315   0.00000  Uiso   1.00
C705   C     0.47549   0.74622   0.83352   0.00000  Uiso   1.00
C706   C     0.11351   0.75996   0.73951   0.00000  Uiso   1.00
C707   C     0.27929   0.60416   0.86334   0.00000  Uiso   1.00
C708   C     0.37771   0.72915   0.74239   0.00000  Uiso   1.00
C709   C     0.38649   0.75997   0.92716   0.00000  Uiso   1.00
C710   C     0.12229   0.72915   0.92427   0.00000  Uiso   1.00
C711   C     0.22606   0.89629   0.79811   0.00000  Uiso   1.00
C712   C     0.22070   0.60416   0.80333   0.00000  Uiso   1.00
C713   C     0.27393   0.89629   0.86856   0.00000  Uiso   1.00
C714   C     0.28027   0.55405   0.86282   0.00000  Uiso   1.00
C715   C     0.22671   0.94644   0.79705   0.00000  Uiso   1.00
C716   C     0.21973   0.55405   0.80385   0.00000  Uiso   1.00
Cu717  Cu    0.25000   0.79821   0.83333   0.00000  Uiso   1.00
Cu718  Cu    0.25000   0.70178   0.83333   0.00000  Uiso   1.00
H719   H     0.02739   0.76537   0.75613   0.00000  Uiso   1.00
H720   H     0.13373   0.72786   0.73279   0.00000  Uiso   1.00
H721   H     0.08876   0.76349   0.70844   0.00000  Uiso   1.00
H722   H     0.35705   0.76072   0.73274   0.00000  Uiso   1.00
H723   H     0.39950   0.72210   0.71126   0.00000  Uiso   1.00
H724   H     0.35601   0.69767   0.74659   0.00000  Uiso   1.00
H725   H     0.36508   0.79156   0.92725   0.00000  Uiso   1.00
H726   H     0.36627   0.72787   0.93388   0.00000  Uiso   1.00
H727   H     0.41124   0.76348   0.95823   0.00000  Uiso   1.00
H728   H     0.14295   0.76072   0.93393   0.00000  Uiso   1.00
H729   H     0.10050   0.72210   0.95540   0.00000  Uiso   1.00
H730   H     0.46566   0.72532   0.75706   0.00000  Uiso   1.00
H731   H     0.14399   0.69767   0.92008   0.00000  Uiso   1.00
H732   H     0.47261   0.76537   0.91054   0.00000  Uiso   1.00
H733   H     0.03434   0.72532   0.90961   0.00000  Uiso   1.00
H734   H     0.30530   0.53674   0.88578   0.00000  Uiso   1.00
H735   H     0.20868   0.96383   0.76711   0.00000  Uiso   1.00
H736   H     0.19470   0.53674   0.78088   0.00000  Uiso   1.00
H737   H     0.29132   0.96383   0.89956   0.00000  Uiso   1.00
H738   H     0.13493   0.79155   0.73942   0.00000  Uiso   1.00
N739   N     0.25000   0.62934   0.83333   0.00000  Uiso   1.00
N740   N     0.25000   0.87065   0.83333   0.00000  Uiso   1.00
O741   O     0.18573   0.79071   0.83334   0.00000  Uiso   1.00
O742   O     0.31427   0.70928   0.83333   0.00000  Uiso   1.00
O743   O     0.31427   0.79071   0.83333   0.00000  Uiso   1.00
O744   O     0.18573   0.70928   0.83334   0.00000  Uiso   1.00
O745   O     0.25000   0.79071   0.76280   0.00000  Uiso   1.00
O746   O     0.25000   0.70929   0.90387   0.00000  Uiso   1.00
O747   O     0.25000   0.79071   0.90387   0.00000  Uiso   1.00
O748   O     0.25000   0.70929   0.76280   0.00000  Uiso   1.00
Br749  Br    0.82048   0.63430   0.90864   0.00000  Uiso   1.00
Br750  Br    0.68914   0.86771   0.74798   0.00000  Uiso   1.00
Br751  Br    0.67952   0.63430   0.75803   0.00000  Uiso   1.00
Br752  Br    0.81086   0.86771   0.91869   0.00000  Uiso   1.00
C753   C     0.66530   0.74985   0.83259   0.00000  Uiso   1.00
C754   C     0.77328   0.94644   0.86962   0.00000  Uiso   1.00
C755   C     0.74992   0.75000   0.74032   0.00000  Uiso   1.00
C756   C     0.75008   0.75000   0.92635   0.00000  Uiso   1.00
C757   C     0.75000   0.52745   0.83333   0.00000  Uiso   1.00
C758   C     0.75000   0.97305   0.83333   0.00000  Uiso   1.00
C759   C     0.74997   0.74999   0.68855   0.00000  Uiso   1.00
C760   C     0.75003   0.74999   0.97812   0.00000  Uiso   1.00
C761   C     0.54612   0.75661   0.78963   0.00000  Uiso   1.00
C762   C     0.94997   0.73580   0.79046   0.00000  Uiso   1.00
C763   C     0.95388   0.75661   0.87704   0.00000  Uiso   1.00
C764   C     0.83470   0.74985   0.83408   0.00000  Uiso   1.00
C765   C     0.55003   0.73580   0.87620   0.00000  Uiso   1.00
C766   C     0.59210   0.75573   0.78845   0.00000  Uiso   1.00
C767   C     0.90389   0.73829   0.78992   0.00000  Uiso   1.00
C768   C     0.90790   0.75573   0.87821   0.00000  Uiso   1.00
C769   C     0.59611   0.73829   0.87675   0.00000  Uiso   1.00
C770   C     0.61721   0.74890   0.83272   0.00000  Uiso   1.00
C771   C     0.88279   0.74890   0.83395   0.00000  Uiso   1.00
C772   C     0.52451   0.74622   0.83315   0.00000  Uiso   1.00
C773   C     0.97549   0.74622   0.83352   0.00000  Uiso   1.00
C774   C     0.61351   0.75996   0.73951   0.00000  Uiso   1.00
C775   C     0.77929   0.60416   0.86334   0.00000  Uiso   1.00
C776   C     0.87771   0.72915   0.74239   0.00000  Uiso   1.00
C777   C     0.88649   0.75997   0.92716   0.00000  Uiso   1.00
C778   C     0.62229   0.72915   0.92427   0.00000  Uiso   1.00
C779   C     0.72606   0.89629   0.79811   0.00000  Uiso   1.00
C780   C     0.72070   0.60416   0.80333   0.00000  Uiso   1.00
C781   C     0.77393   0.89629   0.86856   0.00000  Uiso   1.00
C782   C     0.78027   0.55405   0.86282   0.00000  Uiso   1.00
C783   C     0.72671   0.94644   0.79705   0.00000  Uiso   1.00
C784   C     0.71973   0.55405   0.80385   0.00000  Uiso   1.00
Cu785  Cu    0.75000   0.79821   0.83333   0.00000  Uiso   1.00
Cu786  Cu    0.75000   0.70178   0.83333   0.00000  Uiso   1.00
H787   H     0.52739   0.76537   0.75613   0.00000  Uiso   1.00
H788   H     0.63373   0.72786   0.73279   0.00000  Uiso   1.00
H789   H     0.58876   0.76349   0.70844   0.00000  Uiso   1.00
H790   H     0.85705   0.76072   0.73274   0.00000  Uiso   1.00
H791   H     0.89950   0.72210   0.71126   0.00000  Uiso   1.00
H792   H     0.85601   0.69767   0.74659   0.00000  Uiso   1.00
H793   H     0.86508   0.79156   0.92725   0.00000  Uiso   1.00
H794   H     0.86627   0.72787   0.93388   0.00000  Uiso   1.00
H795   H     0.91124   0.76348   0.95823   0.00000  Uiso   1.00
H796   H     0.64295   0.76072   0.93393   0.00000  Uiso   1.00
H797   H     0.60050   0.72210   0.95540   0.00000  Uiso   1.00
H798   H     0.96566   0.72532   0.75706   0.00000  Uiso   1.00
H799   H     0.64399   0.69767   0.92008   0.00000  Uiso   1.00
H800   H     0.97261   0.76537   0.91054   0.00000  Uiso   1.00
H801   H     0.53434   0.72532   0.90961   0.00000  Uiso   1.00
H802   H     0.80530   0.53674   0.88578   0.00000  Uiso   1.00
H803   H     0.70868   0.96383   0.76711   0.00000  Uiso   1.00
H804   H     0.69470   0.53674   0.78088   0.00000  Uiso   1.00
H805   H     0.79132   0.96383   0.89956   0.00000  Uiso   1.00
H806   H     0.63493   0.79155   0.73942   0.00000  Uiso   1.00
N807   N     0.75000   0.62934   0.83333   0.00000  Uiso   1.00
N808   N     0.75000   0.87065   0.83333   0.00000  Uiso   1.00
O809   O     0.68573   0.79071   0.83334   0.00000  Uiso   1.00
O810   O     0.81427   0.70928   0.83333   0.00000  Uiso   1.00
O811   O     0.81427   0.79071   0.83333   0.00000  Uiso   1.00
O812   O     0.68573   0.70928   0.83334   0.00000  Uiso   1.00
O813   O     0.75000   0.79071   0.76280   0.00000  Uiso   1.00
O814   O     0.75000   0.70929   0.90387   0.00000  Uiso   1.00
O815   O     0.75000   0.79071   0.90387   0.00000  Uiso   1.00
O816   O     0.75000   0.70929   0.76280   0.00000  Uiso   1.00
loop_
_geom_bond_atom_site_label_1
_geom_bond_atom_site_label_2
_geom_bond_distance
_geom_bond_site_symmetry_2
_ccdc_geom_bond_type
Br1    C27     1.915   .     S
Br2    C31     1.905   .     S
Br3    C32     1.915   .     S
Br4    C33     1.905   .     S
C5     O61     1.303   .     A
C5     O64     1.296   .     A
C5     C22     1.457   .     S
C6     C10     1.404   .     A
C6     C33     1.408   .     A
C6     H57     1.078   .     S
C7     O65     1.296   .     A
C7     C11     1.406   .     S
C7     O68     1.296   .     A
C8     O66     1.296   .     A
C8     C12     1.406   .     S
C8     O67     1.296   .     A
C9     C36     1.408   .     A
C9     C34     1.408   .     A
C9     C146    1.527   1_545 S
C10    C35     1.404   .     A
C10    C145    1.527   .     S
C11    C556    1.189   1_554 S
C12    C283    1.189   .     S
C13    C18     1.395   .     A
C13    H39     1.081   .     S
C13    C24     1.404   .     A
C14    C25     1.407   .     A
C14    H50     1.081   .     S
C14    C19     1.397   .     A
C15    H52     1.081   .     S
C15    C20     1.395   .     A
C15    C25     1.404   .     A
C16    O63     1.303   .     A
C16    C23     1.457   .     S
C16    O62     1.296   .     A
C17    H53     1.081   .     S
C17    C24     1.407   .     A
C17    C21     1.397   .     A
C18    C26     1.506   .     S
C18    C22     1.410   .     A
C19    C23     1.410   .     A
C19    C28     1.510   .     S
C20    C23     1.410   .     A
C20    C29     1.506   .     S
C21    C30     1.510   .     S
C21    C22     1.410   .     A
C24    C93     1.486   1_455 S
C25    C92     1.486   .     S
C26    H58     1.099   .     S
C26    H40     1.109   .     S
C26    H41     1.111   .     S
C27    C34     1.407   .     A
C27    N59     1.376   .     A
C28    H43     1.111   .     S
C28    H42     1.111   .     S
C28    H44     1.110   .     S
C29    H46     1.109   .     S
C29    H47     1.111   .     S
C29    H45     1.099   .     S
C30    H51     1.110   .     S
C30    H49     1.111   .     S
C30    H48     1.111   .     S
C31    N60     1.380   .     A
C31    C35     1.408   .     A
C32    C36     1.407   .     A
C32    N59     1.376   .     A
C33    N60     1.380   .     A
C34    H54     1.078   .     S
C35    H55     1.078   .     S
C36    H56     1.078   .     S
Cu37   O61     1.959   .     S
Cu37   Cu38    2.707   .     S
Cu37   O63     1.959   .     S
Cu37   N60     2.034   .     S
Cu37   O67     1.927   .     S
Cu37   O65     1.927   .     S
Cu38   O68     1.927   .     S
Cu38   O64     1.959   .     S
Cu38   N59     2.034   .     S
Cu38   O66     1.927   .     S
Cu38   O62     1.959   .     S
Br69   C95     1.915   .     S
Br70   C99     1.905   .     S
Br71   C100    1.915   .     S
Br72   C101    1.905   .     S
C73    O129    1.303   .     A
C73    O132    1.296   .     A
C73    C90     1.457   .     S
C74    C78     1.404   .     A
C74    C101    1.408   .     A
C74    H125    1.078   .     S
C75    O133    1.296   .     A
C75    C79     1.406   .     S
C75    O136    1.296   .     A
C76    O134    1.296   .     A
C76    C80     1.406   .     S
C76    O135    1.296   .     A
C77    C104    1.408   .     A
C77    C102    1.408   .     A
C77    C214    1.527   1_545 S
C78    C103    1.404   .     A
C78    C213    1.527   .     S
C79    C624    1.189   1_554 S
C80    C351    1.189   .     S
C81    C86     1.395   .     A
C81    H107    1.081   .     S
C81    C92     1.404   .     A
C82    C93     1.407   .     A
C82    H118    1.081   .     S
C82    C87     1.397   .     A
C83    H120    1.081   .     S
C83    C88     1.395   .     A
C83    C93     1.404   .     A
C84    O131    1.303   .     A
C84    C91     1.457   .     S
C84    O130    1.296   .     A
C85    H121    1.081   .     S
C85    C92     1.407   .     A
C85    C89     1.397   .     A
C86    C94     1.506   .     S
C86    C90     1.410   .     A
C87    C91     1.410   .     A
C87    C96     1.510   .     S
C88    C91     1.410   .     A
C88    C97     1.506   .     S
C89    C98     1.510   .     S
C89    C90     1.410   .     A
C93    C24     1.486   1_655 S
C94    H126    1.099   .     S
C94    H108    1.109   .     S
C94    H109    1.111   .     S
C95    C102    1.407   .     A
C95    N127    1.376   .     A
C96    H111    1.111   .     S
C96    H110    1.111   .     S
C96    H112    1.110   .     S
C97    H114    1.109   .     S
C97    H115    1.111   .     S
C97    H113    1.099   .     S
C98    H119    1.110   .     S
C98    H117    1.111   .     S
C98    H116    1.111   .     S
C99    N128    1.380   .     A
C99    C103    1.408   .     A
C100   C104    1.407   .     A
C100   N127    1.376   .     A
C101   N128    1.380   .     A
C102   H122    1.078   .     S
C103   H123    1.078   .     S
C104   H124    1.078   .     S
Cu105  O129    1.959   .     S
Cu105  Cu106   2.707   .     S
Cu105  O131    1.959   .     S
Cu105  N128    2.034   .     S
Cu105  O135    1.927   .     S
Cu105  O133    1.927   .     S
Cu106  O136    1.927   .     S
Cu106  O132    1.959   .     S
Cu106  N127    2.034   .     S
Cu106  O134    1.927   .     S
Cu106  O130    1.959   .     S
Br137  C163    1.915   .     S
Br138  C167    1.905   .     S
Br139  C168    1.915   .     S
Br140  C169    1.905   .     S
C141   O197    1.303   .     A
C141   O200    1.296   .     A
C141   C158    1.457   .     S
C142   C146    1.404   .     A
C142   C169    1.408   .     A
C142   H193    1.078   .     S
C143   O201    1.296   .     A
C143   C147    1.406   .     S
C143   O204    1.296   .     A
C144   O202    1.296   .     A
C144   C148    1.406   .     S
C144   O203    1.296   .     A
C145   C172    1.408   .     A
C145   C170    1.408   .     A
C146   C171    1.404   .     A
C146   C9      1.527   1_565 S
C147   C692    1.189   1_554 S
C148   C419    1.189   .     S
C149   C154    1.395   .     A
C149   H175    1.081   .     S
C149   C160    1.404   .     A
C150   C161    1.407   .     A
C150   H186    1.081   .     S
C150   C155    1.397   .     A
C151   H188    1.081   .     S
C151   C156    1.395   .     A
C151   C161    1.404   .     A
C152   O199    1.303   .     A
C152   C159    1.457   .     S
C152   O198    1.296   .     A
C153   H189    1.081   .     S
C153   C160    1.407   .     A
C153   C157    1.397   .     A
C154   C162    1.506   .     S
C154   C158    1.410   .     A
C155   C159    1.410   .     A
C155   C164    1.510   .     S
C156   C159    1.410   .     A
C156   C165    1.506   .     S
C157   C166    1.510   .     S
C157   C158    1.410   .     A
C160   C229    1.486   1_455 S
C161   C228    1.486   .     S
C162   H194    1.099   .     S
C162   H176    1.109   .     S
C162   H177    1.111   .     S
C163   C170    1.407   .     A
C163   N195    1.376   .     A
C164   H179    1.111   .     S
C164   H178    1.111   .     S
C164   H180    1.110   .     S
C165   H182    1.109   .     S
C165   H183    1.111   .     S
C165   H181    1.099   .     S
C166   H187    1.110   .     S
C166   H185    1.111   .     S
C166   H184    1.111   .     S
C167   N196    1.380   .     A
C167   C171    1.408   .     A
C168   C172    1.407   .     A
C168   N195    1.376   .     A
C169   N196    1.380   .     A
C170   H190    1.078   .     S
C171   H191    1.078   .     S
C172   H192    1.078   .     S
Cu173  O197    1.959   .     S
Cu173  Cu174   2.707   .     S
Cu173  O199    1.959   .     S
Cu173  N196    2.034   .     S
Cu173  O203    1.927   .     S
Cu173  O201    1.927   .     S
Cu174  O204    1.927   .     S
Cu174  O200    1.959   .     S
Cu174  N195    2.034   .     S
Cu174  O202    1.927   .     S
Cu174  O198    1.959   .     S
Br205  C231    1.915   .     S
Br206  C235    1.905   .     S
Br207  C236    1.915   .     S
Br208  C237    1.905   .     S
C209   O265    1.303   .     A
C209   O268    1.296   .     A
C209   C226    1.457   .     S
C210   C214    1.404   .     A
C210   C237    1.408   .     A
C210   H261    1.078   .     S
C211   O269    1.296   .     A
C211   C215    1.406   .     S
C211   O272    1.296   .     A
C212   O270    1.296   .     A
C212   C216    1.406   .     S
C212   O271    1.296   .     A
C213   C240    1.408   .     A
C213   C238    1.408   .     A
C214   C239    1.404   .     A
C214   C77     1.527   1_565 S
C215   C760    1.189   1_554 S
C216   C487    1.189   .     S
C217   C222    1.395   .     A
C217   H243    1.081   .     S
C217   C228    1.404   .     A
C218   C229    1.407   .     A
C218   H254    1.081   .     S
C218   C223    1.397   .     A
C219   H256    1.081   .     S
C219   C224    1.395   .     A
C219   C229    1.404   .     A
C220   O267    1.303   .     A
C220   C227    1.457   .     S
C220   O266    1.296   .     A
C221   H257    1.081   .     S
C221   C228    1.407   .     A
C221   C225    1.397   .     A
C222   C230    1.506   .     S
C222   C226    1.410   .     A
C223   C227    1.410   .     A
C223   C232    1.510   .     S
C224   C227    1.410   .     A
C224   C233    1.506   .     S
C225   C234    1.510   .     S
C225   C226    1.410   .     A
C229   C160    1.486   1_655 S
C230   H262    1.099   .     S
C230   H244    1.109   .     S
C230   H245    1.111   .     S
C231   C238    1.407   .     A
C231   N263    1.376   .     A
C232   H247    1.111   .     S
C232   H246    1.111   .     S
C232   H248    1.110   .     S
C233   H250    1.109   .     S
C233   H251    1.111   .     S
C233   H249    1.099   .     S
C234   H255    1.110   .     S
C234   H253    1.111   .     S
C234   H252    1.111   .     S
C235   N264    1.380   .     A
C235   C239    1.408   .     A
C236   C240    1.407   .     A
C236   N263    1.376   .     A
C237   N264    1.380   .     A
C238   H258    1.078   .     S
C239   H259    1.078   .     S
C240   H260    1.078   .     S
Cu241  O265    1.959   .     S
Cu241  Cu242   2.707   .     S
Cu241  O267    1.959   .     S
Cu241  N264    2.034   .     S
Cu241  O271    1.927   .     S
Cu241  O269    1.927   .     S
Cu242  O272    1.927   .     S
Cu242  O268    1.959   .     S
Cu242  N263    2.034   .     S
Cu242  O270    1.927   .     S
Cu242  O266    1.959   .     S
Br273  C299    1.915   .     S
Br274  C303    1.905   .     S
Br275  C304    1.915   .     S
Br276  C305    1.905   .     S
C277   O333    1.303   .     A
C277   O336    1.296   .     A
C277   C294    1.457   .     S
C278   C282    1.404   .     A
C278   C305    1.408   .     A
C278   H329    1.078   .     S
C279   O337    1.296   .     A
C279   C283    1.406   .     S
C279   O340    1.296   .     A
C280   O338    1.296   .     A
C280   C284    1.406   .     S
C280   O339    1.296   .     A
C281   C308    1.408   .     A
C281   C306    1.408   .     A
C281   C418    1.527   1_545 S
C282   C307    1.404   .     A
C282   C417    1.527   .     S
C284   C555    1.189   .     S
C285   C290    1.395   .     A
C285   H311    1.081   .     S
C285   C296    1.404   .     A
C286   C297    1.407   .     A
C286   H322    1.081   .     S
C286   C291    1.397   .     A
C287   H324    1.081   .     S
C287   C292    1.395   .     A
C287   C297    1.404   .     A
C288   O335    1.303   .     A
C288   C295    1.457   .     S
C288   O334    1.296   .     A
C289   H325    1.081   .     S
C289   C296    1.407   .     A
C289   C293    1.397   .     A
C290   C298    1.506   .     S
C290   C294    1.410   .     A
C291   C295    1.410   .     A
C291   C300    1.510   .     S
C292   C295    1.410   .     A
C292   C301    1.506   .     S
C293   C302    1.510   .     S
C293   C294    1.410   .     A
C296   C365    1.486   1_455 S
C297   C364    1.486   .     S
C298   H330    1.099   .     S
C298   H312    1.109   .     S
C298   H313    1.111   .     S
C299   C306    1.407   .     A
C299   N331    1.376   .     A
C300   H315    1.111   .     S
C300   H314    1.111   .     S
C300   H316    1.110   .     S
C301   H318    1.109   .     S
C301   H319    1.111   .     S
C301   H317    1.099   .     S
C302   H323    1.110   .     S
C302   H321    1.111   .     S
C302   H320    1.111   .     S
C303   N332    1.380   .     A
C303   C307    1.408   .     A
C304   C308    1.407   .     A
C304   N331    1.376   .     A
C305   N332    1.380   .     A
C306   H326    1.078   .     S
C307   H327    1.078   .     S
C308   H328    1.078   .     S
Cu309  O333    1.959   .     S
Cu309  Cu310   2.707   .     S
Cu309  O335    1.959   .     S
Cu309  N332    2.034   .     S
Cu309  O339    1.927   .     S
Cu309  O337    1.927   .     S
Cu310  O340    1.927   .     S
Cu310  O336    1.959   .     S
Cu310  N331    2.034   .     S
Cu310  O338    1.927   .     S
Cu310  O334    1.959   .     S
Br341  C367    1.915   .     S
Br342  C371    1.905   .     S
Br343  C372    1.915   .     S
Br344  C373    1.905   .     S
C345   O401    1.303   .     A
C345   O404    1.296   .     A
C345   C362    1.457   .     S
C346   C350    1.404   .     A
C346   C373    1.408   .     A
C346   H397    1.078   .     S
C347   O405    1.296   .     A
C347   C351    1.406   .     S
C347   O408    1.296   .     A
C348   O406    1.296   .     A
C348   C352    1.406   .     S
C348   O407    1.296   .     A
C349   C376    1.408   .     A
C349   C374    1.408   .     A
C349   C486    1.527   1_545 S
C350   C375    1.404   .     A
C350   C485    1.527   .     S
C352   C623    1.189   .     S
C353   C358    1.395   .     A
C353   H379    1.081   .     S
C353   C364    1.404   .     A
C354   C365    1.407   .     A
C354   H390    1.081   .     S
C354   C359    1.397   .     A
C355   H392    1.081   .     S
C355   C360    1.395   .     A
C355   C365    1.404   .     A
C356   O403    1.303   .     A
C356   C363    1.457   .     S
C356   O402    1.296   .     A
C357   H393    1.081   .     S
C357   C364    1.407   .     A
C357   C361    1.397   .     A
C358   C366    1.506   .     S
C358   C362    1.410   .     A
C359   C363    1.410   .     A
C359   C368    1.510   .     S
C360   C363    1.410   .     A
C360   C369    1.506   .     S
C361   C370    1.510   .     S
C361   C362    1.410   .     A
C365   C296    1.486   1_655 S
C366   H398    1.099   .     S
C366   H380    1.109   .     S
C366   H381    1.111   .     S
C367   C374    1.407   .     A
C367   N399    1.376   .     A
C368   H383    1.111   .     S
C368   H382    1.111   .     S
C368   H384    1.110   .     S
C369   H386    1.109   .     S
C369   H387    1.111   .     S
C369   H385    1.099   .     S
C370   H391    1.110   .     S
C370   H389    1.111   .     S
C370   H388    1.111   .     S
C371   N400    1.380   .     A
C371   C375    1.408   .     A
C372   C376    1.407   .     A
C372   N399    1.376   .     A
C373   N400    1.380   .     A
C374   H394    1.078   .     S
C375   H395    1.078   .     S
C376   H396    1.078   .     S
Cu377  O401    1.959   .     S
Cu377  Cu378   2.707   .     S
Cu377  O403    1.959   .     S
Cu377  N400    2.034   .     S
Cu377  O407    1.927   .     S
Cu377  O405    1.927   .     S
Cu378  O408    1.927   .     S
Cu378  O404    1.959   .     S
Cu378  N399    2.034   .     S
Cu378  O406    1.927   .     S
Cu378  O402    1.959   .     S
Br409  C435    1.915   .     S
Br410  C439    1.905   .     S
Br411  C440    1.915   .     S
Br412  C441    1.905   .     S
C413   O469    1.303   .     A
C413   O472    1.296   .     A
C413   C430    1.457   .     S
C414   C418    1.404   .     A
C414   C441    1.408   .     A
C414   H465    1.078   .     S
C415   O473    1.296   .     A
C415   C419    1.406   .     S
C415   O476    1.296   .     A
C416   O474    1.296   .     A
C416   C420    1.406   .     S
C416   O475    1.296   .     A
C417   C444    1.408   .     A
C417   C442    1.408   .     A
C418   C443    1.404   .     A
C418   C281    1.527   1_565 S
C420   C691    1.189   .     S
C421   C426    1.395   .     A
C421   H447    1.081   .     S
C421   C432    1.404   .     A
C422   C433    1.407   .     A
C422   H458    1.081   .     S
C422   C427    1.397   .     A
C423   H460    1.081   .     S
C423   C428    1.395   .     A
C423   C433    1.404   .     A
C424   O471    1.303   .     A
C424   C431    1.457   .     S
C424   O470    1.296   .     A
C425   H461    1.081   .     S
C425   C432    1.407   .     A
C425   C429    1.397   .     A
C426   C434    1.506   .     S
C426   C430    1.410   .     A
C427   C431    1.410   .     A
C427   C436    1.510   .     S
C428   C431    1.410   .     A
C428   C437    1.506   .     S
C429   C438    1.510   .     S
C429   C430    1.410   .     A
C432   C501    1.486   1_455 S
C433   C500    1.486   .     S
C434   H466    1.099   .     S
C434   H448    1.109   .     S
C434   H449    1.111   .     S
C435   C442    1.407   .     A
C435   N467    1.376   .     A
C436   H451    1.111   .     S
C436   H450    1.111   .     S
C436   H452    1.110   .     S
C437   H454    1.109   .     S
C437   H455    1.111   .     S
C437   H453    1.099   .     S
C438   H459    1.110   .     S
C438   H457    1.111   .     S
C438   H456    1.111   .     S
C439   N468    1.380   .     A
C439   C443    1.408   .     A
C440   C444    1.407   .     A
C440   N467    1.376   .     A
C441   N468    1.380   .     A
C442   H462    1.078   .     S
C443   H463    1.078   .     S
C444   H464    1.078   .     S
Cu445  O469    1.959   .     S
Cu445  Cu446   2.707   .     S
Cu445  O471    1.959   .     S
Cu445  N468    2.034   .     S
Cu445  O475    1.927   .     S
Cu445  O473    1.927   .     S
Cu446  O476    1.927   .     S
Cu446  O472    1.959   .     S
Cu446  N467    2.034   .     S
Cu446  O474    1.927   .     S
Cu446  O470    1.959   .     S
Br477  C503    1.915   .     S
Br478  C507    1.905   .     S
Br479  C508    1.915   .     S
Br480  C509    1.905   .     S
C481   O537    1.303   .     A
C481   O540    1.296   .     A
C481   C498    1.457   .     S
C482   C486    1.404   .     A
C482   C509    1.408   .     A
C482   H533    1.078   .     S
C483   O541    1.296   .     A
C483   C487    1.406   .     S
C483   O544    1.296   .     A
C484   O542    1.296   .     A
C484   C488    1.406   .     S
C484   O543    1.296   .     A
C485   C512    1.408   .     A
C485   C510    1.408   .     A
C486   C511    1.404   .     A
C486   C349    1.527   1_565 S
C488   C759    1.189   .     S
C489   C494    1.395   .     A
C489   H515    1.081   .     S
C489   C500    1.404   .     A
C490   C501    1.407   .     A
C490   H526    1.081   .     S
C490   C495    1.397   .     A
C491   H528    1.081   .     S
C491   C496    1.395   .     A
C491   C501    1.404   .     A
C492   O539    1.303   .     A
C492   C499    1.457   .     S
C492   O538    1.296   .     A
C493   H529    1.081   .     S
C493   C500    1.407   .     A
C493   C497    1.397   .     A
C494   C502    1.506   .     S
C494   C498    1.410   .     A
C495   C499    1.410   .     A
C495   C504    1.510   .     S
C496   C499    1.410   .     A
C496   C505    1.506   .     S
C497   C506    1.510   .     S
C497   C498    1.410   .     A
C501   C432    1.486   1_655 S
C502   H534    1.099   .     S
C502   H516    1.109   .     S
C502   H517    1.111   .     S
C503   C510    1.407   .     A
C503   N535    1.376   .     A
C504   H519    1.111   .     S
C504   H518    1.111   .     S
C504   H520    1.110   .     S
C505   H522    1.109   .     S
C505   H523    1.111   .     S
C505   H521    1.099   .     S
C506   H527    1.110   .     S
C506   H525    1.111   .     S
C506   H524    1.111   .     S
C507   N536    1.380   .     A
C507   C511    1.408   .     A
C508   C512    1.407   .     A
C508   N535    1.376   .     A
C509   N536    1.380   .     A
C510   H530    1.078   .     S
C511   H531    1.078   .     S
C512   H532    1.078   .     S
Cu513  O537    1.959   .     S
Cu513  Cu514   2.707   .     S
Cu513  O539    1.959   .     S
Cu513  N536    2.034   .     S
Cu513  O543    1.927   .     S
Cu513  O541    1.927   .     S
Cu514  O544    1.927   .     S
Cu514  O540    1.959   .     S
Cu514  N535    2.034   .     S
Cu514  O542    1.927   .     S
Cu514  O538    1.959   .     S
Br545  C571    1.915   .     S
Br546  C575    1.905   .     S
Br547  C576    1.915   .     S
Br548  C577    1.905   .     S
C549   O605    1.303   .     A
C549   O608    1.296   .     A
C549   C566    1.457   .     S
C550   C554    1.404   .     A
C550   C577    1.408   .     A
C550   H601    1.078   .     S
C551   O609    1.296   .     A
C551   C555    1.406   .     S
C551   O612    1.296   .     A
C552   O610    1.296   .     A
C552   C556    1.406   .     S
C552   O611    1.296   .     A
C553   C580    1.408   .     A
C553   C578    1.408   .     A
C553   C690    1.527   1_545 S
C554   C579    1.404   .     A
C554   C689    1.527   .     S
C556   C11     1.189   1_556 S
C557   C562    1.395   .     A
C557   H583    1.081   .     S
C557   C568    1.404   .     A
C558   C569    1.407   .     A
C558   H594    1.081   .     S
C558   C563    1.397   .     A
C559   H596    1.081   .     S
C559   C564    1.395   .     A
C559   C569    1.404   .     A
C560   O607    1.303   .     A
C560   C567    1.457   .     S
C560   O606    1.296   .     A
C561   H597    1.081   .     S
C561   C568    1.407   .     A
C561   C565    1.397   .     A
C562   C570    1.506   .     S
C562   C566    1.410   .     A
C563   C567    1.410   .     A
C563   C572    1.510   .     S
C564   C567    1.410   .     A
C564   C573    1.506   .     S
C565   C574    1.510   .     S
C565   C566    1.410   .     A
C568   C637    1.486   1_455 S
C569   C636    1.486   .     S
C570   H602    1.099   .     S
C570   H584    1.109   .     S
C570   H585    1.111   .     S
C571   C578    1.407   .     A
C571   N603    1.376   .     A
C572   H587    1.111   .     S
C572   H586    1.111   .     S
C572   H588    1.110   .     S
C573   H590    1.109   .     S
C573   H591    1.111   .     S
C573   H589    1.099   .     S
C574   H595    1.110   .     S
C574   H593    1.111   .     S
C574   H592    1.111   .     S
C575   N604    1.380   .     A
C575   C579    1.408   .     A
C576   C580    1.407   .     A
C576   N603    1.376   .     A
C577   N604    1.380   .     A
C578   H598    1.078   .     S
C579   H599    1.078   .     S
C580   H600    1.078   .     S
Cu581  O605    1.959   .     S
Cu581  Cu582   2.707   .     S
Cu581  O607    1.959   .     S
Cu581  N604    2.034   .     S
Cu581  O611    1.927   .     S
Cu581  O609    1.927   .     S
Cu582  O612    1.927   .     S
Cu582  O608    1.959   .     S
Cu582  N603    2.034   .     S
Cu582  O610    1.927   .     S
Cu582  O606    1.959   .     S
Br613  C639    1.915   .     S
Br614  C643    1.905   .     S
Br615  C644    1.915   .     S
Br616  C645    1.905   .     S
C617   O673    1.303   .     A
C617   O676    1.296   .     A
C617   C634    1.457   .     S
C618   C622    1.404   .     A
C618   C645    1.408   .     A
C618   H669    1.078   .     S
C619   O677    1.296   .     A
C619   C623    1.406   .     S
C619   O680    1.296   .     A
C620   O678    1.296   .     A
C620   C624    1.406   .     S
C620   O679    1.296   .     A
C621   C648    1.408   .     A
C621   C646    1.408   .     A
C621   C758    1.527   1_545 S
C622   C647    1.404   .     A
C622   C757    1.527   .     S
C624   C79     1.189   1_556 S
C625   C630    1.395   .     A
C625   H651    1.081   .     S
C625   C636    1.404   .     A
C626   C637    1.407   .     A
C626   H662    1.081   .     S
C626   C631    1.397   .     A
C627   H664    1.081   .     S
C627   C632    1.395   .     A
C627   C637    1.404   .     A
C628   O675    1.303   .     A
C628   C635    1.457   .     S
C628   O674    1.296   .     A
C629   H665    1.081   .     S
C629   C636    1.407   .     A
C629   C633    1.397   .     A
C630   C638    1.506   .     S
C630   C634    1.410   .     A
C631   C635    1.410   .     A
C631   C640    1.510   .     S
C632   C635    1.410   .     A
C632   C641    1.506   .     S
C633   C642    1.510   .     S
C633   C634    1.410   .     A
C637   C568    1.486   1_655 S
C638   H670    1.099   .     S
C638   H652    1.109   .     S
C638   H653    1.111   .     S
C639   C646    1.407   .     A
C639   N671    1.376   .     A
C640   H655    1.111   .     S
C640   H654    1.111   .     S
C640   H656    1.110   .     S
C641   H658    1.109   .     S
C641   H659    1.111   .     S
C641   H657    1.099   .     S
C642   H663    1.110   .     S
C642   H661    1.111   .     S
C642   H660    1.111   .     S
C643   N672    1.380   .     A
C643   C647    1.408   .     A
C644   C648    1.407   .     A
C644   N671    1.376   .     A
C645   N672    1.380   .     A
C646   H666    1.078   .     S
C647   H667    1.078   .     S
C648   H668    1.078   .     S
Cu649  O673    1.959   .     S
Cu649  Cu650   2.707   .     S
Cu649  O675    1.959   .     S
Cu649  N672    2.034   .     S
Cu649  O679    1.927   .     S
Cu649  O677    1.927   .     S
Cu650  O680    1.927   .     S
Cu650  O676    1.959   .     S
Cu650  N671    2.034   .     S
Cu650  O678    1.927   .     S
Cu650  O674    1.959   .     S
Br681  C707    1.915   .     S
Br682  C711    1.905   .     S
Br683  C712    1.915   .     S
Br684  C713    1.905   .     S
C685   O741    1.303   .     A
C685   O744    1.296   .     A
C685   C702    1.457   .     S
C686   C690    1.404   .     A
C686   C713    1.408   .     A
C686   H737    1.078   .     S
C687   O745    1.296   .     A
C687   C691    1.406   .     S
C687   O748    1.296   .     A
C688   O746    1.296   .     A
C688   C692    1.406   .     S
C688   O747    1.296   .     A
C689   C716    1.408   .     A
C689   C714    1.408   .     A
C690   C715    1.404   .     A
C690   C553    1.527   1_565 S
C692   C147    1.189   1_556 S
C693   C698    1.395   .     A
C693   H719    1.081   .     S
C693   C704    1.404   .     A
C694   C705    1.407   .     A
C694   H730    1.081   .     S
C694   C699    1.397   .     A
C695   H732    1.081   .     S
C695   C700    1.395   .     A
C695   C705    1.404   .     A
C696   O743    1.303   .     A
C696   C703    1.457   .     S
C696   O742    1.296   .     A
C697   H733    1.081   .     S
C697   C704    1.407   .     A
C697   C701    1.397   .     A
C698   C706    1.506   .     S
C698   C702    1.410   .     A
C699   C703    1.410   .     A
C699   C708    1.510   .     S
C700   C703    1.410   .     A
C700   C709    1.506   .     S
C701   C710    1.510   .     S
C701   C702    1.410   .     A
C704   C773    1.486   1_455 S
C705   C772    1.486   .     S
C706   H738    1.099   .     S
C706   H720    1.109   .     S
C706   H721    1.111   .     S
C707   C714    1.407   .     A
C707   N739    1.376   .     A
C708   H723    1.111   .     S
C708   H722    1.111   .     S
C708   H724    1.110   .     S
C709   H726    1.109   .     S
C709   H727    1.111   .     S
C709   H725    1.099   .     S
C710   H731    1.110   .     S
C710   H729    1.111   .     S
C710   H728    1.111   .     S
C711   N740    1.380   .     A
C711   C715    1.408   .     A
C712   C716    1.407   .     A
C712   N739    1.376   .     A
C713   N740    1.380   .     A
C714   H734    1.078   .     S
C715   H735    1.078   .     S
C716   H736    1.078   .     S
Cu717  O741    1.959   .     S
Cu717  Cu718   2.707   .     S
Cu717  O743    1.959   .     S
Cu717  N740    2.034   .     S
Cu717  O747    1.927   .     S
Cu717  O745    1.927   .     S
Cu718  O748    1.927   .     S
Cu718  O744    1.959   .     S
Cu718  N739    2.034   .     S
Cu718  O746    1.927   .     S
Cu718  O742    1.959   .     S
Br749  C775    1.915   .     S
Br750  C779    1.905   .     S
Br751  C780    1.915   .     S
Br752  C781    1.905   .     S
C753   O809    1.303   .     A
C753   O812    1.296   .     A
C753   C770    1.457   .     S
C754   C758    1.404   .     A
C754   C781    1.408   .     A
C754   H805    1.078   .     S
C755   O813    1.296   .     A
C755   C759    1.406   .     S
C755   O816    1.296   .     A
C756   O814    1.296   .     A
C756   C760    1.406   .     S
C756   O815    1.296   .     A
C757   C784    1.408   .     A
C757   C782    1.408   .     A
C758   C783    1.404   .     A
C758   C621    1.527   1_565 S
C760   C215    1.189   1_556 S
C761   C766    1.395   .     A
C761   H787    1.081   .     S
C761   C772    1.404   .     A
C762   C773    1.407   .     A
C762   H798    1.081   .     S
C762   C767    1.397   .     A
C763   H800    1.081   .     S
C763   C768    1.395   .     A
C763   C773    1.404   .     A
C764   O811    1.303   .     A
C764   C771    1.457   .     S
C764   O810    1.296   .     A
C765   H801    1.081   .     S
C765   C772    1.407   .     A
C765   C769    1.397   .     A
C766   C774    1.506   .     S
C766   C770    1.410   .     A
C767   C771    1.410   .     A
C767   C776    1.510   .     S
C768   C771    1.410   .     A
C768   C777    1.506   .     S
C769   C778    1.510   .     S
C769   C770    1.410   .     A
C773   C704    1.486   1_655 S
C774   H806    1.099   .     S
C774   H788    1.109   .     S
C774   H789    1.111   .     S
C775   C782    1.407   .     A
C775   N807    1.376   .     A
C776   H791    1.111   .     S
C776   H790    1.111   .     S
C776   H792    1.110   .     S
C777   H794    1.109   .     S
C777   H795    1.111   .     S
C777   H793    1.099   .     S
C778   H799    1.110   .     S
C778   H797    1.111   .     S
C778   H796    1.111   .     S
C779   N808    1.380   .     A
C779   C783    1.408   .     A
C780   C784    1.407   .     A
C780   N807    1.376   .     A
C781   N808    1.380   .     A
C782   H802    1.078   .     S
C783   H803    1.078   .     S
C784   H804    1.078   .     S
Cu785  O809    1.959   .     S
Cu785  Cu786   2.707   .     S
Cu785  O811    1.959   .     S
Cu785  N808    2.034   .     S
Cu785  O815    1.927   .     S
Cu785  O813    1.927   .     S
Cu786  O816    1.927   .     S
Cu786  O812    1.959   .     S
Cu786  N807    2.034   .     S
Cu786  O814    1.927   .     S
Cu786  O810    1.959   .     S
