data_str_m2_o2_o10_pcu_sym.145
_audit_creation_date              2020-01-03
_audit_creation_method            'Materials Studio'
_symmetry_space_group_name_H-M    'P1'
_symmetry_Int_Tables_number       1
_symmetry_cell_setting            triclinic
loop_
_symmetry_equiv_pos_as_xyz
  x,y,z
_cell_length_a                    26.1007
_cell_length_b                    30.3069
_cell_length_c                    27.7155
_cell_angle_alpha                 89.5124
_cell_angle_beta                  98.5524
_cell_angle_gamma                 90.1880
loop_
_atom_site_label
_atom_site_type_symbol
_atom_site_fract_x
_atom_site_fract_y
_atom_site_fract_z
_atom_site_U_iso_or_equiv
_atom_site_adp_type
_atom_site_occupancy
C1     C     0.16802   0.16514   0.25040   0.00000  Uiso   1.00
C2     C     0.16534   0.33523   0.24952   0.00000  Uiso   1.00
C3     C     0.17967   0.28830   0.05559   0.00000  Uiso   1.00
C4     C     0.13772   0.21872   0.44202   0.00000  Uiso   1.00
C5     C     0.18060   0.28714   0.10635   0.00000  Uiso   1.00
C6     C     0.13925   0.21875   0.39157   0.00000  Uiso   1.00
C7     C     0.15257   0.21303   0.10289   0.00000  Uiso   1.00
C8     C     0.19195   0.28240   0.39850   0.00000  Uiso   1.00
C9     C     0.15275   0.21232   0.05228   0.00000  Uiso   1.00
C10    C     0.19308   0.28268   0.44924   0.00000  Uiso   1.00
C11    C     0.16593   0.25044   0.02718   0.00000  Uiso   1.00
C12    C     0.16565   0.25056   0.47239   0.00000  Uiso   1.00
C13    C     0.06827   0.25640   0.23747   0.00000  Uiso   1.00
C14    C     0.26505   0.25672   0.26248   0.00000  Uiso   1.00
C15    C     0.01349   0.27007   0.23049   0.00000  Uiso   1.00
C16    C     0.32016   0.26984   0.26954   0.00000  Uiso   1.00
C17    C     0.20202   0.04737   0.28633   0.00000  Uiso   1.00
C18    C     0.16054   0.45447   0.20649   0.00000  Uiso   1.00
C19    C     0.20441   0.09332   0.28608   0.00000  Uiso   1.00
C20    C     0.15750   0.40872   0.20465   0.00000  Uiso   1.00
C21    C     0.16970   0.11716   0.25113   0.00000  Uiso   1.00
C22    C     0.16355   0.38382   0.24881   0.00000  Uiso   1.00
C23    C     0.13465   0.09462   0.21681   0.00000  Uiso   1.00
C24    C     0.16963   0.40621   0.29353   0.00000  Uiso   1.00
C25    C     0.13293   0.04888   0.21735   0.00000  Uiso   1.00
C26    C     0.17044   0.45205   0.29468   0.00000  Uiso   1.00
C27    C     0.16674   0.02492   0.25194   0.00000  Uiso   1.00
C28    C     0.16607   0.47646   0.25116   0.00000  Uiso   1.00
Cu29   Cu    0.16667   0.25000   0.29821   0.00000  Uiso   1.00
Cu30   Cu    0.16667   0.25001   0.20178   0.00000  Uiso   1.00
H31    H     0.22911   0.02917   0.31250   0.00000  Uiso   1.00
H32    H     0.15761   0.47292   0.17253   0.00000  Uiso   1.00
H33    H     0.10780   0.11253   0.19011   0.00000  Uiso   1.00
H34    H     0.17400   0.38833   0.32790   0.00000  Uiso   1.00
H35    H     0.10475   0.03224   0.19100   0.00000  Uiso   1.00
H36    H     0.17420   0.46842   0.32962   0.00000  Uiso   1.00
H37    H     0.18925   0.31914   0.03927   0.00000  Uiso   1.00
H38    H     0.11407   0.19404   0.45647   0.00000  Uiso   1.00
H39    H     0.19242   0.31635   0.12712   0.00000  Uiso   1.00
H40    H     0.11773   0.19402   0.36898   0.00000  Uiso   1.00
H41    H     0.14123   0.18354   0.12076   0.00000  Uiso   1.00
H42    H     0.21115   0.30852   0.38141   0.00000  Uiso   1.00
H43    H     0.14307   0.18163   0.03355   0.00000  Uiso   1.00
H44    H     0.21581   0.30801   0.46966   0.00000  Uiso   1.00
N45    N     0.16667   0.25001   0.12934   0.00000  Uiso   1.00
N46    N     0.16667   0.24999   0.37065   0.00000  Uiso   1.00
O47    O     0.16667   0.18573   0.29071   0.00000  Uiso   1.00
O48    O     0.16666   0.31428   0.20928   0.00000  Uiso   1.00
O49    O     0.16667   0.18573   0.20928   0.00000  Uiso   1.00
O50    O     0.16666   0.31427   0.29072   0.00000  Uiso   1.00
O51    O     0.09161   0.25000   0.28132   0.00000  Uiso   1.00
O52    O     0.24172   0.25001   0.21868   0.00000  Uiso   1.00
O53    O     0.09161   0.25000   0.19988   0.00000  Uiso   1.00
O54    O     0.24172   0.25000   0.30011   0.00000  Uiso   1.00
C55    C     0.32257   0.28657   0.17972   0.00000  Uiso   1.00
C56    C     0.02109   0.32343   0.15968   0.00000  Uiso   1.00
C57    C     0.32382   0.34581   0.11487   0.00000  Uiso   1.00
H58    H     0.31186   0.32117   0.08588   0.00000  Uiso   1.00
H59    H     0.28879   0.36220   0.12464   0.00000  Uiso   1.00
H60    H     0.01508   0.37122   0.10042   0.00000  Uiso   1.00
H61    H     0.03208   0.34869   0.18826   0.00000  Uiso   1.00
H62    H     0.05684   0.30984   0.14848   0.00000  Uiso   1.00
H63    H     0.31773   0.25847   0.15392   0.00000  Uiso   1.00
H64    H     0.28426   0.30175   0.18099   0.00000  Uiso   1.00
C65    C     0.01360   0.28267   0.32076   0.00000  Uiso   1.00
C66    C     0.31379   0.31006   0.35075   0.00000  Uiso   1.00
C67    C     0.01384   0.33655   0.39038   0.00000  Uiso   1.00
H68    H     0.04026   0.31424   0.41443   0.00000  Uiso   1.00
H69    H     0.03714   0.36158   0.37369   0.00000  Uiso   1.00
H70    H     0.32183   0.35386   0.41291   0.00000  Uiso   1.00
H71    H     0.28830   0.33313   0.32676   0.00000  Uiso   1.00
H72    H     0.29002   0.28717   0.36949   0.00000  Uiso   1.00
H73    H     0.02695   0.25236   0.34176   0.00000  Uiso   1.00
H74    H     0.04770   0.30377   0.31687   0.00000  Uiso   1.00
O75    O     0.24188   0.11308   0.31948   0.00000  Uiso   1.00
H76    H     0.24793   0.14362   0.30879   0.00000  Uiso   1.00
O77    O     0.14847   0.38995   0.15917   0.00000  Uiso   1.00
H78    H     0.12032   0.36812   0.15970   0.00000  Uiso   1.00
C79    C     0.50136   0.16514   0.25040   0.00000  Uiso   1.00
C80    C     0.49868   0.33523   0.24952   0.00000  Uiso   1.00
C81    C     0.51300   0.28830   0.05559   0.00000  Uiso   1.00
C82    C     0.47105   0.21872   0.44202   0.00000  Uiso   1.00
C83    C     0.51393   0.28714   0.10635   0.00000  Uiso   1.00
C84    C     0.47259   0.21875   0.39157   0.00000  Uiso   1.00
C85    C     0.48590   0.21303   0.10289   0.00000  Uiso   1.00
C86    C     0.52528   0.28240   0.39850   0.00000  Uiso   1.00
C87    C     0.48609   0.21232   0.05228   0.00000  Uiso   1.00
C88    C     0.52641   0.28268   0.44924   0.00000  Uiso   1.00
C89    C     0.49927   0.25044   0.02718   0.00000  Uiso   1.00
C90    C     0.49898   0.25056   0.47239   0.00000  Uiso   1.00
C91    C     0.40161   0.25640   0.23747   0.00000  Uiso   1.00
C92    C     0.59839   0.25672   0.26248   0.00000  Uiso   1.00
C93    C     0.34682   0.27007   0.23049   0.00000  Uiso   1.00
C94    C     0.65350   0.26984   0.26954   0.00000  Uiso   1.00
C95    C     0.53535   0.04737   0.28633   0.00000  Uiso   1.00
C96    C     0.49388   0.45447   0.20649   0.00000  Uiso   1.00
C97    C     0.53774   0.09332   0.28608   0.00000  Uiso   1.00
C98    C     0.49084   0.40872   0.20465   0.00000  Uiso   1.00
C99    C     0.50304   0.11716   0.25113   0.00000  Uiso   1.00
C100   C     0.49688   0.38382   0.24881   0.00000  Uiso   1.00
C101   C     0.46798   0.09462   0.21681   0.00000  Uiso   1.00
C102   C     0.50297   0.40621   0.29353   0.00000  Uiso   1.00
C103   C     0.46627   0.04888   0.21735   0.00000  Uiso   1.00
C104   C     0.50377   0.45205   0.29468   0.00000  Uiso   1.00
C105   C     0.50007   0.02492   0.25194   0.00000  Uiso   1.00
C106   C     0.49941   0.47646   0.25116   0.00000  Uiso   1.00
Cu107  Cu    0.50000   0.25000   0.29821   0.00000  Uiso   1.00
Cu108  Cu    0.50000   0.25001   0.20178   0.00000  Uiso   1.00
H109   H     0.56245   0.02917   0.31250   0.00000  Uiso   1.00
H110   H     0.49094   0.47292   0.17253   0.00000  Uiso   1.00
H111   H     0.44113   0.11253   0.19011   0.00000  Uiso   1.00
H112   H     0.50733   0.38833   0.32790   0.00000  Uiso   1.00
H113   H     0.43808   0.03224   0.19100   0.00000  Uiso   1.00
H114   H     0.50754   0.46842   0.32962   0.00000  Uiso   1.00
H115   H     0.52258   0.31914   0.03927   0.00000  Uiso   1.00
H116   H     0.44740   0.19404   0.45647   0.00000  Uiso   1.00
H117   H     0.52576   0.31635   0.12712   0.00000  Uiso   1.00
H118   H     0.45106   0.19402   0.36898   0.00000  Uiso   1.00
H119   H     0.47456   0.18354   0.12076   0.00000  Uiso   1.00
H120   H     0.54449   0.30852   0.38141   0.00000  Uiso   1.00
H121   H     0.47640   0.18163   0.03355   0.00000  Uiso   1.00
H122   H     0.54914   0.30801   0.46966   0.00000  Uiso   1.00
N123   N     0.50000   0.25001   0.12934   0.00000  Uiso   1.00
N124   N     0.50000   0.24999   0.37065   0.00000  Uiso   1.00
O125   O     0.50000   0.18573   0.29071   0.00000  Uiso   1.00
O126   O     0.50000   0.31428   0.20928   0.00000  Uiso   1.00
O127   O     0.50000   0.18573   0.20928   0.00000  Uiso   1.00
O128   O     0.50000   0.31427   0.29072   0.00000  Uiso   1.00
O129   O     0.42495   0.25000   0.28132   0.00000  Uiso   1.00
O130   O     0.57505   0.25001   0.21868   0.00000  Uiso   1.00
O131   O     0.42495   0.25000   0.19988   0.00000  Uiso   1.00
O132   O     0.57505   0.25000   0.30011   0.00000  Uiso   1.00
C133   C     0.65590   0.28657   0.17972   0.00000  Uiso   1.00
C134   C     0.35442   0.32343   0.15968   0.00000  Uiso   1.00
C135   C     0.65715   0.34581   0.11487   0.00000  Uiso   1.00
H136   H     0.64519   0.32117   0.08588   0.00000  Uiso   1.00
H137   H     0.62212   0.36220   0.12464   0.00000  Uiso   1.00
H138   H     0.34842   0.37122   0.10042   0.00000  Uiso   1.00
H139   H     0.36542   0.34869   0.18826   0.00000  Uiso   1.00
H140   H     0.39017   0.30984   0.14848   0.00000  Uiso   1.00
H141   H     0.65106   0.25847   0.15392   0.00000  Uiso   1.00
H142   H     0.61759   0.30175   0.18099   0.00000  Uiso   1.00
C143   C     0.34694   0.28267   0.32076   0.00000  Uiso   1.00
C144   C     0.64712   0.31006   0.35075   0.00000  Uiso   1.00
C145   C     0.34717   0.33655   0.39038   0.00000  Uiso   1.00
H146   H     0.37359   0.31424   0.41443   0.00000  Uiso   1.00
H147   H     0.37047   0.36158   0.37369   0.00000  Uiso   1.00
H148   H     0.65517   0.35386   0.41291   0.00000  Uiso   1.00
H149   H     0.62163   0.33313   0.32676   0.00000  Uiso   1.00
H150   H     0.62335   0.28717   0.36949   0.00000  Uiso   1.00
H151   H     0.36028   0.25236   0.34176   0.00000  Uiso   1.00
H152   H     0.38103   0.30377   0.31687   0.00000  Uiso   1.00
O153   O     0.57522   0.11308   0.31948   0.00000  Uiso   1.00
H154   H     0.58126   0.14362   0.30879   0.00000  Uiso   1.00
O155   O     0.48180   0.38995   0.15917   0.00000  Uiso   1.00
H156   H     0.45365   0.36812   0.15970   0.00000  Uiso   1.00
C157   C     0.83469   0.16514   0.25040   0.00000  Uiso   1.00
C158   C     0.83201   0.33523   0.24952   0.00000  Uiso   1.00
C159   C     0.84634   0.28830   0.05559   0.00000  Uiso   1.00
C160   C     0.80439   0.21872   0.44202   0.00000  Uiso   1.00
C161   C     0.84726   0.28714   0.10635   0.00000  Uiso   1.00
C162   C     0.80592   0.21875   0.39157   0.00000  Uiso   1.00
C163   C     0.81923   0.21303   0.10289   0.00000  Uiso   1.00
C164   C     0.85861   0.28240   0.39850   0.00000  Uiso   1.00
C165   C     0.81942   0.21232   0.05228   0.00000  Uiso   1.00
C166   C     0.85975   0.28268   0.44924   0.00000  Uiso   1.00
C167   C     0.83260   0.25044   0.02718   0.00000  Uiso   1.00
C168   C     0.83231   0.25056   0.47239   0.00000  Uiso   1.00
C169   C     0.73494   0.25640   0.23747   0.00000  Uiso   1.00
C170   C     0.93172   0.25672   0.26248   0.00000  Uiso   1.00
C171   C     0.68016   0.27007   0.23049   0.00000  Uiso   1.00
C172   C     0.98683   0.26984   0.26954   0.00000  Uiso   1.00
C173   C     0.86868   0.04737   0.28633   0.00000  Uiso   1.00
C174   C     0.82721   0.45447   0.20649   0.00000  Uiso   1.00
C175   C     0.87108   0.09332   0.28608   0.00000  Uiso   1.00
C176   C     0.82417   0.40872   0.20465   0.00000  Uiso   1.00
C177   C     0.83637   0.11716   0.25113   0.00000  Uiso   1.00
C178   C     0.83022   0.38382   0.24881   0.00000  Uiso   1.00
C179   C     0.80132   0.09462   0.21681   0.00000  Uiso   1.00
C180   C     0.83630   0.40621   0.29353   0.00000  Uiso   1.00
C181   C     0.79960   0.04888   0.21735   0.00000  Uiso   1.00
C182   C     0.83710   0.45205   0.29468   0.00000  Uiso   1.00
C183   C     0.83340   0.02492   0.25194   0.00000  Uiso   1.00
C184   C     0.83274   0.47646   0.25116   0.00000  Uiso   1.00
Cu185  Cu    0.83333   0.25000   0.29821   0.00000  Uiso   1.00
Cu186  Cu    0.83333   0.25001   0.20178   0.00000  Uiso   1.00
H187   H     0.89578   0.02917   0.31250   0.00000  Uiso   1.00
H188   H     0.82428   0.47292   0.17253   0.00000  Uiso   1.00
H189   H     0.77446   0.11253   0.19011   0.00000  Uiso   1.00
H190   H     0.84066   0.38833   0.32790   0.00000  Uiso   1.00
H191   H     0.77141   0.03224   0.19100   0.00000  Uiso   1.00
H192   H     0.84087   0.46842   0.32962   0.00000  Uiso   1.00
H193   H     0.85592   0.31914   0.03927   0.00000  Uiso   1.00
H194   H     0.78074   0.19404   0.45647   0.00000  Uiso   1.00
H195   H     0.85909   0.31635   0.12712   0.00000  Uiso   1.00
H196   H     0.78439   0.19402   0.36898   0.00000  Uiso   1.00
H197   H     0.80789   0.18354   0.12076   0.00000  Uiso   1.00
H198   H     0.87782   0.30852   0.38141   0.00000  Uiso   1.00
H199   H     0.80974   0.18163   0.03355   0.00000  Uiso   1.00
H200   H     0.88247   0.30801   0.46966   0.00000  Uiso   1.00
N201   N     0.83333   0.25001   0.12934   0.00000  Uiso   1.00
N202   N     0.83333   0.24999   0.37065   0.00000  Uiso   1.00
O203   O     0.83334   0.18573   0.29071   0.00000  Uiso   1.00
O204   O     0.83333   0.31428   0.20928   0.00000  Uiso   1.00
O205   O     0.83334   0.18573   0.20928   0.00000  Uiso   1.00
O206   O     0.83333   0.31427   0.29072   0.00000  Uiso   1.00
O207   O     0.75828   0.25000   0.28132   0.00000  Uiso   1.00
O208   O     0.90839   0.25001   0.21868   0.00000  Uiso   1.00
O209   O     0.75828   0.25000   0.19988   0.00000  Uiso   1.00
O210   O     0.90839   0.25000   0.30011   0.00000  Uiso   1.00
C211   C     0.98923   0.28657   0.17972   0.00000  Uiso   1.00
C212   C     0.68776   0.32343   0.15968   0.00000  Uiso   1.00
C213   C     0.99048   0.34581   0.11487   0.00000  Uiso   1.00
H214   H     0.97852   0.32117   0.08588   0.00000  Uiso   1.00
H215   H     0.95546   0.36220   0.12464   0.00000  Uiso   1.00
H216   H     0.68175   0.37122   0.10042   0.00000  Uiso   1.00
H217   H     0.69875   0.34869   0.18826   0.00000  Uiso   1.00
H218   H     0.72351   0.30984   0.14848   0.00000  Uiso   1.00
H219   H     0.98440   0.25847   0.15392   0.00000  Uiso   1.00
H220   H     0.95093   0.30175   0.18099   0.00000  Uiso   1.00
C221   C     0.68027   0.28267   0.32076   0.00000  Uiso   1.00
C222   C     0.98046   0.31006   0.35075   0.00000  Uiso   1.00
C223   C     0.68051   0.33655   0.39038   0.00000  Uiso   1.00
H224   H     0.70693   0.31424   0.41443   0.00000  Uiso   1.00
H225   H     0.70380   0.36158   0.37369   0.00000  Uiso   1.00
H226   H     0.98850   0.35386   0.41291   0.00000  Uiso   1.00
H227   H     0.95496   0.33313   0.32676   0.00000  Uiso   1.00
H228   H     0.95669   0.28717   0.36949   0.00000  Uiso   1.00
H229   H     0.69361   0.25236   0.34176   0.00000  Uiso   1.00
H230   H     0.71437   0.30377   0.31687   0.00000  Uiso   1.00
O231   O     0.90855   0.11308   0.31948   0.00000  Uiso   1.00
H232   H     0.91460   0.14362   0.30879   0.00000  Uiso   1.00
O233   O     0.81514   0.38995   0.15917   0.00000  Uiso   1.00
H234   H     0.78699   0.36812   0.15970   0.00000  Uiso   1.00
C235   C     0.16802   0.66514   0.25040   0.00000  Uiso   1.00
C236   C     0.16534   0.83523   0.24952   0.00000  Uiso   1.00
C237   C     0.17967   0.78830   0.05559   0.00000  Uiso   1.00
C238   C     0.13772   0.71872   0.44202   0.00000  Uiso   1.00
C239   C     0.18060   0.78714   0.10635   0.00000  Uiso   1.00
C240   C     0.13925   0.71875   0.39157   0.00000  Uiso   1.00
C241   C     0.15257   0.71303   0.10289   0.00000  Uiso   1.00
C242   C     0.19195   0.78240   0.39850   0.00000  Uiso   1.00
C243   C     0.15275   0.71232   0.05228   0.00000  Uiso   1.00
C244   C     0.19308   0.78268   0.44924   0.00000  Uiso   1.00
C245   C     0.16593   0.75044   0.02718   0.00000  Uiso   1.00
C246   C     0.16565   0.75056   0.47239   0.00000  Uiso   1.00
C247   C     0.06827   0.75640   0.23747   0.00000  Uiso   1.00
C248   C     0.26505   0.75672   0.26248   0.00000  Uiso   1.00
C249   C     0.01349   0.77007   0.23049   0.00000  Uiso   1.00
C250   C     0.32016   0.76984   0.26954   0.00000  Uiso   1.00
C251   C     0.20202   0.54737   0.28633   0.00000  Uiso   1.00
C252   C     0.16054   0.95447   0.20649   0.00000  Uiso   1.00
C253   C     0.20441   0.59332   0.28608   0.00000  Uiso   1.00
C254   C     0.15750   0.90872   0.20465   0.00000  Uiso   1.00
C255   C     0.16970   0.61716   0.25113   0.00000  Uiso   1.00
C256   C     0.16355   0.88382   0.24881   0.00000  Uiso   1.00
C257   C     0.13465   0.59462   0.21681   0.00000  Uiso   1.00
C258   C     0.16963   0.90621   0.29353   0.00000  Uiso   1.00
C259   C     0.13293   0.54888   0.21735   0.00000  Uiso   1.00
C260   C     0.17044   0.95205   0.29468   0.00000  Uiso   1.00
C261   C     0.16674   0.52492   0.25194   0.00000  Uiso   1.00
C262   C     0.16607   0.97646   0.25116   0.00000  Uiso   1.00
Cu263  Cu    0.16667   0.75000   0.29821   0.00000  Uiso   1.00
Cu264  Cu    0.16667   0.75001   0.20178   0.00000  Uiso   1.00
H265   H     0.22911   0.52917   0.31250   0.00000  Uiso   1.00
H266   H     0.15761   0.97292   0.17253   0.00000  Uiso   1.00
H267   H     0.10780   0.61253   0.19011   0.00000  Uiso   1.00
H268   H     0.17400   0.88833   0.32790   0.00000  Uiso   1.00
H269   H     0.10475   0.53224   0.19100   0.00000  Uiso   1.00
H270   H     0.17420   0.96842   0.32962   0.00000  Uiso   1.00
H271   H     0.18925   0.81914   0.03927   0.00000  Uiso   1.00
H272   H     0.11407   0.69404   0.45647   0.00000  Uiso   1.00
H273   H     0.19242   0.81635   0.12712   0.00000  Uiso   1.00
H274   H     0.11773   0.69402   0.36898   0.00000  Uiso   1.00
H275   H     0.14123   0.68354   0.12076   0.00000  Uiso   1.00
H276   H     0.21115   0.80852   0.38141   0.00000  Uiso   1.00
H277   H     0.14307   0.68163   0.03355   0.00000  Uiso   1.00
H278   H     0.21581   0.80801   0.46966   0.00000  Uiso   1.00
N279   N     0.16667   0.75001   0.12934   0.00000  Uiso   1.00
N280   N     0.16667   0.74999   0.37065   0.00000  Uiso   1.00
O281   O     0.16667   0.68573   0.29071   0.00000  Uiso   1.00
O282   O     0.16666   0.81428   0.20928   0.00000  Uiso   1.00
O283   O     0.16667   0.68573   0.20928   0.00000  Uiso   1.00
O284   O     0.16666   0.81427   0.29072   0.00000  Uiso   1.00
O285   O     0.09161   0.75000   0.28132   0.00000  Uiso   1.00
O286   O     0.24172   0.75001   0.21868   0.00000  Uiso   1.00
O287   O     0.09161   0.75000   0.19988   0.00000  Uiso   1.00
O288   O     0.24172   0.75000   0.30011   0.00000  Uiso   1.00
C289   C     0.32257   0.78657   0.17972   0.00000  Uiso   1.00
C290   C     0.02109   0.82343   0.15968   0.00000  Uiso   1.00
C291   C     0.32382   0.84581   0.11487   0.00000  Uiso   1.00
H292   H     0.31186   0.82117   0.08588   0.00000  Uiso   1.00
H293   H     0.28879   0.86220   0.12464   0.00000  Uiso   1.00
H294   H     0.01508   0.87122   0.10042   0.00000  Uiso   1.00
H295   H     0.03208   0.84869   0.18826   0.00000  Uiso   1.00
H296   H     0.05684   0.80984   0.14848   0.00000  Uiso   1.00
H297   H     0.31773   0.75847   0.15392   0.00000  Uiso   1.00
H298   H     0.28426   0.80175   0.18099   0.00000  Uiso   1.00
C299   C     0.01360   0.78267   0.32076   0.00000  Uiso   1.00
C300   C     0.31379   0.81006   0.35075   0.00000  Uiso   1.00
C301   C     0.01384   0.83655   0.39038   0.00000  Uiso   1.00
H302   H     0.04026   0.81424   0.41443   0.00000  Uiso   1.00
H303   H     0.03714   0.86158   0.37369   0.00000  Uiso   1.00
H304   H     0.32183   0.85386   0.41291   0.00000  Uiso   1.00
H305   H     0.28830   0.83313   0.32676   0.00000  Uiso   1.00
H306   H     0.29002   0.78717   0.36949   0.00000  Uiso   1.00
H307   H     0.02695   0.75236   0.34176   0.00000  Uiso   1.00
H308   H     0.04770   0.80377   0.31687   0.00000  Uiso   1.00
O309   O     0.24188   0.61308   0.31948   0.00000  Uiso   1.00
H310   H     0.24793   0.64362   0.30879   0.00000  Uiso   1.00
O311   O     0.14847   0.88995   0.15917   0.00000  Uiso   1.00
H312   H     0.12032   0.86812   0.15970   0.00000  Uiso   1.00
C313   C     0.50136   0.66514   0.25040   0.00000  Uiso   1.00
C314   C     0.49868   0.83523   0.24952   0.00000  Uiso   1.00
C315   C     0.51300   0.78830   0.05559   0.00000  Uiso   1.00
C316   C     0.47105   0.71872   0.44202   0.00000  Uiso   1.00
C317   C     0.51393   0.78714   0.10635   0.00000  Uiso   1.00
C318   C     0.47259   0.71875   0.39157   0.00000  Uiso   1.00
C319   C     0.48590   0.71303   0.10289   0.00000  Uiso   1.00
C320   C     0.52528   0.78240   0.39850   0.00000  Uiso   1.00
C321   C     0.48609   0.71232   0.05228   0.00000  Uiso   1.00
C322   C     0.52641   0.78268   0.44924   0.00000  Uiso   1.00
C323   C     0.49927   0.75044   0.02718   0.00000  Uiso   1.00
C324   C     0.49898   0.75056   0.47239   0.00000  Uiso   1.00
C325   C     0.40161   0.75640   0.23747   0.00000  Uiso   1.00
C326   C     0.59839   0.75672   0.26248   0.00000  Uiso   1.00
C327   C     0.34682   0.77007   0.23049   0.00000  Uiso   1.00
C328   C     0.65350   0.76984   0.26954   0.00000  Uiso   1.00
C329   C     0.53535   0.54737   0.28633   0.00000  Uiso   1.00
C330   C     0.49388   0.95447   0.20649   0.00000  Uiso   1.00
C331   C     0.53774   0.59332   0.28608   0.00000  Uiso   1.00
C332   C     0.49084   0.90872   0.20465   0.00000  Uiso   1.00
C333   C     0.50304   0.61716   0.25113   0.00000  Uiso   1.00
C334   C     0.49688   0.88382   0.24881   0.00000  Uiso   1.00
C335   C     0.46798   0.59462   0.21681   0.00000  Uiso   1.00
C336   C     0.50297   0.90621   0.29353   0.00000  Uiso   1.00
C337   C     0.46627   0.54888   0.21735   0.00000  Uiso   1.00
C338   C     0.50377   0.95205   0.29468   0.00000  Uiso   1.00
C339   C     0.50007   0.52492   0.25194   0.00000  Uiso   1.00
C340   C     0.49941   0.97646   0.25116   0.00000  Uiso   1.00
Cu341  Cu    0.50000   0.75000   0.29821   0.00000  Uiso   1.00
Cu342  Cu    0.50000   0.75001   0.20178   0.00000  Uiso   1.00
H343   H     0.56245   0.52917   0.31250   0.00000  Uiso   1.00
H344   H     0.49094   0.97292   0.17253   0.00000  Uiso   1.00
H345   H     0.44113   0.61253   0.19011   0.00000  Uiso   1.00
H346   H     0.50733   0.88833   0.32790   0.00000  Uiso   1.00
H347   H     0.43808   0.53224   0.19100   0.00000  Uiso   1.00
H348   H     0.50754   0.96842   0.32962   0.00000  Uiso   1.00
H349   H     0.52258   0.81914   0.03927   0.00000  Uiso   1.00
H350   H     0.44740   0.69404   0.45647   0.00000  Uiso   1.00
H351   H     0.52576   0.81635   0.12712   0.00000  Uiso   1.00
H352   H     0.45106   0.69402   0.36898   0.00000  Uiso   1.00
H353   H     0.47456   0.68354   0.12076   0.00000  Uiso   1.00
H354   H     0.54449   0.80852   0.38141   0.00000  Uiso   1.00
H355   H     0.47640   0.68163   0.03355   0.00000  Uiso   1.00
H356   H     0.54914   0.80801   0.46966   0.00000  Uiso   1.00
N357   N     0.50000   0.75001   0.12934   0.00000  Uiso   1.00
N358   N     0.50000   0.74999   0.37065   0.00000  Uiso   1.00
O359   O     0.50000   0.68573   0.29071   0.00000  Uiso   1.00
O360   O     0.50000   0.81428   0.20928   0.00000  Uiso   1.00
O361   O     0.50000   0.68573   0.20928   0.00000  Uiso   1.00
O362   O     0.50000   0.81427   0.29072   0.00000  Uiso   1.00
O363   O     0.42495   0.75000   0.28132   0.00000  Uiso   1.00
O364   O     0.57505   0.75001   0.21868   0.00000  Uiso   1.00
O365   O     0.42495   0.75000   0.19988   0.00000  Uiso   1.00
O366   O     0.57505   0.75000   0.30011   0.00000  Uiso   1.00
C367   C     0.65590   0.78657   0.17972   0.00000  Uiso   1.00
C368   C     0.35442   0.82343   0.15968   0.00000  Uiso   1.00
C369   C     0.65715   0.84581   0.11487   0.00000  Uiso   1.00
H370   H     0.64519   0.82117   0.08588   0.00000  Uiso   1.00
H371   H     0.62212   0.86220   0.12464   0.00000  Uiso   1.00
H372   H     0.34842   0.87122   0.10042   0.00000  Uiso   1.00
H373   H     0.36542   0.84869   0.18826   0.00000  Uiso   1.00
H374   H     0.39017   0.80984   0.14848   0.00000  Uiso   1.00
H375   H     0.65106   0.75847   0.15392   0.00000  Uiso   1.00
H376   H     0.61759   0.80175   0.18099   0.00000  Uiso   1.00
C377   C     0.34694   0.78267   0.32076   0.00000  Uiso   1.00
C378   C     0.64712   0.81006   0.35075   0.00000  Uiso   1.00
C379   C     0.34717   0.83655   0.39038   0.00000  Uiso   1.00
H380   H     0.37359   0.81424   0.41443   0.00000  Uiso   1.00
H381   H     0.37047   0.86158   0.37369   0.00000  Uiso   1.00
H382   H     0.65517   0.85386   0.41291   0.00000  Uiso   1.00
H383   H     0.62163   0.83313   0.32676   0.00000  Uiso   1.00
H384   H     0.62335   0.78717   0.36949   0.00000  Uiso   1.00
H385   H     0.36028   0.75236   0.34176   0.00000  Uiso   1.00
H386   H     0.38103   0.80377   0.31687   0.00000  Uiso   1.00
O387   O     0.57522   0.61308   0.31948   0.00000  Uiso   1.00
H388   H     0.58126   0.64362   0.30879   0.00000  Uiso   1.00
O389   O     0.48180   0.88995   0.15917   0.00000  Uiso   1.00
H390   H     0.45365   0.86812   0.15970   0.00000  Uiso   1.00
C391   C     0.83469   0.66514   0.25040   0.00000  Uiso   1.00
C392   C     0.83201   0.83523   0.24952   0.00000  Uiso   1.00
C393   C     0.84634   0.78830   0.05559   0.00000  Uiso   1.00
C394   C     0.80439   0.71872   0.44202   0.00000  Uiso   1.00
C395   C     0.84726   0.78714   0.10635   0.00000  Uiso   1.00
C396   C     0.80592   0.71875   0.39157   0.00000  Uiso   1.00
C397   C     0.81923   0.71303   0.10289   0.00000  Uiso   1.00
C398   C     0.85861   0.78240   0.39850   0.00000  Uiso   1.00
C399   C     0.81942   0.71232   0.05228   0.00000  Uiso   1.00
C400   C     0.85975   0.78268   0.44924   0.00000  Uiso   1.00
C401   C     0.83260   0.75044   0.02718   0.00000  Uiso   1.00
C402   C     0.83231   0.75056   0.47239   0.00000  Uiso   1.00
C403   C     0.73494   0.75640   0.23747   0.00000  Uiso   1.00
C404   C     0.93172   0.75672   0.26248   0.00000  Uiso   1.00
C405   C     0.68016   0.77007   0.23049   0.00000  Uiso   1.00
C406   C     0.98683   0.76984   0.26954   0.00000  Uiso   1.00
C407   C     0.86868   0.54737   0.28633   0.00000  Uiso   1.00
C408   C     0.82721   0.95447   0.20649   0.00000  Uiso   1.00
C409   C     0.87108   0.59332   0.28608   0.00000  Uiso   1.00
C410   C     0.82417   0.90872   0.20465   0.00000  Uiso   1.00
C411   C     0.83637   0.61716   0.25113   0.00000  Uiso   1.00
C412   C     0.83022   0.88382   0.24881   0.00000  Uiso   1.00
C413   C     0.80132   0.59462   0.21681   0.00000  Uiso   1.00
C414   C     0.83630   0.90621   0.29353   0.00000  Uiso   1.00
C415   C     0.79960   0.54888   0.21735   0.00000  Uiso   1.00
C416   C     0.83710   0.95205   0.29468   0.00000  Uiso   1.00
C417   C     0.83340   0.52492   0.25194   0.00000  Uiso   1.00
C418   C     0.83274   0.97646   0.25116   0.00000  Uiso   1.00
Cu419  Cu    0.83333   0.75000   0.29821   0.00000  Uiso   1.00
Cu420  Cu    0.83333   0.75001   0.20178   0.00000  Uiso   1.00
H421   H     0.89578   0.52917   0.31250   0.00000  Uiso   1.00
H422   H     0.82428   0.97292   0.17253   0.00000  Uiso   1.00
H423   H     0.77446   0.61253   0.19011   0.00000  Uiso   1.00
H424   H     0.84066   0.88833   0.32790   0.00000  Uiso   1.00
H425   H     0.77141   0.53224   0.19100   0.00000  Uiso   1.00
H426   H     0.84087   0.96842   0.32962   0.00000  Uiso   1.00
H427   H     0.85592   0.81914   0.03927   0.00000  Uiso   1.00
H428   H     0.78074   0.69404   0.45647   0.00000  Uiso   1.00
H429   H     0.85909   0.81635   0.12712   0.00000  Uiso   1.00
H430   H     0.78439   0.69402   0.36898   0.00000  Uiso   1.00
H431   H     0.80789   0.68354   0.12076   0.00000  Uiso   1.00
H432   H     0.87782   0.80852   0.38141   0.00000  Uiso   1.00
H433   H     0.80974   0.68163   0.03355   0.00000  Uiso   1.00
H434   H     0.88247   0.80801   0.46966   0.00000  Uiso   1.00
N435   N     0.83333   0.75001   0.12934   0.00000  Uiso   1.00
N436   N     0.83333   0.74999   0.37065   0.00000  Uiso   1.00
O437   O     0.83334   0.68573   0.29071   0.00000  Uiso   1.00
O438   O     0.83333   0.81428   0.20928   0.00000  Uiso   1.00
O439   O     0.83334   0.68573   0.20928   0.00000  Uiso   1.00
O440   O     0.83333   0.81427   0.29072   0.00000  Uiso   1.00
O441   O     0.75828   0.75000   0.28132   0.00000  Uiso   1.00
O442   O     0.90839   0.75001   0.21868   0.00000  Uiso   1.00
O443   O     0.75828   0.75000   0.19988   0.00000  Uiso   1.00
O444   O     0.90839   0.75000   0.30011   0.00000  Uiso   1.00
C445   C     0.98923   0.78657   0.17972   0.00000  Uiso   1.00
C446   C     0.68776   0.82343   0.15968   0.00000  Uiso   1.00
C447   C     0.99048   0.84581   0.11487   0.00000  Uiso   1.00
H448   H     0.97852   0.82117   0.08588   0.00000  Uiso   1.00
H449   H     0.95546   0.86220   0.12464   0.00000  Uiso   1.00
H450   H     0.68175   0.87122   0.10042   0.00000  Uiso   1.00
H451   H     0.69875   0.84869   0.18826   0.00000  Uiso   1.00
H452   H     0.72351   0.80984   0.14848   0.00000  Uiso   1.00
H453   H     0.98440   0.75847   0.15392   0.00000  Uiso   1.00
H454   H     0.95093   0.80175   0.18099   0.00000  Uiso   1.00
C455   C     0.68027   0.78267   0.32076   0.00000  Uiso   1.00
C456   C     0.98046   0.81006   0.35075   0.00000  Uiso   1.00
C457   C     0.68051   0.83655   0.39038   0.00000  Uiso   1.00
H458   H     0.70693   0.81424   0.41443   0.00000  Uiso   1.00
H459   H     0.70380   0.86158   0.37369   0.00000  Uiso   1.00
H460   H     0.98850   0.85386   0.41291   0.00000  Uiso   1.00
H461   H     0.95496   0.83313   0.32676   0.00000  Uiso   1.00
H462   H     0.95669   0.78717   0.36949   0.00000  Uiso   1.00
H463   H     0.69361   0.75236   0.34176   0.00000  Uiso   1.00
H464   H     0.71437   0.80377   0.31687   0.00000  Uiso   1.00
O465   O     0.90855   0.61308   0.31948   0.00000  Uiso   1.00
H466   H     0.91460   0.64362   0.30879   0.00000  Uiso   1.00
O467   O     0.81514   0.88995   0.15917   0.00000  Uiso   1.00
H468   H     0.78699   0.86812   0.15970   0.00000  Uiso   1.00
C469   C     0.16802   0.16514   0.75040   0.00000  Uiso   1.00
C470   C     0.16534   0.33523   0.74952   0.00000  Uiso   1.00
C471   C     0.17967   0.28830   0.55559   0.00000  Uiso   1.00
C472   C     0.13772   0.21872   0.94202   0.00000  Uiso   1.00
C473   C     0.18060   0.28714   0.60635   0.00000  Uiso   1.00
C474   C     0.13925   0.21875   0.89157   0.00000  Uiso   1.00
C475   C     0.15257   0.21303   0.60289   0.00000  Uiso   1.00
C476   C     0.19195   0.28240   0.89850   0.00000  Uiso   1.00
C477   C     0.15275   0.21232   0.55228   0.00000  Uiso   1.00
C478   C     0.19308   0.28268   0.94924   0.00000  Uiso   1.00
C479   C     0.16593   0.25044   0.52718   0.00000  Uiso   1.00
C480   C     0.16565   0.25056   0.97239   0.00000  Uiso   1.00
C481   C     0.06827   0.25640   0.73747   0.00000  Uiso   1.00
C482   C     0.26505   0.25672   0.76248   0.00000  Uiso   1.00
C483   C     0.01349   0.27007   0.73049   0.00000  Uiso   1.00
C484   C     0.32016   0.26984   0.76954   0.00000  Uiso   1.00
C485   C     0.20202   0.04737   0.78633   0.00000  Uiso   1.00
C486   C     0.16054   0.45447   0.70649   0.00000  Uiso   1.00
C487   C     0.20441   0.09332   0.78608   0.00000  Uiso   1.00
C488   C     0.15750   0.40872   0.70465   0.00000  Uiso   1.00
C489   C     0.16970   0.11716   0.75113   0.00000  Uiso   1.00
C490   C     0.16355   0.38382   0.74881   0.00000  Uiso   1.00
C491   C     0.13465   0.09462   0.71681   0.00000  Uiso   1.00
C492   C     0.16963   0.40621   0.79353   0.00000  Uiso   1.00
C493   C     0.13293   0.04888   0.71735   0.00000  Uiso   1.00
C494   C     0.17044   0.45205   0.79468   0.00000  Uiso   1.00
C495   C     0.16674   0.02492   0.75194   0.00000  Uiso   1.00
C496   C     0.16607   0.47646   0.75116   0.00000  Uiso   1.00
Cu497  Cu    0.16667   0.25000   0.79821   0.00000  Uiso   1.00
Cu498  Cu    0.16667   0.25001   0.70178   0.00000  Uiso   1.00
H499   H     0.22911   0.02917   0.81250   0.00000  Uiso   1.00
H500   H     0.15761   0.47292   0.67253   0.00000  Uiso   1.00
H501   H     0.10780   0.11253   0.69011   0.00000  Uiso   1.00
H502   H     0.17400   0.38833   0.82790   0.00000  Uiso   1.00
H503   H     0.10475   0.03224   0.69100   0.00000  Uiso   1.00
H504   H     0.17420   0.46842   0.82962   0.00000  Uiso   1.00
H505   H     0.18925   0.31914   0.53927   0.00000  Uiso   1.00
H506   H     0.11407   0.19404   0.95647   0.00000  Uiso   1.00
H507   H     0.19242   0.31635   0.62712   0.00000  Uiso   1.00
H508   H     0.11773   0.19402   0.86898   0.00000  Uiso   1.00
H509   H     0.14123   0.18354   0.62076   0.00000  Uiso   1.00
H510   H     0.21115   0.30852   0.88141   0.00000  Uiso   1.00
H511   H     0.14307   0.18163   0.53355   0.00000  Uiso   1.00
H512   H     0.21581   0.30801   0.96966   0.00000  Uiso   1.00
N513   N     0.16667   0.25001   0.62934   0.00000  Uiso   1.00
N514   N     0.16667   0.24999   0.87065   0.00000  Uiso   1.00
O515   O     0.16667   0.18573   0.79071   0.00000  Uiso   1.00
O516   O     0.16666   0.31428   0.70928   0.00000  Uiso   1.00
O517   O     0.16667   0.18573   0.70928   0.00000  Uiso   1.00
O518   O     0.16666   0.31427   0.79072   0.00000  Uiso   1.00
O519   O     0.09161   0.25000   0.78132   0.00000  Uiso   1.00
O520   O     0.24172   0.25001   0.71868   0.00000  Uiso   1.00
O521   O     0.09161   0.25000   0.69988   0.00000  Uiso   1.00
O522   O     0.24172   0.25000   0.80011   0.00000  Uiso   1.00
C523   C     0.32257   0.28657   0.67972   0.00000  Uiso   1.00
C524   C     0.02109   0.32343   0.65968   0.00000  Uiso   1.00
C525   C     0.32382   0.34581   0.61487   0.00000  Uiso   1.00
H526   H     0.31186   0.32117   0.58588   0.00000  Uiso   1.00
H527   H     0.28879   0.36220   0.62464   0.00000  Uiso   1.00
H528   H     0.01508   0.37122   0.60042   0.00000  Uiso   1.00
H529   H     0.03208   0.34869   0.68826   0.00000  Uiso   1.00
H530   H     0.05684   0.30984   0.64848   0.00000  Uiso   1.00
H531   H     0.31773   0.25847   0.65392   0.00000  Uiso   1.00
H532   H     0.28426   0.30175   0.68099   0.00000  Uiso   1.00
C533   C     0.01360   0.28267   0.82076   0.00000  Uiso   1.00
C534   C     0.31379   0.31006   0.85075   0.00000  Uiso   1.00
C535   C     0.01384   0.33655   0.89038   0.00000  Uiso   1.00
H536   H     0.04026   0.31424   0.91443   0.00000  Uiso   1.00
H537   H     0.03714   0.36158   0.87369   0.00000  Uiso   1.00
H538   H     0.32183   0.35386   0.91291   0.00000  Uiso   1.00
H539   H     0.28830   0.33313   0.82676   0.00000  Uiso   1.00
H540   H     0.29002   0.28717   0.86949   0.00000  Uiso   1.00
H541   H     0.02695   0.25236   0.84176   0.00000  Uiso   1.00
H542   H     0.04770   0.30377   0.81687   0.00000  Uiso   1.00
O543   O     0.24188   0.11308   0.81948   0.00000  Uiso   1.00
H544   H     0.24793   0.14362   0.80879   0.00000  Uiso   1.00
O545   O     0.14847   0.38995   0.65917   0.00000  Uiso   1.00
H546   H     0.12032   0.36812   0.65970   0.00000  Uiso   1.00
C547   C     0.50136   0.16514   0.75040   0.00000  Uiso   1.00
C548   C     0.49868   0.33523   0.74952   0.00000  Uiso   1.00
C549   C     0.51300   0.28830   0.55559   0.00000  Uiso   1.00
C550   C     0.47105   0.21872   0.94202   0.00000  Uiso   1.00
C551   C     0.51393   0.28714   0.60635   0.00000  Uiso   1.00
C552   C     0.47259   0.21875   0.89157   0.00000  Uiso   1.00
C553   C     0.48590   0.21303   0.60289   0.00000  Uiso   1.00
C554   C     0.52528   0.28240   0.89850   0.00000  Uiso   1.00
C555   C     0.48609   0.21232   0.55228   0.00000  Uiso   1.00
C556   C     0.52641   0.28268   0.94924   0.00000  Uiso   1.00
C557   C     0.49927   0.25044   0.52718   0.00000  Uiso   1.00
C558   C     0.49898   0.25056   0.97239   0.00000  Uiso   1.00
C559   C     0.40161   0.25640   0.73747   0.00000  Uiso   1.00
C560   C     0.59839   0.25672   0.76248   0.00000  Uiso   1.00
C561   C     0.34682   0.27007   0.73049   0.00000  Uiso   1.00
C562   C     0.65350   0.26984   0.76954   0.00000  Uiso   1.00
C563   C     0.53535   0.04737   0.78633   0.00000  Uiso   1.00
C564   C     0.49388   0.45447   0.70649   0.00000  Uiso   1.00
C565   C     0.53774   0.09332   0.78608   0.00000  Uiso   1.00
C566   C     0.49084   0.40872   0.70465   0.00000  Uiso   1.00
C567   C     0.50304   0.11716   0.75113   0.00000  Uiso   1.00
C568   C     0.49688   0.38382   0.74881   0.00000  Uiso   1.00
C569   C     0.46798   0.09462   0.71681   0.00000  Uiso   1.00
C570   C     0.50297   0.40621   0.79353   0.00000  Uiso   1.00
C571   C     0.46627   0.04888   0.71735   0.00000  Uiso   1.00
C572   C     0.50377   0.45205   0.79468   0.00000  Uiso   1.00
C573   C     0.50007   0.02492   0.75194   0.00000  Uiso   1.00
C574   C     0.49941   0.47646   0.75116   0.00000  Uiso   1.00
Cu575  Cu    0.50000   0.25000   0.79821   0.00000  Uiso   1.00
Cu576  Cu    0.50000   0.25001   0.70178   0.00000  Uiso   1.00
H577   H     0.56245   0.02917   0.81250   0.00000  Uiso   1.00
H578   H     0.49094   0.47292   0.67253   0.00000  Uiso   1.00
H579   H     0.44113   0.11253   0.69011   0.00000  Uiso   1.00
H580   H     0.50733   0.38833   0.82790   0.00000  Uiso   1.00
H581   H     0.43808   0.03224   0.69100   0.00000  Uiso   1.00
H582   H     0.50754   0.46842   0.82962   0.00000  Uiso   1.00
H583   H     0.52258   0.31914   0.53927   0.00000  Uiso   1.00
H584   H     0.44740   0.19404   0.95647   0.00000  Uiso   1.00
H585   H     0.52576   0.31635   0.62712   0.00000  Uiso   1.00
H586   H     0.45106   0.19402   0.86898   0.00000  Uiso   1.00
H587   H     0.47456   0.18354   0.62076   0.00000  Uiso   1.00
H588   H     0.54449   0.30852   0.88141   0.00000  Uiso   1.00
H589   H     0.47640   0.18163   0.53355   0.00000  Uiso   1.00
H590   H     0.54914   0.30801   0.96966   0.00000  Uiso   1.00
N591   N     0.50000   0.25001   0.62934   0.00000  Uiso   1.00
N592   N     0.50000   0.24999   0.87065   0.00000  Uiso   1.00
O593   O     0.50000   0.18573   0.79071   0.00000  Uiso   1.00
O594   O     0.50000   0.31428   0.70928   0.00000  Uiso   1.00
O595   O     0.50000   0.18573   0.70928   0.00000  Uiso   1.00
O596   O     0.50000   0.31427   0.79072   0.00000  Uiso   1.00
O597   O     0.42495   0.25000   0.78132   0.00000  Uiso   1.00
O598   O     0.57505   0.25001   0.71868   0.00000  Uiso   1.00
O599   O     0.42495   0.25000   0.69988   0.00000  Uiso   1.00
O600   O     0.57505   0.25000   0.80011   0.00000  Uiso   1.00
C601   C     0.65590   0.28657   0.67972   0.00000  Uiso   1.00
C602   C     0.35442   0.32343   0.65968   0.00000  Uiso   1.00
C603   C     0.65715   0.34581   0.61487   0.00000  Uiso   1.00
H604   H     0.64519   0.32117   0.58588   0.00000  Uiso   1.00
H605   H     0.62212   0.36220   0.62464   0.00000  Uiso   1.00
H606   H     0.34842   0.37122   0.60042   0.00000  Uiso   1.00
H607   H     0.36542   0.34869   0.68826   0.00000  Uiso   1.00
H608   H     0.39017   0.30984   0.64848   0.00000  Uiso   1.00
H609   H     0.65106   0.25847   0.65392   0.00000  Uiso   1.00
H610   H     0.61759   0.30175   0.68099   0.00000  Uiso   1.00
C611   C     0.34694   0.28267   0.82076   0.00000  Uiso   1.00
C612   C     0.64712   0.31006   0.85075   0.00000  Uiso   1.00
C613   C     0.34717   0.33655   0.89038   0.00000  Uiso   1.00
H614   H     0.37359   0.31424   0.91443   0.00000  Uiso   1.00
H615   H     0.37047   0.36158   0.87369   0.00000  Uiso   1.00
H616   H     0.65517   0.35386   0.91291   0.00000  Uiso   1.00
H617   H     0.62163   0.33313   0.82676   0.00000  Uiso   1.00
H618   H     0.62335   0.28717   0.86949   0.00000  Uiso   1.00
H619   H     0.36028   0.25236   0.84176   0.00000  Uiso   1.00
H620   H     0.38103   0.30377   0.81687   0.00000  Uiso   1.00
O621   O     0.57522   0.11308   0.81948   0.00000  Uiso   1.00
H622   H     0.58126   0.14362   0.80879   0.00000  Uiso   1.00
O623   O     0.48180   0.38995   0.65917   0.00000  Uiso   1.00
H624   H     0.45365   0.36812   0.65970   0.00000  Uiso   1.00
C625   C     0.83469   0.16514   0.75040   0.00000  Uiso   1.00
C626   C     0.83201   0.33523   0.74952   0.00000  Uiso   1.00
C627   C     0.84634   0.28830   0.55559   0.00000  Uiso   1.00
C628   C     0.80439   0.21872   0.94202   0.00000  Uiso   1.00
C629   C     0.84726   0.28714   0.60635   0.00000  Uiso   1.00
C630   C     0.80592   0.21875   0.89157   0.00000  Uiso   1.00
C631   C     0.81923   0.21303   0.60289   0.00000  Uiso   1.00
C632   C     0.85861   0.28240   0.89850   0.00000  Uiso   1.00
C633   C     0.81942   0.21232   0.55228   0.00000  Uiso   1.00
C634   C     0.85975   0.28268   0.94924   0.00000  Uiso   1.00
C635   C     0.83260   0.25044   0.52718   0.00000  Uiso   1.00
C636   C     0.83231   0.25056   0.97239   0.00000  Uiso   1.00
C637   C     0.73494   0.25640   0.73747   0.00000  Uiso   1.00
C638   C     0.93172   0.25672   0.76248   0.00000  Uiso   1.00
C639   C     0.68016   0.27007   0.73049   0.00000  Uiso   1.00
C640   C     0.98683   0.26984   0.76954   0.00000  Uiso   1.00
C641   C     0.86868   0.04737   0.78633   0.00000  Uiso   1.00
C642   C     0.82721   0.45447   0.70649   0.00000  Uiso   1.00
C643   C     0.87108   0.09332   0.78608   0.00000  Uiso   1.00
C644   C     0.82417   0.40872   0.70465   0.00000  Uiso   1.00
C645   C     0.83637   0.11716   0.75113   0.00000  Uiso   1.00
C646   C     0.83022   0.38382   0.74881   0.00000  Uiso   1.00
C647   C     0.80132   0.09462   0.71681   0.00000  Uiso   1.00
C648   C     0.83630   0.40621   0.79353   0.00000  Uiso   1.00
C649   C     0.79960   0.04888   0.71735   0.00000  Uiso   1.00
C650   C     0.83710   0.45205   0.79468   0.00000  Uiso   1.00
C651   C     0.83340   0.02492   0.75194   0.00000  Uiso   1.00
C652   C     0.83274   0.47646   0.75116   0.00000  Uiso   1.00
Cu653  Cu    0.83333   0.25000   0.79821   0.00000  Uiso   1.00
Cu654  Cu    0.83333   0.25001   0.70178   0.00000  Uiso   1.00
H655   H     0.89578   0.02917   0.81250   0.00000  Uiso   1.00
H656   H     0.82428   0.47292   0.67253   0.00000  Uiso   1.00
H657   H     0.77446   0.11253   0.69011   0.00000  Uiso   1.00
H658   H     0.84066   0.38833   0.82790   0.00000  Uiso   1.00
H659   H     0.77141   0.03224   0.69100   0.00000  Uiso   1.00
H660   H     0.84087   0.46842   0.82962   0.00000  Uiso   1.00
H661   H     0.85592   0.31914   0.53927   0.00000  Uiso   1.00
H662   H     0.78074   0.19404   0.95647   0.00000  Uiso   1.00
H663   H     0.85909   0.31635   0.62712   0.00000  Uiso   1.00
H664   H     0.78439   0.19402   0.86898   0.00000  Uiso   1.00
H665   H     0.80789   0.18354   0.62076   0.00000  Uiso   1.00
H666   H     0.87782   0.30852   0.88141   0.00000  Uiso   1.00
H667   H     0.80974   0.18163   0.53355   0.00000  Uiso   1.00
H668   H     0.88247   0.30801   0.96966   0.00000  Uiso   1.00
N669   N     0.83333   0.25001   0.62934   0.00000  Uiso   1.00
N670   N     0.83333   0.24999   0.87065   0.00000  Uiso   1.00
O671   O     0.83334   0.18573   0.79071   0.00000  Uiso   1.00
O672   O     0.83333   0.31428   0.70928   0.00000  Uiso   1.00
O673   O     0.83334   0.18573   0.70928   0.00000  Uiso   1.00
O674   O     0.83333   0.31427   0.79072   0.00000  Uiso   1.00
O675   O     0.75828   0.25000   0.78132   0.00000  Uiso   1.00
O676   O     0.90839   0.25001   0.71868   0.00000  Uiso   1.00
O677   O     0.75828   0.25000   0.69988   0.00000  Uiso   1.00
O678   O     0.90839   0.25000   0.80011   0.00000  Uiso   1.00
C679   C     0.98923   0.28657   0.67972   0.00000  Uiso   1.00
C680   C     0.68776   0.32343   0.65968   0.00000  Uiso   1.00
C681   C     0.99048   0.34581   0.61487   0.00000  Uiso   1.00
H682   H     0.97852   0.32117   0.58588   0.00000  Uiso   1.00
H683   H     0.95546   0.36220   0.62464   0.00000  Uiso   1.00
H684   H     0.68175   0.37122   0.60042   0.00000  Uiso   1.00
H685   H     0.69875   0.34869   0.68826   0.00000  Uiso   1.00
H686   H     0.72351   0.30984   0.64848   0.00000  Uiso   1.00
H687   H     0.98440   0.25847   0.65392   0.00000  Uiso   1.00
H688   H     0.95093   0.30175   0.68099   0.00000  Uiso   1.00
C689   C     0.68027   0.28267   0.82076   0.00000  Uiso   1.00
C690   C     0.98046   0.31006   0.85075   0.00000  Uiso   1.00
C691   C     0.68051   0.33655   0.89038   0.00000  Uiso   1.00
H692   H     0.70693   0.31424   0.91443   0.00000  Uiso   1.00
H693   H     0.70380   0.36158   0.87369   0.00000  Uiso   1.00
H694   H     0.98850   0.35386   0.91291   0.00000  Uiso   1.00
H695   H     0.95496   0.33313   0.82676   0.00000  Uiso   1.00
H696   H     0.95669   0.28717   0.86949   0.00000  Uiso   1.00
H697   H     0.69361   0.25236   0.84176   0.00000  Uiso   1.00
H698   H     0.71437   0.30377   0.81687   0.00000  Uiso   1.00
O699   O     0.90855   0.11308   0.81948   0.00000  Uiso   1.00
H700   H     0.91460   0.14362   0.80879   0.00000  Uiso   1.00
O701   O     0.81514   0.38995   0.65917   0.00000  Uiso   1.00
H702   H     0.78699   0.36812   0.65970   0.00000  Uiso   1.00
C703   C     0.16802   0.66514   0.75040   0.00000  Uiso   1.00
C704   C     0.16534   0.83523   0.74952   0.00000  Uiso   1.00
C705   C     0.17967   0.78830   0.55559   0.00000  Uiso   1.00
C706   C     0.13772   0.71872   0.94202   0.00000  Uiso   1.00
C707   C     0.18060   0.78714   0.60635   0.00000  Uiso   1.00
C708   C     0.13925   0.71875   0.89157   0.00000  Uiso   1.00
C709   C     0.15257   0.71303   0.60289   0.00000  Uiso   1.00
C710   C     0.19195   0.78240   0.89850   0.00000  Uiso   1.00
C711   C     0.15275   0.71232   0.55228   0.00000  Uiso   1.00
C712   C     0.19308   0.78268   0.94924   0.00000  Uiso   1.00
C713   C     0.16593   0.75044   0.52718   0.00000  Uiso   1.00
C714   C     0.16565   0.75056   0.97239   0.00000  Uiso   1.00
C715   C     0.06827   0.75640   0.73747   0.00000  Uiso   1.00
C716   C     0.26505   0.75672   0.76248   0.00000  Uiso   1.00
C717   C     0.01349   0.77007   0.73049   0.00000  Uiso   1.00
C718   C     0.32016   0.76984   0.76954   0.00000  Uiso   1.00
C719   C     0.20202   0.54737   0.78633   0.00000  Uiso   1.00
C720   C     0.16054   0.95447   0.70649   0.00000  Uiso   1.00
C721   C     0.20441   0.59332   0.78608   0.00000  Uiso   1.00
C722   C     0.15750   0.90872   0.70465   0.00000  Uiso   1.00
C723   C     0.16970   0.61716   0.75113   0.00000  Uiso   1.00
C724   C     0.16355   0.88382   0.74881   0.00000  Uiso   1.00
C725   C     0.13465   0.59462   0.71681   0.00000  Uiso   1.00
C726   C     0.16963   0.90621   0.79353   0.00000  Uiso   1.00
C727   C     0.13293   0.54888   0.71735   0.00000  Uiso   1.00
C728   C     0.17044   0.95205   0.79468   0.00000  Uiso   1.00
C729   C     0.16674   0.52492   0.75194   0.00000  Uiso   1.00
C730   C     0.16607   0.97646   0.75116   0.00000  Uiso   1.00
Cu731  Cu    0.16667   0.75000   0.79821   0.00000  Uiso   1.00
Cu732  Cu    0.16667   0.75001   0.70178   0.00000  Uiso   1.00
H733   H     0.22911   0.52917   0.81250   0.00000  Uiso   1.00
H734   H     0.15761   0.97292   0.67253   0.00000  Uiso   1.00
H735   H     0.10780   0.61253   0.69011   0.00000  Uiso   1.00
H736   H     0.17400   0.88833   0.82790   0.00000  Uiso   1.00
H737   H     0.10475   0.53224   0.69100   0.00000  Uiso   1.00
H738   H     0.17420   0.96842   0.82962   0.00000  Uiso   1.00
H739   H     0.18925   0.81914   0.53927   0.00000  Uiso   1.00
H740   H     0.11407   0.69404   0.95647   0.00000  Uiso   1.00
H741   H     0.19242   0.81635   0.62712   0.00000  Uiso   1.00
H742   H     0.11773   0.69402   0.86898   0.00000  Uiso   1.00
H743   H     0.14123   0.68354   0.62076   0.00000  Uiso   1.00
H744   H     0.21115   0.80852   0.88141   0.00000  Uiso   1.00
H745   H     0.14307   0.68163   0.53355   0.00000  Uiso   1.00
H746   H     0.21581   0.80801   0.96966   0.00000  Uiso   1.00
N747   N     0.16667   0.75001   0.62934   0.00000  Uiso   1.00
N748   N     0.16667   0.74999   0.87065   0.00000  Uiso   1.00
O749   O     0.16667   0.68573   0.79071   0.00000  Uiso   1.00
O750   O     0.16666   0.81428   0.70928   0.00000  Uiso   1.00
O751   O     0.16667   0.68573   0.70928   0.00000  Uiso   1.00
O752   O     0.16666   0.81427   0.79072   0.00000  Uiso   1.00
O753   O     0.09161   0.75000   0.78132   0.00000  Uiso   1.00
O754   O     0.24172   0.75001   0.71868   0.00000  Uiso   1.00
O755   O     0.09161   0.75000   0.69988   0.00000  Uiso   1.00
O756   O     0.24172   0.75000   0.80011   0.00000  Uiso   1.00
C757   C     0.32257   0.78657   0.67972   0.00000  Uiso   1.00
C758   C     0.02109   0.82343   0.65968   0.00000  Uiso   1.00
C759   C     0.32382   0.84581   0.61487   0.00000  Uiso   1.00
H760   H     0.31186   0.82117   0.58588   0.00000  Uiso   1.00
H761   H     0.28879   0.86220   0.62464   0.00000  Uiso   1.00
H762   H     0.01508   0.87122   0.60042   0.00000  Uiso   1.00
H763   H     0.03208   0.84869   0.68826   0.00000  Uiso   1.00
H764   H     0.05684   0.80984   0.64848   0.00000  Uiso   1.00
H765   H     0.31773   0.75847   0.65392   0.00000  Uiso   1.00
H766   H     0.28426   0.80175   0.68099   0.00000  Uiso   1.00
C767   C     0.01360   0.78267   0.82076   0.00000  Uiso   1.00
C768   C     0.31379   0.81006   0.85075   0.00000  Uiso   1.00
C769   C     0.01384   0.83655   0.89038   0.00000  Uiso   1.00
H770   H     0.04026   0.81424   0.91443   0.00000  Uiso   1.00
H771   H     0.03714   0.86158   0.87369   0.00000  Uiso   1.00
H772   H     0.32183   0.85386   0.91291   0.00000  Uiso   1.00
H773   H     0.28830   0.83313   0.82676   0.00000  Uiso   1.00
H774   H     0.29002   0.78717   0.86949   0.00000  Uiso   1.00
H775   H     0.02695   0.75236   0.84176   0.00000  Uiso   1.00
H776   H     0.04770   0.80377   0.81687   0.00000  Uiso   1.00
O777   O     0.24188   0.61308   0.81948   0.00000  Uiso   1.00
H778   H     0.24793   0.64362   0.80879   0.00000  Uiso   1.00
O779   O     0.14847   0.88995   0.65917   0.00000  Uiso   1.00
H780   H     0.12032   0.86812   0.65970   0.00000  Uiso   1.00
C781   C     0.50136   0.66514   0.75040   0.00000  Uiso   1.00
C782   C     0.49868   0.83523   0.74952   0.00000  Uiso   1.00
C783   C     0.51300   0.78830   0.55559   0.00000  Uiso   1.00
C784   C     0.47105   0.71872   0.94202   0.00000  Uiso   1.00
C785   C     0.51393   0.78714   0.60635   0.00000  Uiso   1.00
C786   C     0.47259   0.71875   0.89157   0.00000  Uiso   1.00
C787   C     0.48590   0.71303   0.60289   0.00000  Uiso   1.00
C788   C     0.52528   0.78240   0.89850   0.00000  Uiso   1.00
C789   C     0.48609   0.71232   0.55228   0.00000  Uiso   1.00
C790   C     0.52641   0.78268   0.94924   0.00000  Uiso   1.00
C791   C     0.49927   0.75044   0.52718   0.00000  Uiso   1.00
C792   C     0.49898   0.75056   0.97239   0.00000  Uiso   1.00
C793   C     0.40161   0.75640   0.73747   0.00000  Uiso   1.00
C794   C     0.59839   0.75672   0.76248   0.00000  Uiso   1.00
C795   C     0.34682   0.77007   0.73049   0.00000  Uiso   1.00
C796   C     0.65350   0.76984   0.76954   0.00000  Uiso   1.00
C797   C     0.53535   0.54737   0.78633   0.00000  Uiso   1.00
C798   C     0.49388   0.95447   0.70649   0.00000  Uiso   1.00
C799   C     0.53774   0.59332   0.78608   0.00000  Uiso   1.00
C800   C     0.49084   0.90872   0.70465   0.00000  Uiso   1.00
C801   C     0.50304   0.61716   0.75113   0.00000  Uiso   1.00
C802   C     0.49688   0.88382   0.74881   0.00000  Uiso   1.00
C803   C     0.46798   0.59462   0.71681   0.00000  Uiso   1.00
C804   C     0.50297   0.90621   0.79353   0.00000  Uiso   1.00
C805   C     0.46627   0.54888   0.71735   0.00000  Uiso   1.00
C806   C     0.50377   0.95205   0.79468   0.00000  Uiso   1.00
C807   C     0.50007   0.52492   0.75194   0.00000  Uiso   1.00
C808   C     0.49941   0.97646   0.75116   0.00000  Uiso   1.00
Cu809  Cu    0.50000   0.75000   0.79821   0.00000  Uiso   1.00
Cu810  Cu    0.50000   0.75001   0.70178   0.00000  Uiso   1.00
H811   H     0.56245   0.52917   0.81250   0.00000  Uiso   1.00
H812   H     0.49094   0.97292   0.67253   0.00000  Uiso   1.00
H813   H     0.44113   0.61253   0.69011   0.00000  Uiso   1.00
H814   H     0.50733   0.88833   0.82790   0.00000  Uiso   1.00
H815   H     0.43808   0.53224   0.69100   0.00000  Uiso   1.00
H816   H     0.50754   0.96842   0.82962   0.00000  Uiso   1.00
H817   H     0.52258   0.81914   0.53927   0.00000  Uiso   1.00
H818   H     0.44740   0.69404   0.95647   0.00000  Uiso   1.00
H819   H     0.52576   0.81635   0.62712   0.00000  Uiso   1.00
H820   H     0.45106   0.69402   0.86898   0.00000  Uiso   1.00
H821   H     0.47456   0.68354   0.62076   0.00000  Uiso   1.00
H822   H     0.54449   0.80852   0.88141   0.00000  Uiso   1.00
H823   H     0.47640   0.68163   0.53355   0.00000  Uiso   1.00
H824   H     0.54914   0.80801   0.96966   0.00000  Uiso   1.00
N825   N     0.50000   0.75001   0.62934   0.00000  Uiso   1.00
N826   N     0.50000   0.74999   0.87065   0.00000  Uiso   1.00
O827   O     0.50000   0.68573   0.79071   0.00000  Uiso   1.00
O828   O     0.50000   0.81428   0.70928   0.00000  Uiso   1.00
O829   O     0.50000   0.68573   0.70928   0.00000  Uiso   1.00
O830   O     0.50000   0.81427   0.79072   0.00000  Uiso   1.00
O831   O     0.42495   0.75000   0.78132   0.00000  Uiso   1.00
O832   O     0.57505   0.75001   0.71868   0.00000  Uiso   1.00
O833   O     0.42495   0.75000   0.69988   0.00000  Uiso   1.00
O834   O     0.57505   0.75000   0.80011   0.00000  Uiso   1.00
C835   C     0.65590   0.78657   0.67972   0.00000  Uiso   1.00
C836   C     0.35442   0.82343   0.65968   0.00000  Uiso   1.00
C837   C     0.65715   0.84581   0.61487   0.00000  Uiso   1.00
H838   H     0.64519   0.82117   0.58588   0.00000  Uiso   1.00
H839   H     0.62212   0.86220   0.62464   0.00000  Uiso   1.00
H840   H     0.34842   0.87122   0.60042   0.00000  Uiso   1.00
H841   H     0.36542   0.84869   0.68826   0.00000  Uiso   1.00
H842   H     0.39017   0.80984   0.64848   0.00000  Uiso   1.00
H843   H     0.65106   0.75847   0.65392   0.00000  Uiso   1.00
H844   H     0.61759   0.80175   0.68099   0.00000  Uiso   1.00
C845   C     0.34694   0.78267   0.82076   0.00000  Uiso   1.00
C846   C     0.64712   0.81006   0.85075   0.00000  Uiso   1.00
C847   C     0.34717   0.83655   0.89038   0.00000  Uiso   1.00
H848   H     0.37359   0.81424   0.91443   0.00000  Uiso   1.00
H849   H     0.37047   0.86158   0.87369   0.00000  Uiso   1.00
H850   H     0.65517   0.85386   0.91291   0.00000  Uiso   1.00
H851   H     0.62163   0.83313   0.82676   0.00000  Uiso   1.00
H852   H     0.62335   0.78717   0.86949   0.00000  Uiso   1.00
H853   H     0.36028   0.75236   0.84176   0.00000  Uiso   1.00
H854   H     0.38103   0.80377   0.81687   0.00000  Uiso   1.00
O855   O     0.57522   0.61308   0.81948   0.00000  Uiso   1.00
H856   H     0.58126   0.64362   0.80879   0.00000  Uiso   1.00
O857   O     0.48180   0.88995   0.65917   0.00000  Uiso   1.00
H858   H     0.45365   0.86812   0.65970   0.00000  Uiso   1.00
C859   C     0.83469   0.66514   0.75040   0.00000  Uiso   1.00
C860   C     0.83201   0.83523   0.74952   0.00000  Uiso   1.00
C861   C     0.84634   0.78830   0.55559   0.00000  Uiso   1.00
C862   C     0.80439   0.71872   0.94202   0.00000  Uiso   1.00
C863   C     0.84726   0.78714   0.60635   0.00000  Uiso   1.00
C864   C     0.80592   0.71875   0.89157   0.00000  Uiso   1.00
C865   C     0.81923   0.71303   0.60289   0.00000  Uiso   1.00
C866   C     0.85861   0.78240   0.89850   0.00000  Uiso   1.00
C867   C     0.81942   0.71232   0.55228   0.00000  Uiso   1.00
C868   C     0.85975   0.78268   0.94924   0.00000  Uiso   1.00
C869   C     0.83260   0.75044   0.52718   0.00000  Uiso   1.00
C870   C     0.83231   0.75056   0.97239   0.00000  Uiso   1.00
C871   C     0.73494   0.75640   0.73747   0.00000  Uiso   1.00
C872   C     0.93172   0.75672   0.76248   0.00000  Uiso   1.00
C873   C     0.68016   0.77007   0.73049   0.00000  Uiso   1.00
C874   C     0.98683   0.76984   0.76954   0.00000  Uiso   1.00
C875   C     0.86868   0.54737   0.78633   0.00000  Uiso   1.00
C876   C     0.82721   0.95447   0.70649   0.00000  Uiso   1.00
C877   C     0.87108   0.59332   0.78608   0.00000  Uiso   1.00
C878   C     0.82417   0.90872   0.70465   0.00000  Uiso   1.00
C879   C     0.83637   0.61716   0.75113   0.00000  Uiso   1.00
C880   C     0.83022   0.88382   0.74881   0.00000  Uiso   1.00
C881   C     0.80132   0.59462   0.71681   0.00000  Uiso   1.00
C882   C     0.83630   0.90621   0.79353   0.00000  Uiso   1.00
C883   C     0.79960   0.54888   0.71735   0.00000  Uiso   1.00
C884   C     0.83710   0.95205   0.79468   0.00000  Uiso   1.00
C885   C     0.83340   0.52492   0.75194   0.00000  Uiso   1.00
C886   C     0.83274   0.97646   0.75116   0.00000  Uiso   1.00
Cu887  Cu    0.83333   0.75000   0.79821   0.00000  Uiso   1.00
Cu888  Cu    0.83333   0.75001   0.70178   0.00000  Uiso   1.00
H889   H     0.89578   0.52917   0.81250   0.00000  Uiso   1.00
H890   H     0.82428   0.97292   0.67253   0.00000  Uiso   1.00
H891   H     0.77446   0.61253   0.69011   0.00000  Uiso   1.00
H892   H     0.84066   0.88833   0.82790   0.00000  Uiso   1.00
H893   H     0.77141   0.53224   0.69100   0.00000  Uiso   1.00
H894   H     0.84087   0.96842   0.82962   0.00000  Uiso   1.00
H895   H     0.85592   0.81914   0.53927   0.00000  Uiso   1.00
H896   H     0.78074   0.69404   0.95647   0.00000  Uiso   1.00
H897   H     0.85909   0.81635   0.62712   0.00000  Uiso   1.00
H898   H     0.78439   0.69402   0.86898   0.00000  Uiso   1.00
H899   H     0.80789   0.68354   0.62076   0.00000  Uiso   1.00
H900   H     0.87782   0.80852   0.88141   0.00000  Uiso   1.00
H901   H     0.80974   0.68163   0.53355   0.00000  Uiso   1.00
H902   H     0.88247   0.80801   0.96966   0.00000  Uiso   1.00
N903   N     0.83333   0.75001   0.62934   0.00000  Uiso   1.00
N904   N     0.83333   0.74999   0.87065   0.00000  Uiso   1.00
O905   O     0.83334   0.68573   0.79071   0.00000  Uiso   1.00
O906   O     0.83333   0.81428   0.70928   0.00000  Uiso   1.00
O907   O     0.83334   0.68573   0.70928   0.00000  Uiso   1.00
O908   O     0.83333   0.81427   0.79072   0.00000  Uiso   1.00
O909   O     0.75828   0.75000   0.78132   0.00000  Uiso   1.00
O910   O     0.90839   0.75001   0.71868   0.00000  Uiso   1.00
O911   O     0.75828   0.75000   0.69988   0.00000  Uiso   1.00
O912   O     0.90839   0.75000   0.80011   0.00000  Uiso   1.00
C913   C     0.98923   0.78657   0.67972   0.00000  Uiso   1.00
C914   C     0.68776   0.82343   0.65968   0.00000  Uiso   1.00
C915   C     0.99048   0.84581   0.61487   0.00000  Uiso   1.00
H916   H     0.97852   0.82117   0.58588   0.00000  Uiso   1.00
H917   H     0.95546   0.86220   0.62464   0.00000  Uiso   1.00
H918   H     0.68175   0.87122   0.60042   0.00000  Uiso   1.00
H919   H     0.69875   0.84869   0.68826   0.00000  Uiso   1.00
H920   H     0.72351   0.80984   0.64848   0.00000  Uiso   1.00
H921   H     0.98440   0.75847   0.65392   0.00000  Uiso   1.00
H922   H     0.95093   0.80175   0.68099   0.00000  Uiso   1.00
C923   C     0.68027   0.78267   0.82076   0.00000  Uiso   1.00
C924   C     0.98046   0.81006   0.85075   0.00000  Uiso   1.00
C925   C     0.68051   0.83655   0.89038   0.00000  Uiso   1.00
H926   H     0.70693   0.81424   0.91443   0.00000  Uiso   1.00
H927   H     0.70380   0.86158   0.87369   0.00000  Uiso   1.00
H928   H     0.98850   0.85386   0.91291   0.00000  Uiso   1.00
H929   H     0.95496   0.83313   0.82676   0.00000  Uiso   1.00
H930   H     0.95669   0.78717   0.86949   0.00000  Uiso   1.00
H931   H     0.69361   0.75236   0.84176   0.00000  Uiso   1.00
H932   H     0.71437   0.80377   0.81687   0.00000  Uiso   1.00
O933   O     0.90855   0.61308   0.81948   0.00000  Uiso   1.00
H934   H     0.91460   0.64362   0.80879   0.00000  Uiso   1.00
O935   O     0.81514   0.88995   0.65917   0.00000  Uiso   1.00
H936   H     0.78699   0.86812   0.65970   0.00000  Uiso   1.00
loop_
_geom_bond_atom_site_label_1
_geom_bond_atom_site_label_2
_geom_bond_distance
_geom_bond_site_symmetry_2
_ccdc_geom_bond_type
C1     C21     1.455   .     S
C1     O47     1.290   .     A
C1     O49     1.291   .     A
C2     O50     1.298   .     A
C2     C22     1.474   .     S
C2     O48     1.293   .     A
C3     C5      1.404   .     A
C3     C11     1.412   .     A
C3     H37     1.080   .     S
C4     C12     1.413   .     A
C4     C6      1.405   .     A
C4     H38     1.080   .     S
C5     N45     1.363   .     A
C5     H39     1.079   .     S
C6     H40     1.082   .     S
C6     N46     1.362   .     A
C7     N45     1.364   .     A
C7     C9      1.404   .     A
C7     H41     1.080   .     S
C8     H42     1.079   .     S
C8     N46     1.361   .     A
C8     C10     1.402   .     A
C9     H43     1.080   .     S
C9     C11     1.411   .     A
C10    H44     1.080   .     S
C10    C12     1.412   .     A
C11    C480    1.517   1_554 S
C12    C479    1.517   .     S
C13    O51     1.289   .     A
C13    O53     1.299   .     A
C13    C15     1.474   .     S
C14    O52     1.292   .     A
C14    O54     1.298   .     A
C14    C16     1.476   .     S
C15    C172    1.371   1_455 S
C15    C211    1.535   1_455 S
C16    C93     1.371   .     S
C16    C143    1.539   .     S
C17    C27     1.402   .     A
C17    H31     1.083   .     S
C17    C19     1.394   .     A
C18    C20     1.390   .     A
C18    C28     1.399   .     A
C18    H32     1.084   .     S
C19    C21     1.418   .     A
C19    O75     1.381   .     S
C20    O77     1.375   .     S
C20    C22     1.421   .     A
C21    C23     1.399   .     A
C22    C24     1.406   .     A
C23    H33     1.084   .     S
C23    C25     1.387   .     A
C24    C26     1.390   .     A
C24    H34     1.083   .     S
C25    H35     1.083   .     S
C25    C27     1.402   .     A
C26    H36     1.083   .     S
C26    C28     1.400   .     A
C27    C262    1.469   1_545 S
C28    C261    1.469   .     S
Cu29   O47     1.961   .     S
Cu29   O54     1.952   .     S
Cu29   O50     1.957   .     S
Cu29   Cu30    2.673   .     S
Cu29   O51     1.945   .     S
Cu29   N46     2.008   .     S
Cu30   N45     2.008   .     S
Cu30   O48     1.961   .     S
Cu30   O53     1.952   .     S
Cu30   O49     1.957   .     S
Cu30   O52     1.945   .     S
C55    H63     1.111   .     S
C55    H64     1.107   .     S
C55    C93     1.535   .     S
C55    C134    1.539   .     S
C56    H62     1.108   .     S
C56    H61     1.112   .     S
C56    C211    1.539   1_455 S
C56    C213    1.528   1_455 S
C57    H59     1.111   .     S
C57    H58     1.111   .     S
C57    C134    1.528   .     S
C57    H138    1.111   .     S
H60    C213    1.111   1_455 S
C65    H73     1.112   .     S
C65    H74     1.112   .     S
C65    C172    1.539   1_455 S
C65    C222    1.536   1_455 S
C66    H72     1.106   .     S
C66    H71     1.112   .     S
C66    C143    1.536   .     S
C66    C145    1.528   .     S
C67    H68     1.111   .     S
C67    H69     1.111   .     S
C67    C222    1.528   1_455 S
C67    H226    1.111   1_455 S
H70    C145    1.111   .     S
O75    H76     0.989   .     S
O77    H78     0.989   .     S
C79    C99     1.455   .     S
C79    O125    1.290   .     A
C79    O127    1.291   .     A
C80    O128    1.298   .     A
C80    C100    1.474   .     S
C80    O126    1.293   .     A
C81    C83     1.404   .     A
C81    C89     1.412   .     A
C81    H115    1.080   .     S
C82    C90     1.413   .     A
C82    C84     1.405   .     A
C82    H116    1.080   .     S
C83    N123    1.363   .     A
C83    H117    1.079   .     S
C84    H118    1.082   .     S
C84    N124    1.362   .     A
C85    N123    1.364   .     A
C85    C87     1.404   .     A
C85    H119    1.080   .     S
C86    H120    1.079   .     S
C86    N124    1.361   .     A
C86    C88     1.402   .     A
C87    H121    1.080   .     S
C87    C89     1.411   .     A
C88    H122    1.080   .     S
C88    C90     1.412   .     A
C89    C558    1.517   1_554 S
C90    C557    1.517   .     S
C91    O129    1.289   .     A
C91    O131    1.299   .     A
C91    C93     1.474   .     S
C92    O130    1.292   .     A
C92    O132    1.298   .     A
C92    C94     1.476   .     S
C94    C171    1.371   .     S
C94    C221    1.539   .     S
C95    C105    1.402   .     A
C95    H109    1.083   .     S
C95    C97     1.394   .     A
C96    C98     1.390   .     A
C96    C106    1.399   .     A
C96    H110    1.084   .     S
C97    C99     1.418   .     A
C97    O153    1.381   .     S
C98    O155    1.375   .     S
C98    C100    1.421   .     A
C99    C101    1.399   .     A
C100   C102    1.406   .     A
C101   H111    1.084   .     S
C101   C103    1.387   .     A
C102   C104    1.390   .     A
C102   H112    1.083   .     S
C103   H113    1.083   .     S
C103   C105    1.402   .     A
C104   H114    1.083   .     S
C104   C106    1.400   .     A
C105   C340    1.469   1_545 S
C106   C339    1.469   .     S
Cu107  O125    1.961   .     S
Cu107  O132    1.952   .     S
Cu107  O128    1.957   .     S
Cu107  Cu108   2.673   .     S
Cu107  O129    1.945   .     S
Cu107  N124    2.008   .     S
Cu108  N123    2.008   .     S
Cu108  O126    1.961   .     S
Cu108  O131    1.952   .     S
Cu108  O127    1.957   .     S
Cu108  O130    1.945   .     S
C133   H141    1.111   .     S
C133   H142    1.107   .     S
C133   C171    1.535   .     S
C133   C212    1.539   .     S
C134   H140    1.108   .     S
C134   H139    1.112   .     S
C135   H137    1.111   .     S
C135   H136    1.111   .     S
C135   C212    1.528   .     S
C135   H216    1.111   .     S
C143   H151    1.112   .     S
C143   H152    1.112   .     S
C144   H150    1.106   .     S
C144   H149    1.112   .     S
C144   C221    1.536   .     S
C144   C223    1.528   .     S
C145   H146    1.111   .     S
C145   H147    1.111   .     S
H148   C223    1.111   .     S
O153   H154    0.989   .     S
O155   H156    0.989   .     S
C157   C177    1.455   .     S
C157   O203    1.290   .     A
C157   O205    1.291   .     A
C158   O206    1.298   .     A
C158   C178    1.474   .     S
C158   O204    1.293   .     A
C159   C161    1.404   .     A
C159   C167    1.412   .     A
C159   H193    1.080   .     S
C160   C168    1.413   .     A
C160   C162    1.405   .     A
C160   H194    1.080   .     S
C161   N201    1.363   .     A
C161   H195    1.079   .     S
C162   H196    1.082   .     S
C162   N202    1.362   .     A
C163   N201    1.364   .     A
C163   C165    1.404   .     A
C163   H197    1.080   .     S
C164   H198    1.079   .     S
C164   N202    1.361   .     A
C164   C166    1.402   .     A
C165   H199    1.080   .     S
C165   C167    1.411   .     A
C166   H200    1.080   .     S
C166   C168    1.412   .     A
C167   C636    1.517   1_554 S
C168   C635    1.517   .     S
C169   O207    1.289   .     A
C169   O209    1.299   .     A
C169   C171    1.474   .     S
C170   O208    1.292   .     A
C170   O210    1.298   .     A
C170   C172    1.476   .     S
C172   C15     1.371   1_655 S
C172   C65     1.539   1_655 S
C173   C183    1.402   .     A
C173   H187    1.083   .     S
C173   C175    1.394   .     A
C174   C176    1.390   .     A
C174   C184    1.399   .     A
C174   H188    1.084   .     S
C175   C177    1.418   .     A
C175   O231    1.381   .     S
C176   O233    1.375   .     S
C176   C178    1.421   .     A
C177   C179    1.399   .     A
C178   C180    1.406   .     A
C179   H189    1.084   .     S
C179   C181    1.387   .     A
C180   C182    1.390   .     A
C180   H190    1.083   .     S
C181   H191    1.083   .     S
C181   C183    1.402   .     A
C182   H192    1.083   .     S
C182   C184    1.400   .     A
C183   C418    1.469   1_545 S
C184   C417    1.469   .     S
Cu185  O203    1.961   .     S
Cu185  O210    1.952   .     S
Cu185  O206    1.957   .     S
Cu185  Cu186   2.673   .     S
Cu185  O207    1.945   .     S
Cu185  N202    2.008   .     S
Cu186  N201    2.008   .     S
Cu186  O204    1.961   .     S
Cu186  O209    1.952   .     S
Cu186  O205    1.957   .     S
Cu186  O208    1.945   .     S
C211   H219    1.111   .     S
C211   H220    1.107   .     S
C211   C15     1.535   1_655 S
C211   C56     1.539   1_655 S
C212   H218    1.108   .     S
C212   H217    1.112   .     S
C213   H215    1.111   .     S
C213   H214    1.111   .     S
C213   C56     1.528   1_655 S
C213   H60     1.111   1_655 S
C221   H229    1.112   .     S
C221   H230    1.112   .     S
C222   H228    1.106   .     S
C222   H227    1.112   .     S
C222   C65     1.536   1_655 S
C222   C67     1.528   1_655 S
C223   H224    1.111   .     S
C223   H225    1.111   .     S
H226   C67     1.111   1_655 S
O231   H232    0.989   .     S
O233   H234    0.989   .     S
C235   C255    1.455   .     S
C235   O281    1.290   .     A
C235   O283    1.291   .     A
C236   O284    1.298   .     A
C236   C256    1.474   .     S
C236   O282    1.293   .     A
C237   C239    1.404   .     A
C237   C245    1.412   .     A
C237   H271    1.080   .     S
C238   C246    1.413   .     A
C238   C240    1.405   .     A
C238   H272    1.080   .     S
C239   N279    1.363   .     A
C239   H273    1.079   .     S
C240   H274    1.082   .     S
C240   N280    1.362   .     A
C241   N279    1.364   .     A
C241   C243    1.404   .     A
C241   H275    1.080   .     S
C242   H276    1.079   .     S
C242   N280    1.361   .     A
C242   C244    1.402   .     A
C243   H277    1.080   .     S
C243   C245    1.411   .     A
C244   H278    1.080   .     S
C244   C246    1.412   .     A
C245   C714    1.517   1_554 S
C246   C713    1.517   .     S
C247   O285    1.289   .     A
C247   O287    1.299   .     A
C247   C249    1.474   .     S
C248   O286    1.292   .     A
C248   O288    1.298   .     A
C248   C250    1.476   .     S
C249   C406    1.371   1_455 S
C249   C445    1.535   1_455 S
C250   C327    1.371   .     S
C250   C377    1.539   .     S
C251   C261    1.402   .     A
C251   H265    1.083   .     S
C251   C253    1.394   .     A
C252   C254    1.390   .     A
C252   C262    1.399   .     A
C252   H266    1.084   .     S
C253   C255    1.418   .     A
C253   O309    1.381   .     S
C254   O311    1.375   .     S
C254   C256    1.421   .     A
C255   C257    1.399   .     A
C256   C258    1.406   .     A
C257   H267    1.084   .     S
C257   C259    1.387   .     A
C258   C260    1.390   .     A
C258   H268    1.083   .     S
C259   H269    1.083   .     S
C259   C261    1.402   .     A
C260   H270    1.083   .     S
C260   C262    1.400   .     A
C262   C27     1.469   1_565 S
Cu263  O281    1.961   .     S
Cu263  O288    1.952   .     S
Cu263  O284    1.957   .     S
Cu263  Cu264   2.673   .     S
Cu263  O285    1.945   .     S
Cu263  N280    2.008   .     S
Cu264  N279    2.008   .     S
Cu264  O282    1.961   .     S
Cu264  O287    1.952   .     S
Cu264  O283    1.957   .     S
Cu264  O286    1.945   .     S
C289   H297    1.111   .     S
C289   H298    1.107   .     S
C289   C327    1.535   .     S
C289   C368    1.539   .     S
C290   H296    1.108   .     S
C290   H295    1.112   .     S
C290   C445    1.539   1_455 S
C290   C447    1.528   1_455 S
C291   H293    1.111   .     S
C291   H292    1.111   .     S
C291   C368    1.528   .     S
C291   H372    1.111   .     S
H294   C447    1.111   1_455 S
C299   H307    1.112   .     S
C299   H308    1.112   .     S
C299   C406    1.539   1_455 S
C299   C456    1.536   1_455 S
C300   H306    1.106   .     S
C300   H305    1.112   .     S
C300   C377    1.536   .     S
C300   C379    1.528   .     S
C301   H302    1.111   .     S
C301   H303    1.111   .     S
C301   C456    1.528   1_455 S
C301   H460    1.111   1_455 S
H304   C379    1.111   .     S
O309   H310    0.989   .     S
O311   H312    0.989   .     S
C313   C333    1.455   .     S
C313   O359    1.290   .     A
C313   O361    1.291   .     A
C314   O362    1.298   .     A
C314   C334    1.474   .     S
C314   O360    1.293   .     A
C315   C317    1.404   .     A
C315   C323    1.412   .     A
C315   H349    1.080   .     S
C316   C324    1.413   .     A
C316   C318    1.405   .     A
C316   H350    1.080   .     S
C317   N357    1.363   .     A
C317   H351    1.079   .     S
C318   H352    1.082   .     S
C318   N358    1.362   .     A
C319   N357    1.364   .     A
C319   C321    1.404   .     A
C319   H353    1.080   .     S
C320   H354    1.079   .     S
C320   N358    1.361   .     A
C320   C322    1.402   .     A
C321   H355    1.080   .     S
C321   C323    1.411   .     A
C322   H356    1.080   .     S
C322   C324    1.412   .     A
C323   C792    1.517   1_554 S
C324   C791    1.517   .     S
C325   O363    1.289   .     A
C325   O365    1.299   .     A
C325   C327    1.474   .     S
C326   O364    1.292   .     A
C326   O366    1.298   .     A
C326   C328    1.476   .     S
C328   C405    1.371   .     S
C328   C455    1.539   .     S
C329   C339    1.402   .     A
C329   H343    1.083   .     S
C329   C331    1.394   .     A
C330   C332    1.390   .     A
C330   C340    1.399   .     A
C330   H344    1.084   .     S
C331   C333    1.418   .     A
C331   O387    1.381   .     S
C332   O389    1.375   .     S
C332   C334    1.421   .     A
C333   C335    1.399   .     A
C334   C336    1.406   .     A
C335   H345    1.084   .     S
C335   C337    1.387   .     A
C336   C338    1.390   .     A
C336   H346    1.083   .     S
C337   H347    1.083   .     S
C337   C339    1.402   .     A
C338   H348    1.083   .     S
C338   C340    1.400   .     A
C340   C105    1.469   1_565 S
Cu341  O359    1.961   .     S
Cu341  O366    1.952   .     S
Cu341  O362    1.957   .     S
Cu341  Cu342   2.673   .     S
Cu341  O363    1.945   .     S
Cu341  N358    2.008   .     S
Cu342  N357    2.008   .     S
Cu342  O360    1.961   .     S
Cu342  O365    1.952   .     S
Cu342  O361    1.957   .     S
Cu342  O364    1.945   .     S
C367   H375    1.111   .     S
C367   H376    1.107   .     S
C367   C405    1.535   .     S
C367   C446    1.539   .     S
C368   H374    1.108   .     S
C368   H373    1.112   .     S
C369   H371    1.111   .     S
C369   H370    1.111   .     S
C369   C446    1.528   .     S
C369   H450    1.111   .     S
C377   H385    1.112   .     S
C377   H386    1.112   .     S
C378   H384    1.106   .     S
C378   H383    1.112   .     S
C378   C455    1.536   .     S
C378   C457    1.528   .     S
C379   H380    1.111   .     S
C379   H381    1.111   .     S
H382   C457    1.111   .     S
O387   H388    0.989   .     S
O389   H390    0.989   .     S
C391   C411    1.455   .     S
C391   O437    1.290   .     A
C391   O439    1.291   .     A
C392   O440    1.298   .     A
C392   C412    1.474   .     S
C392   O438    1.293   .     A
C393   C395    1.404   .     A
C393   C401    1.412   .     A
C393   H427    1.080   .     S
C394   C402    1.413   .     A
C394   C396    1.405   .     A
C394   H428    1.080   .     S
C395   N435    1.363   .     A
C395   H429    1.079   .     S
C396   H430    1.082   .     S
C396   N436    1.362   .     A
C397   N435    1.364   .     A
C397   C399    1.404   .     A
C397   H431    1.080   .     S
C398   H432    1.079   .     S
C398   N436    1.361   .     A
C398   C400    1.402   .     A
C399   H433    1.080   .     S
C399   C401    1.411   .     A
C400   H434    1.080   .     S
C400   C402    1.412   .     A
C401   C870    1.517   1_554 S
C402   C869    1.517   .     S
C403   O441    1.289   .     A
C403   O443    1.299   .     A
C403   C405    1.474   .     S
C404   O442    1.292   .     A
C404   O444    1.298   .     A
C404   C406    1.476   .     S
C406   C249    1.371   1_655 S
C406   C299    1.539   1_655 S
C407   C417    1.402   .     A
C407   H421    1.083   .     S
C407   C409    1.394   .     A
C408   C410    1.390   .     A
C408   C418    1.399   .     A
C408   H422    1.084   .     S
C409   C411    1.418   .     A
C409   O465    1.381   .     S
C410   O467    1.375   .     S
C410   C412    1.421   .     A
C411   C413    1.399   .     A
C412   C414    1.406   .     A
C413   H423    1.084   .     S
C413   C415    1.387   .     A
C414   C416    1.390   .     A
C414   H424    1.083   .     S
C415   H425    1.083   .     S
C415   C417    1.402   .     A
C416   H426    1.083   .     S
C416   C418    1.400   .     A
C418   C183    1.469   1_565 S
Cu419  O437    1.961   .     S
Cu419  O444    1.952   .     S
Cu419  O440    1.957   .     S
Cu419  Cu420   2.673   .     S
Cu419  O441    1.945   .     S
Cu419  N436    2.008   .     S
Cu420  N435    2.008   .     S
Cu420  O438    1.961   .     S
Cu420  O443    1.952   .     S
Cu420  O439    1.957   .     S
Cu420  O442    1.945   .     S
C445   H453    1.111   .     S
C445   H454    1.107   .     S
C445   C249    1.535   1_655 S
C445   C290    1.539   1_655 S
C446   H452    1.108   .     S
C446   H451    1.112   .     S
C447   H449    1.111   .     S
C447   H448    1.111   .     S
C447   C290    1.528   1_655 S
C447   H294    1.111   1_655 S
C455   H463    1.112   .     S
C455   H464    1.112   .     S
C456   H462    1.106   .     S
C456   H461    1.112   .     S
C456   C299    1.536   1_655 S
C456   C301    1.528   1_655 S
C457   H458    1.111   .     S
C457   H459    1.111   .     S
H460   C301    1.111   1_655 S
O465   H466    0.989   .     S
O467   H468    0.989   .     S
C469   C489    1.455   .     S
C469   O515    1.290   .     A
C469   O517    1.291   .     A
C470   O518    1.298   .     A
C470   C490    1.474   .     S
C470   O516    1.293   .     A
C471   C473    1.404   .     A
C471   C479    1.412   .     A
C471   H505    1.080   .     S
C472   C480    1.413   .     A
C472   C474    1.405   .     A
C472   H506    1.080   .     S
C473   N513    1.363   .     A
C473   H507    1.079   .     S
C474   H508    1.082   .     S
C474   N514    1.362   .     A
C475   N513    1.364   .     A
C475   C477    1.404   .     A
C475   H509    1.080   .     S
C476   H510    1.079   .     S
C476   N514    1.361   .     A
C476   C478    1.402   .     A
C477   H511    1.080   .     S
C477   C479    1.411   .     A
C478   H512    1.080   .     S
C478   C480    1.412   .     A
C480   C11     1.517   1_556 S
C481   O519    1.289   .     A
C481   O521    1.299   .     A
C481   C483    1.474   .     S
C482   O520    1.292   .     A
C482   O522    1.298   .     A
C482   C484    1.476   .     S
C483   C640    1.371   1_455 S
C483   C679    1.535   1_455 S
C484   C561    1.371   .     S
C484   C611    1.539   .     S
C485   C495    1.402   .     A
C485   H499    1.083   .     S
C485   C487    1.394   .     A
C486   C488    1.390   .     A
C486   C496    1.399   .     A
C486   H500    1.084   .     S
C487   C489    1.418   .     A
C487   O543    1.381   .     S
C488   O545    1.375   .     S
C488   C490    1.421   .     A
C489   C491    1.399   .     A
C490   C492    1.406   .     A
C491   H501    1.084   .     S
C491   C493    1.387   .     A
C492   C494    1.390   .     A
C492   H502    1.083   .     S
C493   H503    1.083   .     S
C493   C495    1.402   .     A
C494   H504    1.083   .     S
C494   C496    1.400   .     A
C495   C730    1.469   1_545 S
C496   C729    1.469   .     S
Cu497  O515    1.961   .     S
Cu497  O522    1.952   .     S
Cu497  O518    1.957   .     S
Cu497  Cu498   2.673   .     S
Cu497  O519    1.945   .     S
Cu497  N514    2.008   .     S
Cu498  N513    2.008   .     S
Cu498  O516    1.961   .     S
Cu498  O521    1.952   .     S
Cu498  O517    1.957   .     S
Cu498  O520    1.945   .     S
C523   H531    1.111   .     S
C523   H532    1.107   .     S
C523   C561    1.535   .     S
C523   C602    1.539   .     S
C524   H530    1.108   .     S
C524   H529    1.112   .     S
C524   C679    1.539   1_455 S
C524   C681    1.528   1_455 S
C525   H527    1.111   .     S
C525   H526    1.111   .     S
C525   C602    1.528   .     S
C525   H606    1.111   .     S
H528   C681    1.111   1_455 S
C533   H541    1.112   .     S
C533   H542    1.112   .     S
C533   C640    1.539   1_455 S
C533   C690    1.536   1_455 S
C534   H540    1.106   .     S
C534   H539    1.112   .     S
C534   C611    1.536   .     S
C534   C613    1.528   .     S
C535   H536    1.111   .     S
C535   H537    1.111   .     S
C535   C690    1.528   1_455 S
C535   H694    1.111   1_455 S
H538   C613    1.111   .     S
O543   H544    0.989   .     S
O545   H546    0.989   .     S
C547   C567    1.455   .     S
C547   O593    1.290   .     A
C547   O595    1.291   .     A
C548   O596    1.298   .     A
C548   C568    1.474   .     S
C548   O594    1.293   .     A
C549   C551    1.404   .     A
C549   C557    1.412   .     A
C549   H583    1.080   .     S
C550   C558    1.413   .     A
C550   C552    1.405   .     A
C550   H584    1.080   .     S
C551   N591    1.363   .     A
C551   H585    1.079   .     S
C552   H586    1.082   .     S
C552   N592    1.362   .     A
C553   N591    1.364   .     A
C553   C555    1.404   .     A
C553   H587    1.080   .     S
C554   H588    1.079   .     S
C554   N592    1.361   .     A
C554   C556    1.402   .     A
C555   H589    1.080   .     S
C555   C557    1.411   .     A
C556   H590    1.080   .     S
C556   C558    1.412   .     A
C558   C89     1.517   1_556 S
C559   O597    1.289   .     A
C559   O599    1.299   .     A
C559   C561    1.474   .     S
C560   O598    1.292   .     A
C560   O600    1.298   .     A
C560   C562    1.476   .     S
C562   C639    1.371   .     S
C562   C689    1.539   .     S
C563   C573    1.402   .     A
C563   H577    1.083   .     S
C563   C565    1.394   .     A
C564   C566    1.390   .     A
C564   C574    1.399   .     A
C564   H578    1.084   .     S
C565   C567    1.418   .     A
C565   O621    1.381   .     S
C566   O623    1.375   .     S
C566   C568    1.421   .     A
C567   C569    1.399   .     A
C568   C570    1.406   .     A
C569   H579    1.084   .     S
C569   C571    1.387   .     A
C570   C572    1.390   .     A
C570   H580    1.083   .     S
C571   H581    1.083   .     S
C571   C573    1.402   .     A
C572   H582    1.083   .     S
C572   C574    1.400   .     A
C573   C808    1.469   1_545 S
C574   C807    1.469   .     S
Cu575  O593    1.961   .     S
Cu575  O600    1.952   .     S
Cu575  O596    1.957   .     S
Cu575  Cu576   2.673   .     S
Cu575  O597    1.945   .     S
Cu575  N592    2.008   .     S
Cu576  N591    2.008   .     S
Cu576  O594    1.961   .     S
Cu576  O599    1.952   .     S
Cu576  O595    1.957   .     S
Cu576  O598    1.945   .     S
C601   H609    1.111   .     S
C601   H610    1.107   .     S
C601   C639    1.535   .     S
C601   C680    1.539   .     S
C602   H608    1.108   .     S
C602   H607    1.112   .     S
C603   H605    1.111   .     S
C603   H604    1.111   .     S
C603   C680    1.528   .     S
C603   H684    1.111   .     S
C611   H619    1.112   .     S
C611   H620    1.112   .     S
C612   H618    1.106   .     S
C612   H617    1.112   .     S
C612   C689    1.536   .     S
C612   C691    1.528   .     S
C613   H614    1.111   .     S
C613   H615    1.111   .     S
H616   C691    1.111   .     S
O621   H622    0.989   .     S
O623   H624    0.989   .     S
C625   C645    1.455   .     S
C625   O671    1.290   .     A
C625   O673    1.291   .     A
C626   O674    1.298   .     A
C626   C646    1.474   .     S
C626   O672    1.293   .     A
C627   C629    1.404   .     A
C627   C635    1.412   .     A
C627   H661    1.080   .     S
C628   C636    1.413   .     A
C628   C630    1.405   .     A
C628   H662    1.080   .     S
C629   N669    1.363   .     A
C629   H663    1.079   .     S
C630   H664    1.082   .     S
C630   N670    1.362   .     A
C631   N669    1.364   .     A
C631   C633    1.404   .     A
C631   H665    1.080   .     S
C632   H666    1.079   .     S
C632   N670    1.361   .     A
C632   C634    1.402   .     A
C633   H667    1.080   .     S
C633   C635    1.411   .     A
C634   H668    1.080   .     S
C634   C636    1.412   .     A
C636   C167    1.517   1_556 S
C637   O675    1.289   .     A
C637   O677    1.299   .     A
C637   C639    1.474   .     S
C638   O676    1.292   .     A
C638   O678    1.298   .     A
C638   C640    1.476   .     S
C640   C483    1.371   1_655 S
C640   C533    1.539   1_655 S
C641   C651    1.402   .     A
C641   H655    1.083   .     S
C641   C643    1.394   .     A
C642   C644    1.390   .     A
C642   C652    1.399   .     A
C642   H656    1.084   .     S
C643   C645    1.418   .     A
C643   O699    1.381   .     S
C644   O701    1.375   .     S
C644   C646    1.421   .     A
C645   C647    1.399   .     A
C646   C648    1.406   .     A
C647   H657    1.084   .     S
C647   C649    1.387   .     A
C648   C650    1.390   .     A
C648   H658    1.083   .     S
C649   H659    1.083   .     S
C649   C651    1.402   .     A
C650   H660    1.083   .     S
C650   C652    1.400   .     A
C651   C886    1.469   1_545 S
C652   C885    1.469   .     S
Cu653  O671    1.961   .     S
Cu653  O678    1.952   .     S
Cu653  O674    1.957   .     S
Cu653  Cu654   2.673   .     S
Cu653  O675    1.945   .     S
Cu653  N670    2.008   .     S
Cu654  N669    2.008   .     S
Cu654  O672    1.961   .     S
Cu654  O677    1.952   .     S
Cu654  O673    1.957   .     S
Cu654  O676    1.945   .     S
C679   H687    1.111   .     S
C679   H688    1.107   .     S
C679   C483    1.535   1_655 S
C679   C524    1.539   1_655 S
C680   H686    1.108   .     S
C680   H685    1.112   .     S
C681   H683    1.111   .     S
C681   H682    1.111   .     S
C681   C524    1.528   1_655 S
C681   H528    1.111   1_655 S
C689   H697    1.112   .     S
C689   H698    1.112   .     S
C690   H696    1.106   .     S
C690   H695    1.112   .     S
C690   C533    1.536   1_655 S
C690   C535    1.528   1_655 S
C691   H692    1.111   .     S
C691   H693    1.111   .     S
H694   C535    1.111   1_655 S
O699   H700    0.989   .     S
O701   H702    0.989   .     S
C703   C723    1.455   .     S
C703   O749    1.290   .     A
C703   O751    1.291   .     A
C704   O752    1.298   .     A
C704   C724    1.474   .     S
C704   O750    1.293   .     A
C705   C707    1.404   .     A
C705   C713    1.412   .     A
C705   H739    1.080   .     S
C706   C714    1.413   .     A
C706   C708    1.405   .     A
C706   H740    1.080   .     S
C707   N747    1.363   .     A
C707   H741    1.079   .     S
C708   H742    1.082   .     S
C708   N748    1.362   .     A
C709   N747    1.364   .     A
C709   C711    1.404   .     A
C709   H743    1.080   .     S
C710   H744    1.079   .     S
C710   N748    1.361   .     A
C710   C712    1.402   .     A
C711   H745    1.080   .     S
C711   C713    1.411   .     A
C712   H746    1.080   .     S
C712   C714    1.412   .     A
C714   C245    1.517   1_556 S
C715   O753    1.289   .     A
C715   O755    1.299   .     A
C715   C717    1.474   .     S
C716   O754    1.292   .     A
C716   O756    1.298   .     A
C716   C718    1.476   .     S
C717   C874    1.371   1_455 S
C717   C913    1.535   1_455 S
C718   C795    1.371   .     S
C718   C845    1.539   .     S
C719   C729    1.402   .     A
C719   H733    1.083   .     S
C719   C721    1.394   .     A
C720   C722    1.390   .     A
C720   C730    1.399   .     A
C720   H734    1.084   .     S
C721   C723    1.418   .     A
C721   O777    1.381   .     S
C722   O779    1.375   .     S
C722   C724    1.421   .     A
C723   C725    1.399   .     A
C724   C726    1.406   .     A
C725   H735    1.084   .     S
C725   C727    1.387   .     A
C726   C728    1.390   .     A
C726   H736    1.083   .     S
C727   H737    1.083   .     S
C727   C729    1.402   .     A
C728   H738    1.083   .     S
C728   C730    1.400   .     A
C730   C495    1.469   1_565 S
Cu731  O749    1.961   .     S
Cu731  O756    1.952   .     S
Cu731  O752    1.957   .     S
Cu731  Cu732   2.673   .     S
Cu731  O753    1.945   .     S
Cu731  N748    2.008   .     S
Cu732  N747    2.008   .     S
Cu732  O750    1.961   .     S
Cu732  O755    1.952   .     S
Cu732  O751    1.957   .     S
Cu732  O754    1.945   .     S
C757   H765    1.111   .     S
C757   H766    1.107   .     S
C757   C795    1.535   .     S
C757   C836    1.539   .     S
C758   H764    1.108   .     S
C758   H763    1.112   .     S
C758   C913    1.539   1_455 S
C758   C915    1.528   1_455 S
C759   H761    1.111   .     S
C759   H760    1.111   .     S
C759   C836    1.528   .     S
C759   H840    1.111   .     S
H762   C915    1.111   1_455 S
C767   H775    1.112   .     S
C767   H776    1.112   .     S
C767   C874    1.539   1_455 S
C767   C924    1.536   1_455 S
C768   H774    1.106   .     S
C768   H773    1.112   .     S
C768   C845    1.536   .     S
C768   C847    1.528   .     S
C769   H770    1.111   .     S
C769   H771    1.111   .     S
C769   C924    1.528   1_455 S
C769   H928    1.111   1_455 S
H772   C847    1.111   .     S
O777   H778    0.989   .     S
O779   H780    0.989   .     S
C781   C801    1.455   .     S
C781   O827    1.290   .     A
C781   O829    1.291   .     A
C782   O830    1.298   .     A
C782   C802    1.474   .     S
C782   O828    1.293   .     A
C783   C785    1.404   .     A
C783   C791    1.412   .     A
C783   H817    1.080   .     S
C784   C792    1.413   .     A
C784   C786    1.405   .     A
C784   H818    1.080   .     S
C785   N825    1.363   .     A
C785   H819    1.079   .     S
C786   H820    1.082   .     S
C786   N826    1.362   .     A
C787   N825    1.364   .     A
C787   C789    1.404   .     A
C787   H821    1.080   .     S
C788   H822    1.079   .     S
C788   N826    1.361   .     A
C788   C790    1.402   .     A
C789   H823    1.080   .     S
C789   C791    1.411   .     A
C790   H824    1.080   .     S
C790   C792    1.412   .     A
C792   C323    1.517   1_556 S
C793   O831    1.289   .     A
C793   O833    1.299   .     A
C793   C795    1.474   .     S
C794   O832    1.292   .     A
C794   O834    1.298   .     A
C794   C796    1.476   .     S
C796   C873    1.371   .     S
C796   C923    1.539   .     S
C797   C807    1.402   .     A
C797   H811    1.083   .     S
C797   C799    1.394   .     A
C798   C800    1.390   .     A
C798   C808    1.399   .     A
C798   H812    1.084   .     S
C799   C801    1.418   .     A
C799   O855    1.381   .     S
C800   O857    1.375   .     S
C800   C802    1.421   .     A
C801   C803    1.399   .     A
C802   C804    1.406   .     A
C803   H813    1.084   .     S
C803   C805    1.387   .     A
C804   C806    1.390   .     A
C804   H814    1.083   .     S
C805   H815    1.083   .     S
C805   C807    1.402   .     A
C806   H816    1.083   .     S
C806   C808    1.400   .     A
C808   C573    1.469   1_565 S
Cu809  O827    1.961   .     S
Cu809  O834    1.952   .     S
Cu809  O830    1.957   .     S
Cu809  Cu810   2.673   .     S
Cu809  O831    1.945   .     S
Cu809  N826    2.008   .     S
Cu810  N825    2.008   .     S
Cu810  O828    1.961   .     S
Cu810  O833    1.952   .     S
Cu810  O829    1.957   .     S
Cu810  O832    1.945   .     S
C835   H843    1.111   .     S
C835   H844    1.107   .     S
C835   C873    1.535   .     S
C835   C914    1.539   .     S
C836   H842    1.108   .     S
C836   H841    1.112   .     S
C837   H839    1.111   .     S
C837   H838    1.111   .     S
C837   C914    1.528   .     S
C837   H918    1.111   .     S
C845   H853    1.112   .     S
C845   H854    1.112   .     S
C846   H852    1.106   .     S
C846   H851    1.112   .     S
C846   C923    1.536   .     S
C846   C925    1.528   .     S
C847   H848    1.111   .     S
C847   H849    1.111   .     S
H850   C925    1.111   .     S
O855   H856    0.989   .     S
O857   H858    0.989   .     S
C859   C879    1.455   .     S
C859   O905    1.290   .     A
C859   O907    1.291   .     A
C860   O908    1.298   .     A
C860   C880    1.474   .     S
C860   O906    1.293   .     A
C861   C863    1.404   .     A
C861   C869    1.412   .     A
C861   H895    1.080   .     S
C862   C870    1.413   .     A
C862   C864    1.405   .     A
C862   H896    1.080   .     S
C863   N903    1.363   .     A
C863   H897    1.079   .     S
C864   H898    1.082   .     S
C864   N904    1.362   .     A
C865   N903    1.364   .     A
C865   C867    1.404   .     A
C865   H899    1.080   .     S
C866   H900    1.079   .     S
C866   N904    1.361   .     A
C866   C868    1.402   .     A
C867   H901    1.080   .     S
C867   C869    1.411   .     A
C868   H902    1.080   .     S
C868   C870    1.412   .     A
C870   C401    1.517   1_556 S
C871   O909    1.289   .     A
C871   O911    1.299   .     A
C871   C873    1.474   .     S
C872   O910    1.292   .     A
C872   O912    1.298   .     A
C872   C874    1.476   .     S
C874   C717    1.371   1_655 S
C874   C767    1.539   1_655 S
C875   C885    1.402   .     A
C875   H889    1.083   .     S
C875   C877    1.394   .     A
C876   C878    1.390   .     A
C876   C886    1.399   .     A
C876   H890    1.084   .     S
C877   C879    1.418   .     A
C877   O933    1.381   .     S
C878   O935    1.375   .     S
C878   C880    1.421   .     A
C879   C881    1.399   .     A
C880   C882    1.406   .     A
C881   H891    1.084   .     S
C881   C883    1.387   .     A
C882   C884    1.390   .     A
C882   H892    1.083   .     S
C883   H893    1.083   .     S
C883   C885    1.402   .     A
C884   H894    1.083   .     S
C884   C886    1.400   .     A
C886   C651    1.469   1_565 S
Cu887  O905    1.961   .     S
Cu887  O912    1.952   .     S
Cu887  O908    1.957   .     S
Cu887  Cu888   2.673   .     S
Cu887  O909    1.945   .     S
Cu887  N904    2.008   .     S
Cu888  N903    2.008   .     S
Cu888  O906    1.961   .     S
Cu888  O911    1.952   .     S
Cu888  O907    1.957   .     S
Cu888  O910    1.945   .     S
C913   H921    1.111   .     S
C913   H922    1.107   .     S
C913   C717    1.535   1_655 S
C913   C758    1.539   1_655 S
C914   H920    1.108   .     S
C914   H919    1.112   .     S
C915   H917    1.111   .     S
C915   H916    1.111   .     S
C915   C758    1.528   1_655 S
C915   H762    1.111   1_655 S
C923   H931    1.112   .     S
C923   H932    1.112   .     S
C924   H930    1.106   .     S
C924   H929    1.112   .     S
C924   C767    1.536   1_655 S
C924   C769    1.528   1_655 S
C925   H926    1.111   .     S
C925   H927    1.111   .     S
H928   C769    1.111   1_655 S
O933   H934    0.989   .     S
O935   H936    0.989   .     S
