data_str_m2_o1_o5_pcu_sym.67
_audit_creation_date              2020-01-03
_audit_creation_method            'Materials Studio'
_symmetry_space_group_name_H-M    'P1'
_symmetry_Int_Tables_number       1
_symmetry_cell_setting            triclinic
loop_
_symmetry_equiv_pos_as_xyz
  x,y,z
_cell_length_a                    32.7937
_cell_length_b                    28.9904
_cell_length_c                    27.1602
_cell_angle_alpha                 89.7099
_cell_angle_beta                  94.0944
_cell_angle_gamma                 89.3862
loop_
_atom_site_label
_atom_site_type_symbol
_atom_site_fract_x
_atom_site_fract_y
_atom_site_fract_z
_atom_site_U_iso_or_equiv
_atom_site_adp_type
_atom_site_occupancy
C1     C     0.08772   0.16694   0.16990   0.00000  Uiso   1.00
C2     C     0.02023   0.20911   0.16692   0.00000  Uiso   1.00
C3     C     0.29040   0.16590   0.16040   0.00000  Uiso   1.00
C4     C     0.04292   0.16744   0.17290   0.00000  Uiso   1.00
C5     C     0.14107   0.02514   0.13376   0.00000  Uiso   1.00
C6     C     0.19227   0.30819   0.19956   0.00000  Uiso   1.00
C7     C     0.19200   0.02422   0.19987   0.00000  Uiso   1.00
C8     C     0.14134   0.30912   0.13346   0.00000  Uiso   1.00
C9     C     0.04267   0.08415   0.19671   0.00000  Uiso   1.00
C10    C     0.29065   0.24918   0.13656   0.00000  Uiso   1.00
C11    C     0.29462   0.07974   0.15654   0.00000  Uiso   1.00
C12    C     0.24561   0.16639   0.16342   0.00000  Uiso   1.00
C13    C     0.03870   0.25360   0.17674   0.00000  Uiso   1.00
C14    C     0.16665   0.16673   0.07369   0.00000  Uiso   1.00
C15    C     0.16668   0.16660   0.25964   0.00000  Uiso   1.00
C16    C     0.16667   0.16676   0.02189   0.00000  Uiso   1.00
C17    C     0.16666   0.16657   0.31144   0.00000  Uiso   1.00
C18    C     0.02196   0.12545   0.17685   0.00000  Uiso   1.00
C19    C     0.31136   0.20789   0.15645   0.00000  Uiso   1.00
C20    C     0.31309   0.12423   0.16638   0.00000  Uiso   1.00
Cu21   Cu    0.16667   0.21355   0.16667   0.00000  Uiso   1.00
Cu22   Cu    0.16667   0.11978   0.16667   0.00000  Uiso   1.00
I23    I     0.09875   0.06054   0.08204   0.00000  Uiso   1.00
I24    I     0.23461   0.27280   0.25127   0.00000  Uiso   1.00
I25    I     0.23185   0.05810   0.25444   0.00000  Uiso   1.00
I26    I     0.10151   0.27523   0.07887   0.00000  Uiso   1.00
N27    N     0.16667   0.28402   0.16667   0.00000  Uiso   1.00
N28    N     0.16667   0.04931   0.16667   0.00000  Uiso   1.00
N29    N     0.05930   0.05156   0.21312   0.00000  Uiso   1.00
N30    N     0.27404   0.28176   0.12012   0.00000  Uiso   1.00
N31    N     0.28017   0.04419   0.14807   0.00000  Uiso   1.00
N32    N     0.05315   0.28914   0.18521   0.00000  Uiso   1.00
O33    O     0.10655   0.20625   0.16666   0.00000  Uiso   1.00
O34    O     0.22679   0.12709   0.16667   0.00000  Uiso   1.00
O35    O     0.22679   0.20625   0.16667   0.00000  Uiso   1.00
O36    O     0.10655   0.12709   0.16666   0.00000  Uiso   1.00
O37    O     0.16667   0.20625   0.09613   0.00000  Uiso   1.00
O38    O     0.16667   0.12708   0.23720   0.00000  Uiso   1.00
O39    O     0.16667   0.20625   0.23720   0.00000  Uiso   1.00
O40    O     0.16667   0.12708   0.09613   0.00000  Uiso   1.00
C41    C     0.42105   0.16694   0.16990   0.00000  Uiso   1.00
C42    C     0.35357   0.20911   0.16692   0.00000  Uiso   1.00
C43    C     0.62373   0.16590   0.16040   0.00000  Uiso   1.00
C44    C     0.37626   0.16744   0.17290   0.00000  Uiso   1.00
C45    C     0.47440   0.02514   0.13376   0.00000  Uiso   1.00
C46    C     0.52560   0.30819   0.19956   0.00000  Uiso   1.00
C47    C     0.52533   0.02422   0.19987   0.00000  Uiso   1.00
C48    C     0.47467   0.30912   0.13346   0.00000  Uiso   1.00
C49    C     0.37601   0.08415   0.19671   0.00000  Uiso   1.00
C50    C     0.62399   0.24918   0.13656   0.00000  Uiso   1.00
C51    C     0.62795   0.07974   0.15654   0.00000  Uiso   1.00
C52    C     0.57894   0.16639   0.16342   0.00000  Uiso   1.00
C53    C     0.37203   0.25360   0.17674   0.00000  Uiso   1.00
C54    C     0.49998   0.16673   0.07369   0.00000  Uiso   1.00
C55    C     0.50001   0.16660   0.25964   0.00000  Uiso   1.00
C56    C     0.50000   0.16676   0.02189   0.00000  Uiso   1.00
C57    C     0.50000   0.16657   0.31144   0.00000  Uiso   1.00
C58    C     0.35529   0.12545   0.17685   0.00000  Uiso   1.00
C59    C     0.64470   0.20789   0.15645   0.00000  Uiso   1.00
C60    C     0.64642   0.12423   0.16638   0.00000  Uiso   1.00
Cu61   Cu    0.50000   0.21355   0.16667   0.00000  Uiso   1.00
Cu62   Cu    0.50000   0.11978   0.16667   0.00000  Uiso   1.00
I63    I     0.43208   0.06054   0.08204   0.00000  Uiso   1.00
I64    I     0.56794   0.27280   0.25127   0.00000  Uiso   1.00
I65    I     0.56518   0.05810   0.25444   0.00000  Uiso   1.00
I66    I     0.43484   0.27523   0.07887   0.00000  Uiso   1.00
N67    N     0.50000   0.28402   0.16667   0.00000  Uiso   1.00
N68    N     0.50000   0.04931   0.16667   0.00000  Uiso   1.00
N69    N     0.39264   0.05156   0.21312   0.00000  Uiso   1.00
N70    N     0.60737   0.28176   0.12012   0.00000  Uiso   1.00
N71    N     0.61351   0.04419   0.14807   0.00000  Uiso   1.00
N72    N     0.38648   0.28914   0.18521   0.00000  Uiso   1.00
O73    O     0.43988   0.20625   0.16666   0.00000  Uiso   1.00
O74    O     0.56012   0.12709   0.16667   0.00000  Uiso   1.00
O75    O     0.56012   0.20625   0.16667   0.00000  Uiso   1.00
O76    O     0.43988   0.12709   0.16666   0.00000  Uiso   1.00
O77    O     0.50000   0.20625   0.09613   0.00000  Uiso   1.00
O78    O     0.50000   0.12708   0.23720   0.00000  Uiso   1.00
O79    O     0.50000   0.20625   0.23720   0.00000  Uiso   1.00
O80    O     0.50000   0.12708   0.09613   0.00000  Uiso   1.00
C81    C     0.75439   0.16694   0.16990   0.00000  Uiso   1.00
C82    C     0.68690   0.20911   0.16692   0.00000  Uiso   1.00
C83    C     0.95706   0.16590   0.16040   0.00000  Uiso   1.00
C84    C     0.70959   0.16744   0.17290   0.00000  Uiso   1.00
C85    C     0.80774   0.02514   0.13376   0.00000  Uiso   1.00
C86    C     0.85894   0.30819   0.19956   0.00000  Uiso   1.00
C87    C     0.85867   0.02422   0.19987   0.00000  Uiso   1.00
C88    C     0.80800   0.30912   0.13346   0.00000  Uiso   1.00
C89    C     0.70934   0.08415   0.19671   0.00000  Uiso   1.00
C90    C     0.95732   0.24918   0.13656   0.00000  Uiso   1.00
C91    C     0.96128   0.07974   0.15654   0.00000  Uiso   1.00
C92    C     0.91228   0.16639   0.16342   0.00000  Uiso   1.00
C93    C     0.70537   0.25360   0.17674   0.00000  Uiso   1.00
C94    C     0.83332   0.16673   0.07369   0.00000  Uiso   1.00
C95    C     0.83335   0.16660   0.25964   0.00000  Uiso   1.00
C96    C     0.83333   0.16676   0.02189   0.00000  Uiso   1.00
C97    C     0.83333   0.16657   0.31144   0.00000  Uiso   1.00
C98    C     0.68862   0.12545   0.17685   0.00000  Uiso   1.00
C99    C     0.97803   0.20789   0.15645   0.00000  Uiso   1.00
C100   C     0.97975   0.12423   0.16638   0.00000  Uiso   1.00
Cu101  Cu    0.83333   0.21355   0.16667   0.00000  Uiso   1.00
Cu102  Cu    0.83333   0.11978   0.16667   0.00000  Uiso   1.00
I103   I     0.76541   0.06054   0.08204   0.00000  Uiso   1.00
I104   I     0.90127   0.27280   0.25127   0.00000  Uiso   1.00
I105   I     0.89852   0.05810   0.25444   0.00000  Uiso   1.00
I106   I     0.76817   0.27523   0.07887   0.00000  Uiso   1.00
N107   N     0.83333   0.28402   0.16667   0.00000  Uiso   1.00
N108   N     0.83333   0.04931   0.16667   0.00000  Uiso   1.00
N109   N     0.72597   0.05156   0.21312   0.00000  Uiso   1.00
N110   N     0.94070   0.28176   0.12012   0.00000  Uiso   1.00
N111   N     0.94684   0.04419   0.14807   0.00000  Uiso   1.00
N112   N     0.71982   0.28914   0.18521   0.00000  Uiso   1.00
O113   O     0.77321   0.20625   0.16666   0.00000  Uiso   1.00
O114   O     0.89345   0.12709   0.16667   0.00000  Uiso   1.00
O115   O     0.89345   0.20625   0.16667   0.00000  Uiso   1.00
O116   O     0.77321   0.12709   0.16666   0.00000  Uiso   1.00
O117   O     0.83333   0.20625   0.09613   0.00000  Uiso   1.00
O118   O     0.83333   0.12708   0.23720   0.00000  Uiso   1.00
O119   O     0.83333   0.20625   0.23720   0.00000  Uiso   1.00
O120   O     0.83333   0.12708   0.09613   0.00000  Uiso   1.00
C121   C     0.08772   0.50028   0.16990   0.00000  Uiso   1.00
C122   C     0.02023   0.54244   0.16692   0.00000  Uiso   1.00
C123   C     0.29040   0.49923   0.16040   0.00000  Uiso   1.00
C124   C     0.04292   0.50077   0.17290   0.00000  Uiso   1.00
C125   C     0.14107   0.35848   0.13376   0.00000  Uiso   1.00
C126   C     0.19227   0.64153   0.19956   0.00000  Uiso   1.00
C127   C     0.19200   0.35755   0.19987   0.00000  Uiso   1.00
C128   C     0.14134   0.64245   0.13346   0.00000  Uiso   1.00
C129   C     0.04267   0.41748   0.19671   0.00000  Uiso   1.00
C130   C     0.29065   0.58252   0.13656   0.00000  Uiso   1.00
C131   C     0.29462   0.41307   0.15654   0.00000  Uiso   1.00
C132   C     0.24561   0.49973   0.16342   0.00000  Uiso   1.00
C133   C     0.03870   0.58693   0.17674   0.00000  Uiso   1.00
C134   C     0.16665   0.50007   0.07369   0.00000  Uiso   1.00
C135   C     0.16668   0.49993   0.25964   0.00000  Uiso   1.00
C136   C     0.16667   0.50010   0.02189   0.00000  Uiso   1.00
C137   C     0.16666   0.49990   0.31144   0.00000  Uiso   1.00
C138   C     0.02196   0.45878   0.17685   0.00000  Uiso   1.00
C139   C     0.31136   0.54122   0.15645   0.00000  Uiso   1.00
C140   C     0.31309   0.45756   0.16638   0.00000  Uiso   1.00
Cu141  Cu    0.16667   0.54689   0.16667   0.00000  Uiso   1.00
Cu142  Cu    0.16667   0.45311   0.16667   0.00000  Uiso   1.00
I143   I     0.09875   0.39387   0.08204   0.00000  Uiso   1.00
I144   I     0.23461   0.60613   0.25127   0.00000  Uiso   1.00
I145   I     0.23185   0.39143   0.25444   0.00000  Uiso   1.00
I146   I     0.10151   0.60856   0.07887   0.00000  Uiso   1.00
N147   N     0.16667   0.61736   0.16667   0.00000  Uiso   1.00
N148   N     0.16667   0.38264   0.16667   0.00000  Uiso   1.00
N149   N     0.05930   0.38489   0.21312   0.00000  Uiso   1.00
N150   N     0.27404   0.61509   0.12012   0.00000  Uiso   1.00
N151   N     0.28017   0.37753   0.14807   0.00000  Uiso   1.00
N152   N     0.05315   0.62248   0.18521   0.00000  Uiso   1.00
O153   O     0.10655   0.53958   0.16666   0.00000  Uiso   1.00
O154   O     0.22679   0.46042   0.16667   0.00000  Uiso   1.00
O155   O     0.22679   0.53958   0.16667   0.00000  Uiso   1.00
O156   O     0.10655   0.46042   0.16666   0.00000  Uiso   1.00
O157   O     0.16667   0.53959   0.09613   0.00000  Uiso   1.00
O158   O     0.16667   0.46041   0.23720   0.00000  Uiso   1.00
O159   O     0.16667   0.53959   0.23720   0.00000  Uiso   1.00
O160   O     0.16667   0.46041   0.09613   0.00000  Uiso   1.00
C161   C     0.42105   0.50028   0.16990   0.00000  Uiso   1.00
C162   C     0.35357   0.54244   0.16692   0.00000  Uiso   1.00
C163   C     0.62373   0.49923   0.16040   0.00000  Uiso   1.00
C164   C     0.37626   0.50077   0.17290   0.00000  Uiso   1.00
C165   C     0.47440   0.35848   0.13376   0.00000  Uiso   1.00
C166   C     0.52560   0.64153   0.19956   0.00000  Uiso   1.00
C167   C     0.52533   0.35755   0.19987   0.00000  Uiso   1.00
C168   C     0.47467   0.64245   0.13346   0.00000  Uiso   1.00
C169   C     0.37601   0.41748   0.19671   0.00000  Uiso   1.00
C170   C     0.62399   0.58252   0.13656   0.00000  Uiso   1.00
C171   C     0.62795   0.41307   0.15654   0.00000  Uiso   1.00
C172   C     0.57894   0.49973   0.16342   0.00000  Uiso   1.00
C173   C     0.37203   0.58693   0.17674   0.00000  Uiso   1.00
C174   C     0.49998   0.50007   0.07369   0.00000  Uiso   1.00
C175   C     0.50001   0.49993   0.25964   0.00000  Uiso   1.00
C176   C     0.50000   0.50010   0.02189   0.00000  Uiso   1.00
C177   C     0.50000   0.49990   0.31144   0.00000  Uiso   1.00
C178   C     0.35529   0.45878   0.17685   0.00000  Uiso   1.00
C179   C     0.64470   0.54122   0.15645   0.00000  Uiso   1.00
C180   C     0.64642   0.45756   0.16638   0.00000  Uiso   1.00
Cu181  Cu    0.50000   0.54689   0.16667   0.00000  Uiso   1.00
Cu182  Cu    0.50000   0.45311   0.16667   0.00000  Uiso   1.00
I183   I     0.43208   0.39387   0.08204   0.00000  Uiso   1.00
I184   I     0.56794   0.60613   0.25127   0.00000  Uiso   1.00
I185   I     0.56518   0.39143   0.25444   0.00000  Uiso   1.00
I186   I     0.43484   0.60856   0.07887   0.00000  Uiso   1.00
N187   N     0.50000   0.61736   0.16667   0.00000  Uiso   1.00
N188   N     0.50000   0.38264   0.16667   0.00000  Uiso   1.00
N189   N     0.39264   0.38489   0.21312   0.00000  Uiso   1.00
N190   N     0.60737   0.61509   0.12012   0.00000  Uiso   1.00
N191   N     0.61351   0.37753   0.14807   0.00000  Uiso   1.00
N192   N     0.38648   0.62248   0.18521   0.00000  Uiso   1.00
O193   O     0.43988   0.53958   0.16666   0.00000  Uiso   1.00
O194   O     0.56012   0.46042   0.16667   0.00000  Uiso   1.00
O195   O     0.56012   0.53958   0.16667   0.00000  Uiso   1.00
O196   O     0.43988   0.46042   0.16666   0.00000  Uiso   1.00
O197   O     0.50000   0.53959   0.09613   0.00000  Uiso   1.00
O198   O     0.50000   0.46041   0.23720   0.00000  Uiso   1.00
O199   O     0.50000   0.53959   0.23720   0.00000  Uiso   1.00
O200   O     0.50000   0.46041   0.09613   0.00000  Uiso   1.00
C201   C     0.75439   0.50028   0.16990   0.00000  Uiso   1.00
C202   C     0.68690   0.54244   0.16692   0.00000  Uiso   1.00
C203   C     0.95706   0.49923   0.16040   0.00000  Uiso   1.00
C204   C     0.70959   0.50077   0.17290   0.00000  Uiso   1.00
C205   C     0.80774   0.35848   0.13376   0.00000  Uiso   1.00
C206   C     0.85894   0.64153   0.19956   0.00000  Uiso   1.00
C207   C     0.85867   0.35755   0.19987   0.00000  Uiso   1.00
C208   C     0.80800   0.64245   0.13346   0.00000  Uiso   1.00
C209   C     0.70934   0.41748   0.19671   0.00000  Uiso   1.00
C210   C     0.95732   0.58252   0.13656   0.00000  Uiso   1.00
C211   C     0.96128   0.41307   0.15654   0.00000  Uiso   1.00
C212   C     0.91228   0.49973   0.16342   0.00000  Uiso   1.00
C213   C     0.70537   0.58693   0.17674   0.00000  Uiso   1.00
C214   C     0.83332   0.50007   0.07369   0.00000  Uiso   1.00
C215   C     0.83335   0.49993   0.25964   0.00000  Uiso   1.00
C216   C     0.83333   0.50010   0.02189   0.00000  Uiso   1.00
C217   C     0.83333   0.49990   0.31144   0.00000  Uiso   1.00
C218   C     0.68862   0.45878   0.17685   0.00000  Uiso   1.00
C219   C     0.97803   0.54122   0.15645   0.00000  Uiso   1.00
C220   C     0.97975   0.45756   0.16638   0.00000  Uiso   1.00
Cu221  Cu    0.83333   0.54689   0.16667   0.00000  Uiso   1.00
Cu222  Cu    0.83333   0.45311   0.16667   0.00000  Uiso   1.00
I223   I     0.76541   0.39387   0.08204   0.00000  Uiso   1.00
I224   I     0.90127   0.60613   0.25127   0.00000  Uiso   1.00
I225   I     0.89852   0.39143   0.25444   0.00000  Uiso   1.00
I226   I     0.76817   0.60856   0.07887   0.00000  Uiso   1.00
N227   N     0.83333   0.61736   0.16667   0.00000  Uiso   1.00
N228   N     0.83333   0.38264   0.16667   0.00000  Uiso   1.00
N229   N     0.72597   0.38489   0.21312   0.00000  Uiso   1.00
N230   N     0.94070   0.61509   0.12012   0.00000  Uiso   1.00
N231   N     0.94684   0.37753   0.14807   0.00000  Uiso   1.00
N232   N     0.71982   0.62248   0.18521   0.00000  Uiso   1.00
O233   O     0.77321   0.53958   0.16666   0.00000  Uiso   1.00
O234   O     0.89345   0.46042   0.16667   0.00000  Uiso   1.00
O235   O     0.89345   0.53958   0.16667   0.00000  Uiso   1.00
O236   O     0.77321   0.46042   0.16666   0.00000  Uiso   1.00
O237   O     0.83333   0.53959   0.09613   0.00000  Uiso   1.00
O238   O     0.83333   0.46041   0.23720   0.00000  Uiso   1.00
O239   O     0.83333   0.53959   0.23720   0.00000  Uiso   1.00
O240   O     0.83333   0.46041   0.09613   0.00000  Uiso   1.00
C241   C     0.08772   0.83361   0.16990   0.00000  Uiso   1.00
C242   C     0.02023   0.87577   0.16692   0.00000  Uiso   1.00
C243   C     0.29040   0.83257   0.16040   0.00000  Uiso   1.00
C244   C     0.04292   0.83410   0.17290   0.00000  Uiso   1.00
C245   C     0.14107   0.69181   0.13376   0.00000  Uiso   1.00
C246   C     0.19227   0.97486   0.19956   0.00000  Uiso   1.00
C247   C     0.19200   0.69088   0.19987   0.00000  Uiso   1.00
C248   C     0.14134   0.97578   0.13346   0.00000  Uiso   1.00
C249   C     0.04267   0.75081   0.19671   0.00000  Uiso   1.00
C250   C     0.29065   0.91585   0.13656   0.00000  Uiso   1.00
C251   C     0.29462   0.74641   0.15654   0.00000  Uiso   1.00
C252   C     0.24561   0.83306   0.16342   0.00000  Uiso   1.00
C253   C     0.03870   0.92026   0.17674   0.00000  Uiso   1.00
C254   C     0.16665   0.83340   0.07369   0.00000  Uiso   1.00
C255   C     0.16668   0.83327   0.25964   0.00000  Uiso   1.00
C256   C     0.16667   0.83343   0.02189   0.00000  Uiso   1.00
C257   C     0.16666   0.83324   0.31144   0.00000  Uiso   1.00
C258   C     0.02196   0.79211   0.17685   0.00000  Uiso   1.00
C259   C     0.31136   0.87456   0.15645   0.00000  Uiso   1.00
C260   C     0.31309   0.79090   0.16638   0.00000  Uiso   1.00
Cu261  Cu    0.16667   0.88022   0.16667   0.00000  Uiso   1.00
Cu262  Cu    0.16667   0.78645   0.16667   0.00000  Uiso   1.00
I263   I     0.09875   0.72720   0.08204   0.00000  Uiso   1.00
I264   I     0.23461   0.93947   0.25127   0.00000  Uiso   1.00
I265   I     0.23185   0.72476   0.25444   0.00000  Uiso   1.00
I266   I     0.10151   0.94190   0.07887   0.00000  Uiso   1.00
N267   N     0.16667   0.95069   0.16667   0.00000  Uiso   1.00
N268   N     0.16667   0.71598   0.16667   0.00000  Uiso   1.00
N269   N     0.05930   0.71823   0.21312   0.00000  Uiso   1.00
N270   N     0.27404   0.94843   0.12012   0.00000  Uiso   1.00
N271   N     0.28017   0.71086   0.14807   0.00000  Uiso   1.00
N272   N     0.05315   0.95581   0.18521   0.00000  Uiso   1.00
O273   O     0.10655   0.87291   0.16666   0.00000  Uiso   1.00
O274   O     0.22679   0.79375   0.16667   0.00000  Uiso   1.00
O275   O     0.22679   0.87291   0.16667   0.00000  Uiso   1.00
O276   O     0.10655   0.79375   0.16666   0.00000  Uiso   1.00
O277   O     0.16667   0.87292   0.09613   0.00000  Uiso   1.00
O278   O     0.16667   0.79375   0.23720   0.00000  Uiso   1.00
O279   O     0.16667   0.87292   0.23720   0.00000  Uiso   1.00
O280   O     0.16667   0.79375   0.09613   0.00000  Uiso   1.00
C281   C     0.42105   0.83361   0.16990   0.00000  Uiso   1.00
C282   C     0.35357   0.87577   0.16692   0.00000  Uiso   1.00
C283   C     0.62373   0.83257   0.16040   0.00000  Uiso   1.00
C284   C     0.37626   0.83410   0.17290   0.00000  Uiso   1.00
C285   C     0.47440   0.69181   0.13376   0.00000  Uiso   1.00
C286   C     0.52560   0.97486   0.19956   0.00000  Uiso   1.00
C287   C     0.52533   0.69088   0.19987   0.00000  Uiso   1.00
C288   C     0.47467   0.97578   0.13346   0.00000  Uiso   1.00
C289   C     0.37601   0.75081   0.19671   0.00000  Uiso   1.00
C290   C     0.62399   0.91585   0.13656   0.00000  Uiso   1.00
C291   C     0.62795   0.74641   0.15654   0.00000  Uiso   1.00
C292   C     0.57894   0.83306   0.16342   0.00000  Uiso   1.00
C293   C     0.37203   0.92026   0.17674   0.00000  Uiso   1.00
C294   C     0.49998   0.83340   0.07369   0.00000  Uiso   1.00
C295   C     0.50001   0.83327   0.25964   0.00000  Uiso   1.00
C296   C     0.50000   0.83343   0.02189   0.00000  Uiso   1.00
C297   C     0.50000   0.83324   0.31144   0.00000  Uiso   1.00
C298   C     0.35529   0.79211   0.17685   0.00000  Uiso   1.00
C299   C     0.64470   0.87456   0.15645   0.00000  Uiso   1.00
C300   C     0.64642   0.79090   0.16638   0.00000  Uiso   1.00
Cu301  Cu    0.50000   0.88022   0.16667   0.00000  Uiso   1.00
Cu302  Cu    0.50000   0.78645   0.16667   0.00000  Uiso   1.00
I303   I     0.43208   0.72720   0.08204   0.00000  Uiso   1.00
I304   I     0.56794   0.93947   0.25127   0.00000  Uiso   1.00
I305   I     0.56518   0.72476   0.25444   0.00000  Uiso   1.00
I306   I     0.43484   0.94190   0.07887   0.00000  Uiso   1.00
N307   N     0.50000   0.95069   0.16667   0.00000  Uiso   1.00
N308   N     0.50000   0.71598   0.16667   0.00000  Uiso   1.00
N309   N     0.39264   0.71823   0.21312   0.00000  Uiso   1.00
N310   N     0.60737   0.94843   0.12012   0.00000  Uiso   1.00
N311   N     0.61351   0.71086   0.14807   0.00000  Uiso   1.00
N312   N     0.38648   0.95581   0.18521   0.00000  Uiso   1.00
O313   O     0.43988   0.87291   0.16666   0.00000  Uiso   1.00
O314   O     0.56012   0.79375   0.16667   0.00000  Uiso   1.00
O315   O     0.56012   0.87291   0.16667   0.00000  Uiso   1.00
O316   O     0.43988   0.79375   0.16666   0.00000  Uiso   1.00
O317   O     0.50000   0.87292   0.09613   0.00000  Uiso   1.00
O318   O     0.50000   0.79375   0.23720   0.00000  Uiso   1.00
O319   O     0.50000   0.87292   0.23720   0.00000  Uiso   1.00
O320   O     0.50000   0.79375   0.09613   0.00000  Uiso   1.00
C321   C     0.75439   0.83361   0.16990   0.00000  Uiso   1.00
C322   C     0.68690   0.87577   0.16692   0.00000  Uiso   1.00
C323   C     0.95706   0.83257   0.16040   0.00000  Uiso   1.00
C324   C     0.70959   0.83410   0.17290   0.00000  Uiso   1.00
C325   C     0.80774   0.69181   0.13376   0.00000  Uiso   1.00
C326   C     0.85894   0.97486   0.19956   0.00000  Uiso   1.00
C327   C     0.85867   0.69088   0.19987   0.00000  Uiso   1.00
C328   C     0.80800   0.97578   0.13346   0.00000  Uiso   1.00
C329   C     0.70934   0.75081   0.19671   0.00000  Uiso   1.00
C330   C     0.95732   0.91585   0.13656   0.00000  Uiso   1.00
C331   C     0.96128   0.74641   0.15654   0.00000  Uiso   1.00
C332   C     0.91228   0.83306   0.16342   0.00000  Uiso   1.00
C333   C     0.70537   0.92026   0.17674   0.00000  Uiso   1.00
C334   C     0.83332   0.83340   0.07369   0.00000  Uiso   1.00
C335   C     0.83335   0.83327   0.25964   0.00000  Uiso   1.00
C336   C     0.83333   0.83343   0.02189   0.00000  Uiso   1.00
C337   C     0.83333   0.83324   0.31144   0.00000  Uiso   1.00
C338   C     0.68862   0.79211   0.17685   0.00000  Uiso   1.00
C339   C     0.97803   0.87456   0.15645   0.00000  Uiso   1.00
C340   C     0.97975   0.79090   0.16638   0.00000  Uiso   1.00
Cu341  Cu    0.83333   0.88022   0.16667   0.00000  Uiso   1.00
Cu342  Cu    0.83333   0.78645   0.16667   0.00000  Uiso   1.00
I343   I     0.76541   0.72720   0.08204   0.00000  Uiso   1.00
I344   I     0.90127   0.93947   0.25127   0.00000  Uiso   1.00
I345   I     0.89852   0.72476   0.25444   0.00000  Uiso   1.00
I346   I     0.76817   0.94190   0.07887   0.00000  Uiso   1.00
N347   N     0.83333   0.95069   0.16667   0.00000  Uiso   1.00
N348   N     0.83333   0.71598   0.16667   0.00000  Uiso   1.00
N349   N     0.72597   0.71823   0.21312   0.00000  Uiso   1.00
N350   N     0.94070   0.94843   0.12012   0.00000  Uiso   1.00
N351   N     0.94684   0.71086   0.14807   0.00000  Uiso   1.00
N352   N     0.71982   0.95581   0.18521   0.00000  Uiso   1.00
O353   O     0.77321   0.87291   0.16666   0.00000  Uiso   1.00
O354   O     0.89345   0.79375   0.16667   0.00000  Uiso   1.00
O355   O     0.89345   0.87291   0.16667   0.00000  Uiso   1.00
O356   O     0.77321   0.79375   0.16666   0.00000  Uiso   1.00
O357   O     0.83333   0.87292   0.09613   0.00000  Uiso   1.00
O358   O     0.83333   0.79375   0.23720   0.00000  Uiso   1.00
O359   O     0.83333   0.87292   0.23720   0.00000  Uiso   1.00
O360   O     0.83333   0.79375   0.09613   0.00000  Uiso   1.00
C361   C     0.08772   0.16694   0.50324   0.00000  Uiso   1.00
C362   C     0.02023   0.20911   0.50025   0.00000  Uiso   1.00
C363   C     0.29040   0.16590   0.49374   0.00000  Uiso   1.00
C364   C     0.04292   0.16744   0.50623   0.00000  Uiso   1.00
C365   C     0.14107   0.02514   0.46710   0.00000  Uiso   1.00
C366   C     0.19227   0.30819   0.53290   0.00000  Uiso   1.00
C367   C     0.19200   0.02422   0.53320   0.00000  Uiso   1.00
C368   C     0.14134   0.30912   0.46679   0.00000  Uiso   1.00
C369   C     0.04267   0.08415   0.53004   0.00000  Uiso   1.00
C370   C     0.29065   0.24918   0.46989   0.00000  Uiso   1.00
C371   C     0.29462   0.07974   0.48988   0.00000  Uiso   1.00
C372   C     0.24561   0.16639   0.49675   0.00000  Uiso   1.00
C373   C     0.03870   0.25360   0.51008   0.00000  Uiso   1.00
C374   C     0.16665   0.16673   0.40702   0.00000  Uiso   1.00
C375   C     0.16668   0.16660   0.59298   0.00000  Uiso   1.00
C376   C     0.16667   0.16676   0.35522   0.00000  Uiso   1.00
C377   C     0.16666   0.16657   0.64477   0.00000  Uiso   1.00
C378   C     0.02196   0.12545   0.51018   0.00000  Uiso   1.00
C379   C     0.31136   0.20789   0.48978   0.00000  Uiso   1.00
C380   C     0.31309   0.12423   0.49971   0.00000  Uiso   1.00
Cu381  Cu    0.16667   0.21355   0.50000   0.00000  Uiso   1.00
Cu382  Cu    0.16667   0.11978   0.50000   0.00000  Uiso   1.00
I383   I     0.09875   0.06054   0.41538   0.00000  Uiso   1.00
I384   I     0.23461   0.27280   0.58460   0.00000  Uiso   1.00
I385   I     0.23185   0.05810   0.58777   0.00000  Uiso   1.00
I386   I     0.10151   0.27523   0.41220   0.00000  Uiso   1.00
N387   N     0.16667   0.28402   0.50000   0.00000  Uiso   1.00
N388   N     0.16667   0.04931   0.50000   0.00000  Uiso   1.00
N389   N     0.05930   0.05156   0.54645   0.00000  Uiso   1.00
N390   N     0.27404   0.28176   0.45345   0.00000  Uiso   1.00
N391   N     0.28017   0.04419   0.48140   0.00000  Uiso   1.00
N392   N     0.05315   0.28914   0.51854   0.00000  Uiso   1.00
O393   O     0.10655   0.20625   0.50000   0.00000  Uiso   1.00
O394   O     0.22679   0.12709   0.50000   0.00000  Uiso   1.00
O395   O     0.22679   0.20625   0.50000   0.00000  Uiso   1.00
O396   O     0.10655   0.12709   0.50000   0.00000  Uiso   1.00
O397   O     0.16667   0.20625   0.42946   0.00000  Uiso   1.00
O398   O     0.16667   0.12708   0.57054   0.00000  Uiso   1.00
O399   O     0.16667   0.20625   0.57054   0.00000  Uiso   1.00
O400   O     0.16667   0.12708   0.42946   0.00000  Uiso   1.00
C401   C     0.42105   0.16694   0.50324   0.00000  Uiso   1.00
C402   C     0.35357   0.20911   0.50025   0.00000  Uiso   1.00
C403   C     0.62373   0.16590   0.49374   0.00000  Uiso   1.00
C404   C     0.37626   0.16744   0.50623   0.00000  Uiso   1.00
C405   C     0.47440   0.02514   0.46710   0.00000  Uiso   1.00
C406   C     0.52560   0.30819   0.53290   0.00000  Uiso   1.00
C407   C     0.52533   0.02422   0.53320   0.00000  Uiso   1.00
C408   C     0.47467   0.30912   0.46679   0.00000  Uiso   1.00
C409   C     0.37601   0.08415   0.53004   0.00000  Uiso   1.00
C410   C     0.62399   0.24918   0.46989   0.00000  Uiso   1.00
C411   C     0.62795   0.07974   0.48988   0.00000  Uiso   1.00
C412   C     0.57894   0.16639   0.49675   0.00000  Uiso   1.00
C413   C     0.37203   0.25360   0.51008   0.00000  Uiso   1.00
C414   C     0.49998   0.16673   0.40702   0.00000  Uiso   1.00
C415   C     0.50001   0.16660   0.59298   0.00000  Uiso   1.00
C416   C     0.50000   0.16676   0.35522   0.00000  Uiso   1.00
C417   C     0.50000   0.16657   0.64477   0.00000  Uiso   1.00
C418   C     0.35529   0.12545   0.51018   0.00000  Uiso   1.00
C419   C     0.64470   0.20789   0.48978   0.00000  Uiso   1.00
C420   C     0.64642   0.12423   0.49971   0.00000  Uiso   1.00
Cu421  Cu    0.50000   0.21355   0.50000   0.00000  Uiso   1.00
Cu422  Cu    0.50000   0.11978   0.50000   0.00000  Uiso   1.00
I423   I     0.43208   0.06054   0.41538   0.00000  Uiso   1.00
I424   I     0.56794   0.27280   0.58460   0.00000  Uiso   1.00
I425   I     0.56518   0.05810   0.58777   0.00000  Uiso   1.00
I426   I     0.43484   0.27523   0.41220   0.00000  Uiso   1.00
N427   N     0.50000   0.28402   0.50000   0.00000  Uiso   1.00
N428   N     0.50000   0.04931   0.50000   0.00000  Uiso   1.00
N429   N     0.39264   0.05156   0.54645   0.00000  Uiso   1.00
N430   N     0.60737   0.28176   0.45345   0.00000  Uiso   1.00
N431   N     0.61351   0.04419   0.48140   0.00000  Uiso   1.00
N432   N     0.38648   0.28914   0.51854   0.00000  Uiso   1.00
O433   O     0.43988   0.20625   0.50000   0.00000  Uiso   1.00
O434   O     0.56012   0.12709   0.50000   0.00000  Uiso   1.00
O435   O     0.56012   0.20625   0.50000   0.00000  Uiso   1.00
O436   O     0.43988   0.12709   0.50000   0.00000  Uiso   1.00
O437   O     0.50000   0.20625   0.42946   0.00000  Uiso   1.00
O438   O     0.50000   0.12708   0.57054   0.00000  Uiso   1.00
O439   O     0.50000   0.20625   0.57054   0.00000  Uiso   1.00
O440   O     0.50000   0.12708   0.42946   0.00000  Uiso   1.00
C441   C     0.75439   0.16694   0.50324   0.00000  Uiso   1.00
C442   C     0.68690   0.20911   0.50025   0.00000  Uiso   1.00
C443   C     0.95706   0.16590   0.49374   0.00000  Uiso   1.00
C444   C     0.70959   0.16744   0.50623   0.00000  Uiso   1.00
C445   C     0.80774   0.02514   0.46710   0.00000  Uiso   1.00
C446   C     0.85894   0.30819   0.53290   0.00000  Uiso   1.00
C447   C     0.85867   0.02422   0.53320   0.00000  Uiso   1.00
C448   C     0.80800   0.30912   0.46679   0.00000  Uiso   1.00
C449   C     0.70934   0.08415   0.53004   0.00000  Uiso   1.00
C450   C     0.95732   0.24918   0.46989   0.00000  Uiso   1.00
C451   C     0.96128   0.07974   0.48988   0.00000  Uiso   1.00
C452   C     0.91228   0.16639   0.49675   0.00000  Uiso   1.00
C453   C     0.70537   0.25360   0.51008   0.00000  Uiso   1.00
C454   C     0.83332   0.16673   0.40702   0.00000  Uiso   1.00
C455   C     0.83335   0.16660   0.59298   0.00000  Uiso   1.00
C456   C     0.83333   0.16676   0.35522   0.00000  Uiso   1.00
C457   C     0.83333   0.16657   0.64477   0.00000  Uiso   1.00
C458   C     0.68862   0.12545   0.51018   0.00000  Uiso   1.00
C459   C     0.97803   0.20789   0.48978   0.00000  Uiso   1.00
C460   C     0.97975   0.12423   0.49971   0.00000  Uiso   1.00
Cu461  Cu    0.83333   0.21355   0.50000   0.00000  Uiso   1.00
Cu462  Cu    0.83333   0.11978   0.50000   0.00000  Uiso   1.00
I463   I     0.76541   0.06054   0.41538   0.00000  Uiso   1.00
I464   I     0.90127   0.27280   0.58460   0.00000  Uiso   1.00
I465   I     0.89852   0.05810   0.58777   0.00000  Uiso   1.00
I466   I     0.76817   0.27523   0.41220   0.00000  Uiso   1.00
N467   N     0.83333   0.28402   0.50000   0.00000  Uiso   1.00
N468   N     0.83333   0.04931   0.50000   0.00000  Uiso   1.00
N469   N     0.72597   0.05156   0.54645   0.00000  Uiso   1.00
N470   N     0.94070   0.28176   0.45345   0.00000  Uiso   1.00
N471   N     0.94684   0.04419   0.48140   0.00000  Uiso   1.00
N472   N     0.71982   0.28914   0.51854   0.00000  Uiso   1.00
O473   O     0.77321   0.20625   0.50000   0.00000  Uiso   1.00
O474   O     0.89345   0.12709   0.50000   0.00000  Uiso   1.00
O475   O     0.89345   0.20625   0.50000   0.00000  Uiso   1.00
O476   O     0.77321   0.12709   0.50000   0.00000  Uiso   1.00
O477   O     0.83333   0.20625   0.42946   0.00000  Uiso   1.00
O478   O     0.83333   0.12708   0.57054   0.00000  Uiso   1.00
O479   O     0.83333   0.20625   0.57054   0.00000  Uiso   1.00
O480   O     0.83333   0.12708   0.42946   0.00000  Uiso   1.00
C481   C     0.08772   0.50028   0.50324   0.00000  Uiso   1.00
C482   C     0.02023   0.54244   0.50025   0.00000  Uiso   1.00
C483   C     0.29040   0.49923   0.49374   0.00000  Uiso   1.00
C484   C     0.04292   0.50077   0.50623   0.00000  Uiso   1.00
C485   C     0.14107   0.35848   0.46710   0.00000  Uiso   1.00
C486   C     0.19227   0.64153   0.53290   0.00000  Uiso   1.00
C487   C     0.19200   0.35755   0.53320   0.00000  Uiso   1.00
C488   C     0.14134   0.64245   0.46679   0.00000  Uiso   1.00
C489   C     0.04267   0.41748   0.53004   0.00000  Uiso   1.00
C490   C     0.29065   0.58252   0.46989   0.00000  Uiso   1.00
C491   C     0.29462   0.41307   0.48988   0.00000  Uiso   1.00
C492   C     0.24561   0.49973   0.49675   0.00000  Uiso   1.00
C493   C     0.03870   0.58693   0.51008   0.00000  Uiso   1.00
C494   C     0.16665   0.50007   0.40702   0.00000  Uiso   1.00
C495   C     0.16668   0.49993   0.59298   0.00000  Uiso   1.00
C496   C     0.16667   0.50010   0.35522   0.00000  Uiso   1.00
C497   C     0.16666   0.49990   0.64477   0.00000  Uiso   1.00
C498   C     0.02196   0.45878   0.51018   0.00000  Uiso   1.00
C499   C     0.31136   0.54122   0.48978   0.00000  Uiso   1.00
C500   C     0.31309   0.45756   0.49971   0.00000  Uiso   1.00
Cu501  Cu    0.16667   0.54689   0.50000   0.00000  Uiso   1.00
Cu502  Cu    0.16667   0.45311   0.50000   0.00000  Uiso   1.00
I503   I     0.09875   0.39387   0.41538   0.00000  Uiso   1.00
I504   I     0.23461   0.60613   0.58460   0.00000  Uiso   1.00
I505   I     0.23185   0.39143   0.58777   0.00000  Uiso   1.00
I506   I     0.10151   0.60856   0.41220   0.00000  Uiso   1.00
N507   N     0.16667   0.61736   0.50000   0.00000  Uiso   1.00
N508   N     0.16667   0.38264   0.50000   0.00000  Uiso   1.00
N509   N     0.05930   0.38489   0.54645   0.00000  Uiso   1.00
N510   N     0.27404   0.61509   0.45345   0.00000  Uiso   1.00
N511   N     0.28017   0.37753   0.48140   0.00000  Uiso   1.00
N512   N     0.05315   0.62248   0.51854   0.00000  Uiso   1.00
O513   O     0.10655   0.53958   0.50000   0.00000  Uiso   1.00
O514   O     0.22679   0.46042   0.50000   0.00000  Uiso   1.00
O515   O     0.22679   0.53958   0.50000   0.00000  Uiso   1.00
O516   O     0.10655   0.46042   0.50000   0.00000  Uiso   1.00
O517   O     0.16667   0.53959   0.42946   0.00000  Uiso   1.00
O518   O     0.16667   0.46041   0.57054   0.00000  Uiso   1.00
O519   O     0.16667   0.53959   0.57054   0.00000  Uiso   1.00
O520   O     0.16667   0.46041   0.42946   0.00000  Uiso   1.00
C521   C     0.42105   0.50028   0.50324   0.00000  Uiso   1.00
C522   C     0.35357   0.54244   0.50025   0.00000  Uiso   1.00
C523   C     0.62373   0.49923   0.49374   0.00000  Uiso   1.00
C524   C     0.37626   0.50077   0.50623   0.00000  Uiso   1.00
C525   C     0.47440   0.35848   0.46710   0.00000  Uiso   1.00
C526   C     0.52560   0.64153   0.53290   0.00000  Uiso   1.00
C527   C     0.52533   0.35755   0.53320   0.00000  Uiso   1.00
C528   C     0.47467   0.64245   0.46679   0.00000  Uiso   1.00
C529   C     0.37601   0.41748   0.53004   0.00000  Uiso   1.00
C530   C     0.62399   0.58252   0.46989   0.00000  Uiso   1.00
C531   C     0.62795   0.41307   0.48988   0.00000  Uiso   1.00
C532   C     0.57894   0.49973   0.49675   0.00000  Uiso   1.00
C533   C     0.37203   0.58693   0.51008   0.00000  Uiso   1.00
C534   C     0.49998   0.50007   0.40702   0.00000  Uiso   1.00
C535   C     0.50001   0.49993   0.59298   0.00000  Uiso   1.00
C536   C     0.50000   0.50010   0.35522   0.00000  Uiso   1.00
C537   C     0.50000   0.49990   0.64477   0.00000  Uiso   1.00
C538   C     0.35529   0.45878   0.51018   0.00000  Uiso   1.00
C539   C     0.64470   0.54122   0.48978   0.00000  Uiso   1.00
C540   C     0.64642   0.45756   0.49971   0.00000  Uiso   1.00
Cu541  Cu    0.50000   0.54689   0.50000   0.00000  Uiso   1.00
Cu542  Cu    0.50000   0.45311   0.50000   0.00000  Uiso   1.00
I543   I     0.43208   0.39387   0.41538   0.00000  Uiso   1.00
I544   I     0.56794   0.60613   0.58460   0.00000  Uiso   1.00
I545   I     0.56518   0.39143   0.58777   0.00000  Uiso   1.00
I546   I     0.43484   0.60856   0.41220   0.00000  Uiso   1.00
N547   N     0.50000   0.61736   0.50000   0.00000  Uiso   1.00
N548   N     0.50000   0.38264   0.50000   0.00000  Uiso   1.00
N549   N     0.39264   0.38489   0.54645   0.00000  Uiso   1.00
N550   N     0.60737   0.61509   0.45345   0.00000  Uiso   1.00
N551   N     0.61351   0.37753   0.48140   0.00000  Uiso   1.00
N552   N     0.38648   0.62248   0.51854   0.00000  Uiso   1.00
O553   O     0.43988   0.53958   0.50000   0.00000  Uiso   1.00
O554   O     0.56012   0.46042   0.50000   0.00000  Uiso   1.00
O555   O     0.56012   0.53958   0.50000   0.00000  Uiso   1.00
O556   O     0.43988   0.46042   0.50000   0.00000  Uiso   1.00
O557   O     0.50000   0.53959   0.42946   0.00000  Uiso   1.00
O558   O     0.50000   0.46041   0.57054   0.00000  Uiso   1.00
O559   O     0.50000   0.53959   0.57054   0.00000  Uiso   1.00
O560   O     0.50000   0.46041   0.42946   0.00000  Uiso   1.00
C561   C     0.75439   0.50028   0.50324   0.00000  Uiso   1.00
C562   C     0.68690   0.54244   0.50025   0.00000  Uiso   1.00
C563   C     0.95706   0.49923   0.49374   0.00000  Uiso   1.00
C564   C     0.70959   0.50077   0.50623   0.00000  Uiso   1.00
C565   C     0.80774   0.35848   0.46710   0.00000  Uiso   1.00
C566   C     0.85894   0.64153   0.53290   0.00000  Uiso   1.00
C567   C     0.85867   0.35755   0.53320   0.00000  Uiso   1.00
C568   C     0.80800   0.64245   0.46679   0.00000  Uiso   1.00
C569   C     0.70934   0.41748   0.53004   0.00000  Uiso   1.00
C570   C     0.95732   0.58252   0.46989   0.00000  Uiso   1.00
C571   C     0.96128   0.41307   0.48988   0.00000  Uiso   1.00
C572   C     0.91228   0.49973   0.49675   0.00000  Uiso   1.00
C573   C     0.70537   0.58693   0.51008   0.00000  Uiso   1.00
C574   C     0.83332   0.50007   0.40702   0.00000  Uiso   1.00
C575   C     0.83335   0.49993   0.59298   0.00000  Uiso   1.00
C576   C     0.83333   0.50010   0.35522   0.00000  Uiso   1.00
C577   C     0.83333   0.49990   0.64477   0.00000  Uiso   1.00
C578   C     0.68862   0.45878   0.51018   0.00000  Uiso   1.00
C579   C     0.97803   0.54122   0.48978   0.00000  Uiso   1.00
C580   C     0.97975   0.45756   0.49971   0.00000  Uiso   1.00
Cu581  Cu    0.83333   0.54689   0.50000   0.00000  Uiso   1.00
Cu582  Cu    0.83333   0.45311   0.50000   0.00000  Uiso   1.00
I583   I     0.76541   0.39387   0.41538   0.00000  Uiso   1.00
I584   I     0.90127   0.60613   0.58460   0.00000  Uiso   1.00
I585   I     0.89852   0.39143   0.58777   0.00000  Uiso   1.00
I586   I     0.76817   0.60856   0.41220   0.00000  Uiso   1.00
N587   N     0.83333   0.61736   0.50000   0.00000  Uiso   1.00
N588   N     0.83333   0.38264   0.50000   0.00000  Uiso   1.00
N589   N     0.72597   0.38489   0.54645   0.00000  Uiso   1.00
N590   N     0.94070   0.61509   0.45345   0.00000  Uiso   1.00
N591   N     0.94684   0.37753   0.48140   0.00000  Uiso   1.00
N592   N     0.71982   0.62248   0.51854   0.00000  Uiso   1.00
O593   O     0.77321   0.53958   0.50000   0.00000  Uiso   1.00
O594   O     0.89345   0.46042   0.50000   0.00000  Uiso   1.00
O595   O     0.89345   0.53958   0.50000   0.00000  Uiso   1.00
O596   O     0.77321   0.46042   0.50000   0.00000  Uiso   1.00
O597   O     0.83333   0.53959   0.42946   0.00000  Uiso   1.00
O598   O     0.83333   0.46041   0.57054   0.00000  Uiso   1.00
O599   O     0.83333   0.53959   0.57054   0.00000  Uiso   1.00
O600   O     0.83333   0.46041   0.42946   0.00000  Uiso   1.00
C601   C     0.08772   0.83361   0.50324   0.00000  Uiso   1.00
C602   C     0.02023   0.87577   0.50025   0.00000  Uiso   1.00
C603   C     0.29040   0.83257   0.49374   0.00000  Uiso   1.00
C604   C     0.04292   0.83410   0.50623   0.00000  Uiso   1.00
C605   C     0.14107   0.69181   0.46710   0.00000  Uiso   1.00
C606   C     0.19227   0.97486   0.53290   0.00000  Uiso   1.00
C607   C     0.19200   0.69088   0.53320   0.00000  Uiso   1.00
C608   C     0.14134   0.97578   0.46679   0.00000  Uiso   1.00
C609   C     0.04267   0.75081   0.53004   0.00000  Uiso   1.00
C610   C     0.29065   0.91585   0.46989   0.00000  Uiso   1.00
C611   C     0.29462   0.74641   0.48988   0.00000  Uiso   1.00
C612   C     0.24561   0.83306   0.49675   0.00000  Uiso   1.00
C613   C     0.03870   0.92026   0.51008   0.00000  Uiso   1.00
C614   C     0.16665   0.83340   0.40702   0.00000  Uiso   1.00
C615   C     0.16668   0.83327   0.59298   0.00000  Uiso   1.00
C616   C     0.16667   0.83343   0.35522   0.00000  Uiso   1.00
C617   C     0.16666   0.83324   0.64477   0.00000  Uiso   1.00
C618   C     0.02196   0.79211   0.51018   0.00000  Uiso   1.00
C619   C     0.31136   0.87456   0.48978   0.00000  Uiso   1.00
C620   C     0.31309   0.79090   0.49971   0.00000  Uiso   1.00
Cu621  Cu    0.16667   0.88022   0.50000   0.00000  Uiso   1.00
Cu622  Cu    0.16667   0.78645   0.50000   0.00000  Uiso   1.00
I623   I     0.09875   0.72720   0.41538   0.00000  Uiso   1.00
I624   I     0.23461   0.93947   0.58460   0.00000  Uiso   1.00
I625   I     0.23185   0.72476   0.58777   0.00000  Uiso   1.00
I626   I     0.10151   0.94190   0.41220   0.00000  Uiso   1.00
N627   N     0.16667   0.95069   0.50000   0.00000  Uiso   1.00
N628   N     0.16667   0.71598   0.50000   0.00000  Uiso   1.00
N629   N     0.05930   0.71823   0.54645   0.00000  Uiso   1.00
N630   N     0.27404   0.94843   0.45345   0.00000  Uiso   1.00
N631   N     0.28017   0.71086   0.48140   0.00000  Uiso   1.00
N632   N     0.05315   0.95581   0.51854   0.00000  Uiso   1.00
O633   O     0.10655   0.87291   0.50000   0.00000  Uiso   1.00
O634   O     0.22679   0.79375   0.50000   0.00000  Uiso   1.00
O635   O     0.22679   0.87291   0.50000   0.00000  Uiso   1.00
O636   O     0.10655   0.79375   0.50000   0.00000  Uiso   1.00
O637   O     0.16667   0.87292   0.42946   0.00000  Uiso   1.00
O638   O     0.16667   0.79375   0.57054   0.00000  Uiso   1.00
O639   O     0.16667   0.87292   0.57054   0.00000  Uiso   1.00
O640   O     0.16667   0.79375   0.42946   0.00000  Uiso   1.00
C641   C     0.42105   0.83361   0.50324   0.00000  Uiso   1.00
C642   C     0.35357   0.87577   0.50025   0.00000  Uiso   1.00
C643   C     0.62373   0.83257   0.49374   0.00000  Uiso   1.00
C644   C     0.37626   0.83410   0.50623   0.00000  Uiso   1.00
C645   C     0.47440   0.69181   0.46710   0.00000  Uiso   1.00
C646   C     0.52560   0.97486   0.53290   0.00000  Uiso   1.00
C647   C     0.52533   0.69088   0.53320   0.00000  Uiso   1.00
C648   C     0.47467   0.97578   0.46679   0.00000  Uiso   1.00
C649   C     0.37601   0.75081   0.53004   0.00000  Uiso   1.00
C650   C     0.62399   0.91585   0.46989   0.00000  Uiso   1.00
C651   C     0.62795   0.74641   0.48988   0.00000  Uiso   1.00
C652   C     0.57894   0.83306   0.49675   0.00000  Uiso   1.00
C653   C     0.37203   0.92026   0.51008   0.00000  Uiso   1.00
C654   C     0.49998   0.83340   0.40702   0.00000  Uiso   1.00
C655   C     0.50001   0.83327   0.59298   0.00000  Uiso   1.00
C656   C     0.50000   0.83343   0.35522   0.00000  Uiso   1.00
C657   C     0.50000   0.83324   0.64477   0.00000  Uiso   1.00
C658   C     0.35529   0.79211   0.51018   0.00000  Uiso   1.00
C659   C     0.64470   0.87456   0.48978   0.00000  Uiso   1.00
C660   C     0.64642   0.79090   0.49971   0.00000  Uiso   1.00
Cu661  Cu    0.50000   0.88022   0.50000   0.00000  Uiso   1.00
Cu662  Cu    0.50000   0.78645   0.50000   0.00000  Uiso   1.00
I663   I     0.43208   0.72720   0.41538   0.00000  Uiso   1.00
I664   I     0.56794   0.93947   0.58460   0.00000  Uiso   1.00
I665   I     0.56518   0.72476   0.58777   0.00000  Uiso   1.00
I666   I     0.43484   0.94190   0.41220   0.00000  Uiso   1.00
N667   N     0.50000   0.95069   0.50000   0.00000  Uiso   1.00
N668   N     0.50000   0.71598   0.50000   0.00000  Uiso   1.00
N669   N     0.39264   0.71823   0.54645   0.00000  Uiso   1.00
N670   N     0.60737   0.94843   0.45345   0.00000  Uiso   1.00
N671   N     0.61351   0.71086   0.48140   0.00000  Uiso   1.00
N672   N     0.38648   0.95581   0.51854   0.00000  Uiso   1.00
O673   O     0.43988   0.87291   0.50000   0.00000  Uiso   1.00
O674   O     0.56012   0.79375   0.50000   0.00000  Uiso   1.00
O675   O     0.56012   0.87291   0.50000   0.00000  Uiso   1.00
O676   O     0.43988   0.79375   0.50000   0.00000  Uiso   1.00
O677   O     0.50000   0.87292   0.42946   0.00000  Uiso   1.00
O678   O     0.50000   0.79375   0.57054   0.00000  Uiso   1.00
O679   O     0.50000   0.87292   0.57054   0.00000  Uiso   1.00
O680   O     0.50000   0.79375   0.42946   0.00000  Uiso   1.00
C681   C     0.75439   0.83361   0.50324   0.00000  Uiso   1.00
C682   C     0.68690   0.87577   0.50025   0.00000  Uiso   1.00
C683   C     0.95706   0.83257   0.49374   0.00000  Uiso   1.00
C684   C     0.70959   0.83410   0.50623   0.00000  Uiso   1.00
C685   C     0.80774   0.69181   0.46710   0.00000  Uiso   1.00
C686   C     0.85894   0.97486   0.53290   0.00000  Uiso   1.00
C687   C     0.85867   0.69088   0.53320   0.00000  Uiso   1.00
C688   C     0.80800   0.97578   0.46679   0.00000  Uiso   1.00
C689   C     0.70934   0.75081   0.53004   0.00000  Uiso   1.00
C690   C     0.95732   0.91585   0.46989   0.00000  Uiso   1.00
C691   C     0.96128   0.74641   0.48988   0.00000  Uiso   1.00
C692   C     0.91228   0.83306   0.49675   0.00000  Uiso   1.00
C693   C     0.70537   0.92026   0.51008   0.00000  Uiso   1.00
C694   C     0.83332   0.83340   0.40702   0.00000  Uiso   1.00
C695   C     0.83335   0.83327   0.59298   0.00000  Uiso   1.00
C696   C     0.83333   0.83343   0.35522   0.00000  Uiso   1.00
C697   C     0.83333   0.83324   0.64477   0.00000  Uiso   1.00
C698   C     0.68862   0.79211   0.51018   0.00000  Uiso   1.00
C699   C     0.97803   0.87456   0.48978   0.00000  Uiso   1.00
C700   C     0.97975   0.79090   0.49971   0.00000  Uiso   1.00
Cu701  Cu    0.83333   0.88022   0.50000   0.00000  Uiso   1.00
Cu702  Cu    0.83333   0.78645   0.50000   0.00000  Uiso   1.00
I703   I     0.76541   0.72720   0.41538   0.00000  Uiso   1.00
I704   I     0.90127   0.93947   0.58460   0.00000  Uiso   1.00
I705   I     0.89852   0.72476   0.58777   0.00000  Uiso   1.00
I706   I     0.76817   0.94190   0.41220   0.00000  Uiso   1.00
N707   N     0.83333   0.95069   0.50000   0.00000  Uiso   1.00
N708   N     0.83333   0.71598   0.50000   0.00000  Uiso   1.00
N709   N     0.72597   0.71823   0.54645   0.00000  Uiso   1.00
N710   N     0.94070   0.94843   0.45345   0.00000  Uiso   1.00
N711   N     0.94684   0.71086   0.48140   0.00000  Uiso   1.00
N712   N     0.71982   0.95581   0.51854   0.00000  Uiso   1.00
O713   O     0.77321   0.87291   0.50000   0.00000  Uiso   1.00
O714   O     0.89345   0.79375   0.50000   0.00000  Uiso   1.00
O715   O     0.89345   0.87291   0.50000   0.00000  Uiso   1.00
O716   O     0.77321   0.79375   0.50000   0.00000  Uiso   1.00
O717   O     0.83333   0.87292   0.42946   0.00000  Uiso   1.00
O718   O     0.83333   0.79375   0.57054   0.00000  Uiso   1.00
O719   O     0.83333   0.87292   0.57054   0.00000  Uiso   1.00
O720   O     0.83333   0.79375   0.42946   0.00000  Uiso   1.00
C721   C     0.08772   0.16694   0.83657   0.00000  Uiso   1.00
C722   C     0.02023   0.20911   0.83358   0.00000  Uiso   1.00
C723   C     0.29040   0.16590   0.82707   0.00000  Uiso   1.00
C724   C     0.04292   0.16744   0.83957   0.00000  Uiso   1.00
C725   C     0.14107   0.02514   0.80043   0.00000  Uiso   1.00
C726   C     0.19227   0.30819   0.86623   0.00000  Uiso   1.00
C727   C     0.19200   0.02422   0.86654   0.00000  Uiso   1.00
C728   C     0.14134   0.30912   0.80012   0.00000  Uiso   1.00
C729   C     0.04267   0.08415   0.86337   0.00000  Uiso   1.00
C730   C     0.29065   0.24918   0.80323   0.00000  Uiso   1.00
C731   C     0.29462   0.07974   0.82321   0.00000  Uiso   1.00
C732   C     0.24561   0.16639   0.83008   0.00000  Uiso   1.00
C733   C     0.03870   0.25360   0.84341   0.00000  Uiso   1.00
C734   C     0.16665   0.16673   0.74036   0.00000  Uiso   1.00
C735   C     0.16668   0.16660   0.92631   0.00000  Uiso   1.00
C736   C     0.16667   0.16676   0.68856   0.00000  Uiso   1.00
C737   C     0.16666   0.16657   0.97811   0.00000  Uiso   1.00
C738   C     0.02196   0.12545   0.84352   0.00000  Uiso   1.00
C739   C     0.31136   0.20789   0.82311   0.00000  Uiso   1.00
C740   C     0.31309   0.12423   0.83305   0.00000  Uiso   1.00
Cu741  Cu    0.16667   0.21355   0.83333   0.00000  Uiso   1.00
Cu742  Cu    0.16667   0.11978   0.83333   0.00000  Uiso   1.00
I743   I     0.09875   0.06054   0.74871   0.00000  Uiso   1.00
I744   I     0.23461   0.27280   0.91794   0.00000  Uiso   1.00
I745   I     0.23185   0.05810   0.92110   0.00000  Uiso   1.00
I746   I     0.10151   0.27523   0.74553   0.00000  Uiso   1.00
N747   N     0.16667   0.28402   0.83333   0.00000  Uiso   1.00
N748   N     0.16667   0.04931   0.83333   0.00000  Uiso   1.00
N749   N     0.05930   0.05156   0.87979   0.00000  Uiso   1.00
N750   N     0.27404   0.28176   0.78679   0.00000  Uiso   1.00
N751   N     0.28017   0.04419   0.81474   0.00000  Uiso   1.00
N752   N     0.05315   0.28914   0.85188   0.00000  Uiso   1.00
O753   O     0.10655   0.20625   0.83333   0.00000  Uiso   1.00
O754   O     0.22679   0.12709   0.83334   0.00000  Uiso   1.00
O755   O     0.22679   0.20625   0.83334   0.00000  Uiso   1.00
O756   O     0.10655   0.12709   0.83333   0.00000  Uiso   1.00
O757   O     0.16667   0.20625   0.76280   0.00000  Uiso   1.00
O758   O     0.16667   0.12708   0.90387   0.00000  Uiso   1.00
O759   O     0.16667   0.20625   0.90387   0.00000  Uiso   1.00
O760   O     0.16667   0.12708   0.76280   0.00000  Uiso   1.00
C761   C     0.42105   0.16694   0.83657   0.00000  Uiso   1.00
C762   C     0.35357   0.20911   0.83358   0.00000  Uiso   1.00
C763   C     0.62373   0.16590   0.82707   0.00000  Uiso   1.00
C764   C     0.37626   0.16744   0.83957   0.00000  Uiso   1.00
C765   C     0.47440   0.02514   0.80043   0.00000  Uiso   1.00
C766   C     0.52560   0.30819   0.86623   0.00000  Uiso   1.00
C767   C     0.52533   0.02422   0.86654   0.00000  Uiso   1.00
C768   C     0.47467   0.30912   0.80012   0.00000  Uiso   1.00
C769   C     0.37601   0.08415   0.86337   0.00000  Uiso   1.00
C770   C     0.62399   0.24918   0.80323   0.00000  Uiso   1.00
C771   C     0.62795   0.07974   0.82321   0.00000  Uiso   1.00
C772   C     0.57894   0.16639   0.83008   0.00000  Uiso   1.00
C773   C     0.37203   0.25360   0.84341   0.00000  Uiso   1.00
C774   C     0.49998   0.16673   0.74036   0.00000  Uiso   1.00
C775   C     0.50001   0.16660   0.92631   0.00000  Uiso   1.00
C776   C     0.50000   0.16676   0.68856   0.00000  Uiso   1.00
C777   C     0.50000   0.16657   0.97811   0.00000  Uiso   1.00
C778   C     0.35529   0.12545   0.84352   0.00000  Uiso   1.00
C779   C     0.64470   0.20789   0.82311   0.00000  Uiso   1.00
C780   C     0.64642   0.12423   0.83305   0.00000  Uiso   1.00
Cu781  Cu    0.50000   0.21355   0.83333   0.00000  Uiso   1.00
Cu782  Cu    0.50000   0.11978   0.83333   0.00000  Uiso   1.00
I783   I     0.43208   0.06054   0.74871   0.00000  Uiso   1.00
I784   I     0.56794   0.27280   0.91794   0.00000  Uiso   1.00
I785   I     0.56518   0.05810   0.92110   0.00000  Uiso   1.00
I786   I     0.43484   0.27523   0.74553   0.00000  Uiso   1.00
N787   N     0.50000   0.28402   0.83333   0.00000  Uiso   1.00
N788   N     0.50000   0.04931   0.83333   0.00000  Uiso   1.00
N789   N     0.39264   0.05156   0.87979   0.00000  Uiso   1.00
N790   N     0.60737   0.28176   0.78679   0.00000  Uiso   1.00
N791   N     0.61351   0.04419   0.81474   0.00000  Uiso   1.00
N792   N     0.38648   0.28914   0.85188   0.00000  Uiso   1.00
O793   O     0.43988   0.20625   0.83333   0.00000  Uiso   1.00
O794   O     0.56012   0.12709   0.83334   0.00000  Uiso   1.00
O795   O     0.56012   0.20625   0.83334   0.00000  Uiso   1.00
O796   O     0.43988   0.12709   0.83333   0.00000  Uiso   1.00
O797   O     0.50000   0.20625   0.76280   0.00000  Uiso   1.00
O798   O     0.50000   0.12708   0.90387   0.00000  Uiso   1.00
O799   O     0.50000   0.20625   0.90387   0.00000  Uiso   1.00
O800   O     0.50000   0.12708   0.76280   0.00000  Uiso   1.00
C801   C     0.75439   0.16694   0.83657   0.00000  Uiso   1.00
C802   C     0.68690   0.20911   0.83358   0.00000  Uiso   1.00
C803   C     0.95706   0.16590   0.82707   0.00000  Uiso   1.00
C804   C     0.70959   0.16744   0.83957   0.00000  Uiso   1.00
C805   C     0.80774   0.02514   0.80043   0.00000  Uiso   1.00
C806   C     0.85894   0.30819   0.86623   0.00000  Uiso   1.00
C807   C     0.85867   0.02422   0.86654   0.00000  Uiso   1.00
C808   C     0.80800   0.30912   0.80012   0.00000  Uiso   1.00
C809   C     0.70934   0.08415   0.86337   0.00000  Uiso   1.00
C810   C     0.95732   0.24918   0.80323   0.00000  Uiso   1.00
C811   C     0.96128   0.07974   0.82321   0.00000  Uiso   1.00
C812   C     0.91228   0.16639   0.83008   0.00000  Uiso   1.00
C813   C     0.70537   0.25360   0.84341   0.00000  Uiso   1.00
C814   C     0.83332   0.16673   0.74036   0.00000  Uiso   1.00
C815   C     0.83335   0.16660   0.92631   0.00000  Uiso   1.00
C816   C     0.83333   0.16676   0.68856   0.00000  Uiso   1.00
C817   C     0.83333   0.16657   0.97811   0.00000  Uiso   1.00
C818   C     0.68862   0.12545   0.84352   0.00000  Uiso   1.00
C819   C     0.97803   0.20789   0.82311   0.00000  Uiso   1.00
C820   C     0.97975   0.12423   0.83305   0.00000  Uiso   1.00
Cu821  Cu    0.83333   0.21355   0.83333   0.00000  Uiso   1.00
Cu822  Cu    0.83333   0.11978   0.83333   0.00000  Uiso   1.00
I823   I     0.76541   0.06054   0.74871   0.00000  Uiso   1.00
I824   I     0.90127   0.27280   0.91794   0.00000  Uiso   1.00
I825   I     0.89852   0.05810   0.92110   0.00000  Uiso   1.00
I826   I     0.76817   0.27523   0.74553   0.00000  Uiso   1.00
N827   N     0.83333   0.28402   0.83333   0.00000  Uiso   1.00
N828   N     0.83333   0.04931   0.83333   0.00000  Uiso   1.00
N829   N     0.72597   0.05156   0.87979   0.00000  Uiso   1.00
N830   N     0.94070   0.28176   0.78679   0.00000  Uiso   1.00
N831   N     0.94684   0.04419   0.81474   0.00000  Uiso   1.00
N832   N     0.71982   0.28914   0.85188   0.00000  Uiso   1.00
O833   O     0.77321   0.20625   0.83333   0.00000  Uiso   1.00
O834   O     0.89345   0.12709   0.83334   0.00000  Uiso   1.00
O835   O     0.89345   0.20625   0.83334   0.00000  Uiso   1.00
O836   O     0.77321   0.12709   0.83333   0.00000  Uiso   1.00
O837   O     0.83333   0.20625   0.76280   0.00000  Uiso   1.00
O838   O     0.83333   0.12708   0.90387   0.00000  Uiso   1.00
O839   O     0.83333   0.20625   0.90387   0.00000  Uiso   1.00
O840   O     0.83333   0.12708   0.76280   0.00000  Uiso   1.00
C841   C     0.08772   0.50028   0.83657   0.00000  Uiso   1.00
C842   C     0.02023   0.54244   0.83358   0.00000  Uiso   1.00
C843   C     0.29040   0.49923   0.82707   0.00000  Uiso   1.00
C844   C     0.04292   0.50077   0.83957   0.00000  Uiso   1.00
C845   C     0.14107   0.35848   0.80043   0.00000  Uiso   1.00
C846   C     0.19227   0.64153   0.86623   0.00000  Uiso   1.00
C847   C     0.19200   0.35755   0.86654   0.00000  Uiso   1.00
C848   C     0.14134   0.64245   0.80012   0.00000  Uiso   1.00
C849   C     0.04267   0.41748   0.86337   0.00000  Uiso   1.00
C850   C     0.29065   0.58252   0.80323   0.00000  Uiso   1.00
C851   C     0.29462   0.41307   0.82321   0.00000  Uiso   1.00
C852   C     0.24561   0.49973   0.83008   0.00000  Uiso   1.00
C853   C     0.03870   0.58693   0.84341   0.00000  Uiso   1.00
C854   C     0.16665   0.50007   0.74036   0.00000  Uiso   1.00
C855   C     0.16668   0.49993   0.92631   0.00000  Uiso   1.00
C856   C     0.16667   0.50010   0.68856   0.00000  Uiso   1.00
C857   C     0.16666   0.49990   0.97811   0.00000  Uiso   1.00
C858   C     0.02196   0.45878   0.84352   0.00000  Uiso   1.00
C859   C     0.31136   0.54122   0.82311   0.00000  Uiso   1.00
C860   C     0.31309   0.45756   0.83305   0.00000  Uiso   1.00
Cu861  Cu    0.16667   0.54689   0.83333   0.00000  Uiso   1.00
Cu862  Cu    0.16667   0.45311   0.83333   0.00000  Uiso   1.00
I863   I     0.09875   0.39387   0.74871   0.00000  Uiso   1.00
I864   I     0.23461   0.60613   0.91794   0.00000  Uiso   1.00
I865   I     0.23185   0.39143   0.92110   0.00000  Uiso   1.00
I866   I     0.10151   0.60856   0.74553   0.00000  Uiso   1.00
N867   N     0.16667   0.61736   0.83333   0.00000  Uiso   1.00
N868   N     0.16667   0.38264   0.83333   0.00000  Uiso   1.00
N869   N     0.05930   0.38489   0.87979   0.00000  Uiso   1.00
N870   N     0.27404   0.61509   0.78679   0.00000  Uiso   1.00
N871   N     0.28017   0.37753   0.81474   0.00000  Uiso   1.00
N872   N     0.05315   0.62248   0.85188   0.00000  Uiso   1.00
O873   O     0.10655   0.53958   0.83333   0.00000  Uiso   1.00
O874   O     0.22679   0.46042   0.83334   0.00000  Uiso   1.00
O875   O     0.22679   0.53958   0.83334   0.00000  Uiso   1.00
O876   O     0.10655   0.46042   0.83333   0.00000  Uiso   1.00
O877   O     0.16667   0.53959   0.76280   0.00000  Uiso   1.00
O878   O     0.16667   0.46041   0.90387   0.00000  Uiso   1.00
O879   O     0.16667   0.53959   0.90387   0.00000  Uiso   1.00
O880   O     0.16667   0.46041   0.76280   0.00000  Uiso   1.00
C881   C     0.42105   0.50028   0.83657   0.00000  Uiso   1.00
C882   C     0.35357   0.54244   0.83358   0.00000  Uiso   1.00
C883   C     0.62373   0.49923   0.82707   0.00000  Uiso   1.00
C884   C     0.37626   0.50077   0.83957   0.00000  Uiso   1.00
C885   C     0.47440   0.35848   0.80043   0.00000  Uiso   1.00
C886   C     0.52560   0.64153   0.86623   0.00000  Uiso   1.00
C887   C     0.52533   0.35755   0.86654   0.00000  Uiso   1.00
C888   C     0.47467   0.64245   0.80012   0.00000  Uiso   1.00
C889   C     0.37601   0.41748   0.86337   0.00000  Uiso   1.00
C890   C     0.62399   0.58252   0.80323   0.00000  Uiso   1.00
C891   C     0.62795   0.41307   0.82321   0.00000  Uiso   1.00
C892   C     0.57894   0.49973   0.83008   0.00000  Uiso   1.00
C893   C     0.37203   0.58693   0.84341   0.00000  Uiso   1.00
C894   C     0.49998   0.50007   0.74036   0.00000  Uiso   1.00
C895   C     0.50001   0.49993   0.92631   0.00000  Uiso   1.00
C896   C     0.50000   0.50010   0.68856   0.00000  Uiso   1.00
C897   C     0.50000   0.49990   0.97811   0.00000  Uiso   1.00
C898   C     0.35529   0.45878   0.84352   0.00000  Uiso   1.00
C899   C     0.64470   0.54122   0.82311   0.00000  Uiso   1.00
C900   C     0.64642   0.45756   0.83305   0.00000  Uiso   1.00
Cu901  Cu    0.50000   0.54689   0.83333   0.00000  Uiso   1.00
Cu902  Cu    0.50000   0.45311   0.83333   0.00000  Uiso   1.00
I903   I     0.43208   0.39387   0.74871   0.00000  Uiso   1.00
I904   I     0.56794   0.60613   0.91794   0.00000  Uiso   1.00
I905   I     0.56518   0.39143   0.92110   0.00000  Uiso   1.00
I906   I     0.43484   0.60856   0.74553   0.00000  Uiso   1.00
N907   N     0.50000   0.61736   0.83333   0.00000  Uiso   1.00
N908   N     0.50000   0.38264   0.83333   0.00000  Uiso   1.00
N909   N     0.39264   0.38489   0.87979   0.00000  Uiso   1.00
N910   N     0.60737   0.61509   0.78679   0.00000  Uiso   1.00
N911   N     0.61351   0.37753   0.81474   0.00000  Uiso   1.00
N912   N     0.38648   0.62248   0.85188   0.00000  Uiso   1.00
O913   O     0.43988   0.53958   0.83333   0.00000  Uiso   1.00
O914   O     0.56012   0.46042   0.83334   0.00000  Uiso   1.00
O915   O     0.56012   0.53958   0.83334   0.00000  Uiso   1.00
O916   O     0.43988   0.46042   0.83333   0.00000  Uiso   1.00
O917   O     0.50000   0.53959   0.76280   0.00000  Uiso   1.00
O918   O     0.50000   0.46041   0.90387   0.00000  Uiso   1.00
O919   O     0.50000   0.53959   0.90387   0.00000  Uiso   1.00
O920   O     0.50000   0.46041   0.76280   0.00000  Uiso   1.00
C921   C     0.75439   0.50028   0.83657   0.00000  Uiso   1.00
C922   C     0.68690   0.54244   0.83358   0.00000  Uiso   1.00
C923   C     0.95706   0.49923   0.82707   0.00000  Uiso   1.00
C924   C     0.70959   0.50077   0.83957   0.00000  Uiso   1.00
C925   C     0.80774   0.35848   0.80043   0.00000  Uiso   1.00
C926   C     0.85894   0.64153   0.86623   0.00000  Uiso   1.00
C927   C     0.85867   0.35755   0.86654   0.00000  Uiso   1.00
C928   C     0.80800   0.64245   0.80012   0.00000  Uiso   1.00
C929   C     0.70934   0.41748   0.86337   0.00000  Uiso   1.00
C930   C     0.95732   0.58252   0.80323   0.00000  Uiso   1.00
C931   C     0.96128   0.41307   0.82321   0.00000  Uiso   1.00
C932   C     0.91228   0.49973   0.83008   0.00000  Uiso   1.00
C933   C     0.70537   0.58693   0.84341   0.00000  Uiso   1.00
C934   C     0.83332   0.50007   0.74036   0.00000  Uiso   1.00
C935   C     0.83335   0.49993   0.92631   0.00000  Uiso   1.00
C936   C     0.83333   0.50010   0.68856   0.00000  Uiso   1.00
C937   C     0.83333   0.49990   0.97811   0.00000  Uiso   1.00
C938   C     0.68862   0.45878   0.84352   0.00000  Uiso   1.00
C939   C     0.97803   0.54122   0.82311   0.00000  Uiso   1.00
C940   C     0.97975   0.45756   0.83305   0.00000  Uiso   1.00
Cu941  Cu    0.83333   0.54689   0.83333   0.00000  Uiso   1.00
Cu942  Cu    0.83333   0.45311   0.83333   0.00000  Uiso   1.00
I943   I     0.76541   0.39387   0.74871   0.00000  Uiso   1.00
I944   I     0.90127   0.60613   0.91794   0.00000  Uiso   1.00
I945   I     0.89852   0.39143   0.92110   0.00000  Uiso   1.00
I946   I     0.76817   0.60856   0.74553   0.00000  Uiso   1.00
N947   N     0.83333   0.61736   0.83333   0.00000  Uiso   1.00
N948   N     0.83333   0.38264   0.83333   0.00000  Uiso   1.00
N949   N     0.72597   0.38489   0.87979   0.00000  Uiso   1.00
N950   N     0.94070   0.61509   0.78679   0.00000  Uiso   1.00
N951   N     0.94684   0.37753   0.81474   0.00000  Uiso   1.00
N952   N     0.71982   0.62248   0.85188   0.00000  Uiso   1.00
O953   O     0.77321   0.53958   0.83333   0.00000  Uiso   1.00
O954   O     0.89345   0.46042   0.83334   0.00000  Uiso   1.00
O955   O     0.89345   0.53958   0.83334   0.00000  Uiso   1.00
O956   O     0.77321   0.46042   0.83333   0.00000  Uiso   1.00
O957   O     0.83333   0.53959   0.76280   0.00000  Uiso   1.00
O958   O     0.83333   0.46041   0.90387   0.00000  Uiso   1.00
O959   O     0.83333   0.53959   0.90387   0.00000  Uiso   1.00
O960   O     0.83333   0.46041   0.76280   0.00000  Uiso   1.00
C961   C     0.08772   0.83361   0.83657   0.00000  Uiso   1.00
C962   C     0.02023   0.87577   0.83358   0.00000  Uiso   1.00
C963   C     0.29040   0.83257   0.82707   0.00000  Uiso   1.00
C964   C     0.04292   0.83410   0.83957   0.00000  Uiso   1.00
C965   C     0.14107   0.69181   0.80043   0.00000  Uiso   1.00
C966   C     0.19227   0.97486   0.86623   0.00000  Uiso   1.00
C967   C     0.19200   0.69088   0.86654   0.00000  Uiso   1.00
C968   C     0.14134   0.97578   0.80012   0.00000  Uiso   1.00
C969   C     0.04267   0.75081   0.86337   0.00000  Uiso   1.00
C970   C     0.29065   0.91585   0.80323   0.00000  Uiso   1.00
C971   C     0.29462   0.74641   0.82321   0.00000  Uiso   1.00
C972   C     0.24561   0.83306   0.83008   0.00000  Uiso   1.00
C973   C     0.03870   0.92026   0.84341   0.00000  Uiso   1.00
C974   C     0.16665   0.83340   0.74036   0.00000  Uiso   1.00
C975   C     0.16668   0.83327   0.92631   0.00000  Uiso   1.00
C976   C     0.16667   0.83343   0.68856   0.00000  Uiso   1.00
C977   C     0.16666   0.83324   0.97811   0.00000  Uiso   1.00
C978   C     0.02196   0.79211   0.84352   0.00000  Uiso   1.00
C979   C     0.31136   0.87456   0.82311   0.00000  Uiso   1.00
C980   C     0.31309   0.79090   0.83305   0.00000  Uiso   1.00
Cu981  Cu    0.16667   0.88022   0.83333   0.00000  Uiso   1.00
Cu982  Cu    0.16667   0.78645   0.83333   0.00000  Uiso   1.00
I983   I     0.09875   0.72720   0.74871   0.00000  Uiso   1.00
I984   I     0.23461   0.93947   0.91794   0.00000  Uiso   1.00
I985   I     0.23185   0.72476   0.92110   0.00000  Uiso   1.00
I986   I     0.10151   0.94190   0.74553   0.00000  Uiso   1.00
N987   N     0.16667   0.95069   0.83333   0.00000  Uiso   1.00
N988   N     0.16667   0.71598   0.83333   0.00000  Uiso   1.00
N989   N     0.05930   0.71823   0.87979   0.00000  Uiso   1.00
N990   N     0.27404   0.94843   0.78679   0.00000  Uiso   1.00
N991   N     0.28017   0.71086   0.81474   0.00000  Uiso   1.00
N992   N     0.05315   0.95581   0.85188   0.00000  Uiso   1.00
O993   O     0.10655   0.87291   0.83333   0.00000  Uiso   1.00
O994   O     0.22679   0.79375   0.83334   0.00000  Uiso   1.00
O995   O     0.22679   0.87291   0.83334   0.00000  Uiso   1.00
O996   O     0.10655   0.79375   0.83333   0.00000  Uiso   1.00
O997   O     0.16667   0.87292   0.76280   0.00000  Uiso   1.00
O998   O     0.16667   0.79375   0.90387   0.00000  Uiso   1.00
O999   O     0.16667   0.87292   0.90387   0.00000  Uiso   1.00
O1000  O     0.16667   0.79375   0.76280   0.00000  Uiso   1.00
C1001  C     0.42105   0.83361   0.83657   0.00000  Uiso   1.00
C1002  C     0.35357   0.87577   0.83358   0.00000  Uiso   1.00
C1003  C     0.62373   0.83257   0.82707   0.00000  Uiso   1.00
C1004  C     0.37626   0.83410   0.83957   0.00000  Uiso   1.00
C1005  C     0.47440   0.69181   0.80043   0.00000  Uiso   1.00
C1006  C     0.52560   0.97486   0.86623   0.00000  Uiso   1.00
C1007  C     0.52533   0.69088   0.86654   0.00000  Uiso   1.00
C1008  C     0.47467   0.97578   0.80012   0.00000  Uiso   1.00
C1009  C     0.37601   0.75081   0.86337   0.00000  Uiso   1.00
C1010  C     0.62399   0.91585   0.80323   0.00000  Uiso   1.00
C1011  C     0.62795   0.74641   0.82321   0.00000  Uiso   1.00
C1012  C     0.57894   0.83306   0.83008   0.00000  Uiso   1.00
C1013  C     0.37203   0.92026   0.84341   0.00000  Uiso   1.00
C1014  C     0.49998   0.83340   0.74036   0.00000  Uiso   1.00
C1015  C     0.50001   0.83327   0.92631   0.00000  Uiso   1.00
C1016  C     0.50000   0.83343   0.68856   0.00000  Uiso   1.00
C1017  C     0.50000   0.83324   0.97811   0.00000  Uiso   1.00
C1018  C     0.35529   0.79211   0.84352   0.00000  Uiso   1.00
C1019  C     0.64470   0.87456   0.82311   0.00000  Uiso   1.00
C1020  C     0.64642   0.79090   0.83305   0.00000  Uiso   1.00
Cu1021 Cu    0.50000   0.88022   0.83333   0.00000  Uiso   1.00
Cu1022 Cu    0.50000   0.78645   0.83333   0.00000  Uiso   1.00
I1023  I     0.43208   0.72720   0.74871   0.00000  Uiso   1.00
I1024  I     0.56794   0.93947   0.91794   0.00000  Uiso   1.00
I1025  I     0.56518   0.72476   0.92110   0.00000  Uiso   1.00
I1026  I     0.43484   0.94190   0.74553   0.00000  Uiso   1.00
N1027  N     0.50000   0.95069   0.83333   0.00000  Uiso   1.00
N1028  N     0.50000   0.71598   0.83333   0.00000  Uiso   1.00
N1029  N     0.39264   0.71823   0.87979   0.00000  Uiso   1.00
N1030  N     0.60737   0.94843   0.78679   0.00000  Uiso   1.00
N1031  N     0.61351   0.71086   0.81474   0.00000  Uiso   1.00
N1032  N     0.38648   0.95581   0.85188   0.00000  Uiso   1.00
O1033  O     0.43988   0.87291   0.83333   0.00000  Uiso   1.00
O1034  O     0.56012   0.79375   0.83334   0.00000  Uiso   1.00
O1035  O     0.56012   0.87291   0.83334   0.00000  Uiso   1.00
O1036  O     0.43988   0.79375   0.83333   0.00000  Uiso   1.00
O1037  O     0.50000   0.87292   0.76280   0.00000  Uiso   1.00
O1038  O     0.50000   0.79375   0.90387   0.00000  Uiso   1.00
O1039  O     0.50000   0.87292   0.90387   0.00000  Uiso   1.00
O1040  O     0.50000   0.79375   0.76280   0.00000  Uiso   1.00
C1041  C     0.75439   0.83361   0.83657   0.00000  Uiso   1.00
C1042  C     0.68690   0.87577   0.83358   0.00000  Uiso   1.00
C1043  C     0.95706   0.83257   0.82707   0.00000  Uiso   1.00
C1044  C     0.70959   0.83410   0.83957   0.00000  Uiso   1.00
C1045  C     0.80774   0.69181   0.80043   0.00000  Uiso   1.00
C1046  C     0.85894   0.97486   0.86623   0.00000  Uiso   1.00
C1047  C     0.85867   0.69088   0.86654   0.00000  Uiso   1.00
C1048  C     0.80800   0.97578   0.80012   0.00000  Uiso   1.00
C1049  C     0.70934   0.75081   0.86337   0.00000  Uiso   1.00
C1050  C     0.95732   0.91585   0.80323   0.00000  Uiso   1.00
C1051  C     0.96128   0.74641   0.82321   0.00000  Uiso   1.00
C1052  C     0.91228   0.83306   0.83008   0.00000  Uiso   1.00
C1053  C     0.70537   0.92026   0.84341   0.00000  Uiso   1.00
C1054  C     0.83332   0.83340   0.74036   0.00000  Uiso   1.00
C1055  C     0.83335   0.83327   0.92631   0.00000  Uiso   1.00
C1056  C     0.83333   0.83343   0.68856   0.00000  Uiso   1.00
C1057  C     0.83333   0.83324   0.97811   0.00000  Uiso   1.00
C1058  C     0.68862   0.79211   0.84352   0.00000  Uiso   1.00
C1059  C     0.97803   0.87456   0.82311   0.00000  Uiso   1.00
C1060  C     0.97975   0.79090   0.83305   0.00000  Uiso   1.00
Cu1061 Cu    0.83333   0.88022   0.83333   0.00000  Uiso   1.00
Cu1062 Cu    0.83333   0.78645   0.83333   0.00000  Uiso   1.00
I1063  I     0.76541   0.72720   0.74871   0.00000  Uiso   1.00
I1064  I     0.90127   0.93947   0.91794   0.00000  Uiso   1.00
I1065  I     0.89852   0.72476   0.92110   0.00000  Uiso   1.00
I1066  I     0.76817   0.94190   0.74553   0.00000  Uiso   1.00
N1067  N     0.83333   0.95069   0.83333   0.00000  Uiso   1.00
N1068  N     0.83333   0.71598   0.83333   0.00000  Uiso   1.00
N1069  N     0.72597   0.71823   0.87979   0.00000  Uiso   1.00
N1070  N     0.94070   0.94843   0.78679   0.00000  Uiso   1.00
N1071  N     0.94684   0.71086   0.81474   0.00000  Uiso   1.00
N1072  N     0.71982   0.95581   0.85188   0.00000  Uiso   1.00
O1073  O     0.77321   0.87291   0.83333   0.00000  Uiso   1.00
O1074  O     0.89345   0.79375   0.83334   0.00000  Uiso   1.00
O1075  O     0.89345   0.87291   0.83334   0.00000  Uiso   1.00
O1076  O     0.77321   0.79375   0.83333   0.00000  Uiso   1.00
O1077  O     0.83333   0.87292   0.76280   0.00000  Uiso   1.00
O1078  O     0.83333   0.79375   0.90387   0.00000  Uiso   1.00
O1079  O     0.83333   0.87292   0.90387   0.00000  Uiso   1.00
O1080  O     0.83333   0.79375   0.76280   0.00000  Uiso   1.00
loop_
_geom_bond_atom_site_label_1
_geom_bond_atom_site_label_2
_geom_bond_distance
_geom_bond_site_symmetry_2
_ccdc_geom_bond_type
C1     C4      1.477   .     S
C1     O33     1.307   .     A
C1     O36     1.310   .     A
C2     C4      1.415   .     A
C2     C13     1.449   .     S
C2     C99     1.394   1_455 S
C3     C19     1.412   .     A
C3     C20     1.415   .     A
C3     C12     1.477   .     S
C4     C18     1.412   .     A
C5     N28     1.381   .     A
C5     I23     2.151   .     S
C5     C248    1.431   1_545 S
C6     N27     1.381   .     A
C6     I24     2.151   .     S
C6     C127    1.431   .     S
C7     N28     1.381   .     A
C7     I25     2.153   .     S
C7     C246    1.431   1_545 S
C8     I26     2.153   .     S
C8     N27     1.381   .     A
C8     C125    1.431   .     S
C9     N29     1.157   .     T
C9     C18     1.453   .     S
C10    N30     1.157   .     T
C10    C19     1.452   .     S
C11    N31     1.156   .     T
C11    C20     1.449   .     S
C12    O34     1.307   .     A
C12    O35     1.310   .     A
C13    N32     1.156   .     T
C14    O37     1.300   .     A
C14    C16     1.407   .     S
C14    O40     1.298   .     A
C15    O38     1.300   .     A
C15    O39     1.298   .     A
C15    C17     1.407   .     S
C16    C737    1.189   1_554 S
C17    C376    1.189   .     S
C18    C100    1.394   1_455 S
C19    C42     1.394   .     S
C20    C58     1.394   .     S
Cu21   O35     1.981   .     S
Cu21   N27     2.043   .     S
Cu21   Cu22    2.719   .     S
Cu21   O39     1.926   .     S
Cu21   O33     1.985   .     S
Cu21   O37     1.929   .     S
Cu22   O36     1.981   .     S
Cu22   N28     2.043   .     S
Cu22   O34     1.985   .     S
Cu22   O38     1.929   .     S
Cu22   O40     1.926   .     S
C41    C44     1.477   .     S
C41    O73     1.307   .     A
C41    O76     1.310   .     A
C42    C44     1.415   .     A
C42    C53     1.449   .     S
C43    C59     1.412   .     A
C43    C60     1.415   .     A
C43    C52     1.477   .     S
C44    C58     1.412   .     A
C45    N68     1.381   .     A
C45    I63     2.151   .     S
C45    C288    1.431   1_545 S
C46    N67     1.381   .     A
C46    I64     2.151   .     S
C46    C167    1.431   .     S
C47    N68     1.381   .     A
C47    I65     2.153   .     S
C47    C286    1.431   1_545 S
C48    I66     2.153   .     S
C48    N67     1.381   .     A
C48    C165    1.431   .     S
C49    N69     1.157   .     T
C49    C58     1.453   .     S
C50    N70     1.157   .     T
C50    C59     1.452   .     S
C51    N71     1.156   .     T
C51    C60     1.449   .     S
C52    O74     1.307   .     A
C52    O75     1.310   .     A
C53    N72     1.156   .     T
C54    O77     1.300   .     A
C54    C56     1.407   .     S
C54    O80     1.298   .     A
C55    O78     1.300   .     A
C55    O79     1.298   .     A
C55    C57     1.407   .     S
C56    C777    1.189   1_554 S
C57    C416    1.189   .     S
C59    C82     1.394   .     S
C60    C98     1.394   .     S
Cu61   O75     1.981   .     S
Cu61   N67     2.043   .     S
Cu61   Cu62    2.719   .     S
Cu61   O79     1.926   .     S
Cu61   O73     1.985   .     S
Cu61   O77     1.929   .     S
Cu62   O76     1.981   .     S
Cu62   N68     2.043   .     S
Cu62   O74     1.985   .     S
Cu62   O78     1.929   .     S
Cu62   O80     1.926   .     S
C81    C84     1.477   .     S
C81    O113    1.307   .     A
C81    O116    1.310   .     A
C82    C84     1.415   .     A
C82    C93     1.449   .     S
C83    C99     1.412   .     A
C83    C100    1.415   .     A
C83    C92     1.477   .     S
C84    C98     1.412   .     A
C85    N108    1.381   .     A
C85    I103    2.151   .     S
C85    C328    1.431   1_545 S
C86    N107    1.381   .     A
C86    I104    2.151   .     S
C86    C207    1.431   .     S
C87    N108    1.381   .     A
C87    I105    2.153   .     S
C87    C326    1.431   1_545 S
C88    I106    2.153   .     S
C88    N107    1.381   .     A
C88    C205    1.431   .     S
C89    N109    1.157   .     T
C89    C98     1.453   .     S
C90    N110    1.157   .     T
C90    C99     1.452   .     S
C91    N111    1.156   .     T
C91    C100    1.449   .     S
C92    O114    1.307   .     A
C92    O115    1.310   .     A
C93    N112    1.156   .     T
C94    O117    1.300   .     A
C94    C96     1.407   .     S
C94    O120    1.298   .     A
C95    O118    1.300   .     A
C95    O119    1.298   .     A
C95    C97     1.407   .     S
C96    C817    1.189   1_554 S
C97    C456    1.189   .     S
C99    C2      1.394   1_655 S
C100   C18     1.394   1_655 S
Cu101  O115    1.981   .     S
Cu101  N107    2.043   .     S
Cu101  Cu102   2.719   .     S
Cu101  O119    1.926   .     S
Cu101  O113    1.985   .     S
Cu101  O117    1.929   .     S
Cu102  O116    1.981   .     S
Cu102  N108    2.043   .     S
Cu102  O114    1.985   .     S
Cu102  O118    1.929   .     S
Cu102  O120    1.926   .     S
C121   C124    1.477   .     S
C121   O153    1.307   .     A
C121   O156    1.310   .     A
C122   C124    1.415   .     A
C122   C133    1.449   .     S
C122   C219    1.394   1_455 S
C123   C139    1.412   .     A
C123   C140    1.415   .     A
C123   C132    1.477   .     S
C124   C138    1.412   .     A
C125   N148    1.381   .     A
C125   I143    2.151   .     S
C126   N147    1.381   .     A
C126   I144    2.151   .     S
C126   C247    1.431   .     S
C127   N148    1.381   .     A
C127   I145    2.153   .     S
C128   I146    2.153   .     S
C128   N147    1.381   .     A
C128   C245    1.431   .     S
C129   N149    1.157   .     T
C129   C138    1.453   .     S
C130   N150    1.157   .     T
C130   C139    1.452   .     S
C131   N151    1.156   .     T
C131   C140    1.449   .     S
C132   O154    1.307   .     A
C132   O155    1.310   .     A
C133   N152    1.156   .     T
C134   O157    1.300   .     A
C134   C136    1.407   .     S
C134   O160    1.298   .     A
C135   O158    1.300   .     A
C135   O159    1.298   .     A
C135   C137    1.407   .     S
C136   C857    1.189   1_554 S
C137   C496    1.189   .     S
C138   C220    1.394   1_455 S
C139   C162    1.394   .     S
C140   C178    1.394   .     S
Cu141  O155    1.981   .     S
Cu141  N147    2.043   .     S
Cu141  Cu142   2.719   .     S
Cu141  O159    1.926   .     S
Cu141  O153    1.985   .     S
Cu141  O157    1.929   .     S
Cu142  O156    1.981   .     S
Cu142  N148    2.043   .     S
Cu142  O154    1.985   .     S
Cu142  O158    1.929   .     S
Cu142  O160    1.926   .     S
C161   C164    1.477   .     S
C161   O193    1.307   .     A
C161   O196    1.310   .     A
C162   C164    1.415   .     A
C162   C173    1.449   .     S
C163   C179    1.412   .     A
C163   C180    1.415   .     A
C163   C172    1.477   .     S
C164   C178    1.412   .     A
C165   N188    1.381   .     A
C165   I183    2.151   .     S
C166   N187    1.381   .     A
C166   I184    2.151   .     S
C166   C287    1.431   .     S
C167   N188    1.381   .     A
C167   I185    2.153   .     S
C168   I186    2.153   .     S
C168   N187    1.381   .     A
C168   C285    1.431   .     S
C169   N189    1.157   .     T
C169   C178    1.453   .     S
C170   N190    1.157   .     T
C170   C179    1.452   .     S
C171   N191    1.156   .     T
C171   C180    1.449   .     S
C172   O194    1.307   .     A
C172   O195    1.310   .     A
C173   N192    1.156   .     T
C174   O197    1.300   .     A
C174   C176    1.407   .     S
C174   O200    1.298   .     A
C175   O198    1.300   .     A
C175   O199    1.298   .     A
C175   C177    1.407   .     S
C176   C897    1.189   1_554 S
C177   C536    1.189   .     S
C179   C202    1.394   .     S
C180   C218    1.394   .     S
Cu181  O195    1.981   .     S
Cu181  N187    2.043   .     S
Cu181  Cu182   2.719   .     S
Cu181  O199    1.926   .     S
Cu181  O193    1.985   .     S
Cu181  O197    1.929   .     S
Cu182  O196    1.981   .     S
Cu182  N188    2.043   .     S
Cu182  O194    1.985   .     S
Cu182  O198    1.929   .     S
Cu182  O200    1.926   .     S
C201   C204    1.477   .     S
C201   O233    1.307   .     A
C201   O236    1.310   .     A
C202   C204    1.415   .     A
C202   C213    1.449   .     S
C203   C219    1.412   .     A
C203   C220    1.415   .     A
C203   C212    1.477   .     S
C204   C218    1.412   .     A
C205   N228    1.381   .     A
C205   I223    2.151   .     S
C206   N227    1.381   .     A
C206   I224    2.151   .     S
C206   C327    1.431   .     S
C207   N228    1.381   .     A
C207   I225    2.153   .     S
C208   I226    2.153   .     S
C208   N227    1.381   .     A
C208   C325    1.431   .     S
C209   N229    1.157   .     T
C209   C218    1.453   .     S
C210   N230    1.157   .     T
C210   C219    1.452   .     S
C211   N231    1.156   .     T
C211   C220    1.449   .     S
C212   O234    1.307   .     A
C212   O235    1.310   .     A
C213   N232    1.156   .     T
C214   O237    1.300   .     A
C214   C216    1.407   .     S
C214   O240    1.298   .     A
C215   O238    1.300   .     A
C215   O239    1.298   .     A
C215   C217    1.407   .     S
C216   C937    1.189   1_554 S
C217   C576    1.189   .     S
C219   C122    1.394   1_655 S
C220   C138    1.394   1_655 S
Cu221  O235    1.981   .     S
Cu221  N227    2.043   .     S
Cu221  Cu222   2.719   .     S
Cu221  O239    1.926   .     S
Cu221  O233    1.985   .     S
Cu221  O237    1.929   .     S
Cu222  O236    1.981   .     S
Cu222  N228    2.043   .     S
Cu222  O234    1.985   .     S
Cu222  O238    1.929   .     S
Cu222  O240    1.926   .     S
C241   C244    1.477   .     S
C241   O273    1.307   .     A
C241   O276    1.310   .     A
C242   C244    1.415   .     A
C242   C253    1.449   .     S
C242   C339    1.394   1_455 S
C243   C259    1.412   .     A
C243   C260    1.415   .     A
C243   C252    1.477   .     S
C244   C258    1.412   .     A
C245   N268    1.381   .     A
C245   I263    2.151   .     S
C246   N267    1.381   .     A
C246   I264    2.151   .     S
C246   C7      1.431   1_565 S
C247   N268    1.381   .     A
C247   I265    2.153   .     S
C248   I266    2.153   .     S
C248   N267    1.381   .     A
C248   C5      1.431   1_565 S
C249   N269    1.157   .     T
C249   C258    1.453   .     S
C250   N270    1.157   .     T
C250   C259    1.452   .     S
C251   N271    1.156   .     T
C251   C260    1.449   .     S
C252   O274    1.307   .     A
C252   O275    1.310   .     A
C253   N272    1.156   .     T
C254   O277    1.300   .     A
C254   C256    1.407   .     S
C254   O280    1.298   .     A
C255   O278    1.300   .     A
C255   O279    1.298   .     A
C255   C257    1.407   .     S
C256   C977    1.189   1_554 S
C257   C616    1.189   .     S
C258   C340    1.394   1_455 S
C259   C282    1.394   .     S
C260   C298    1.394   .     S
Cu261  O275    1.981   .     S
Cu261  N267    2.043   .     S
Cu261  Cu262   2.719   .     S
Cu261  O279    1.926   .     S
Cu261  O273    1.985   .     S
Cu261  O277    1.929   .     S
Cu262  O276    1.981   .     S
Cu262  N268    2.043   .     S
Cu262  O274    1.985   .     S
Cu262  O278    1.929   .     S
Cu262  O280    1.926   .     S
C281   C284    1.477   .     S
C281   O313    1.307   .     A
C281   O316    1.310   .     A
C282   C284    1.415   .     A
C282   C293    1.449   .     S
C283   C299    1.412   .     A
C283   C300    1.415   .     A
C283   C292    1.477   .     S
C284   C298    1.412   .     A
C285   N308    1.381   .     A
C285   I303    2.151   .     S
C286   N307    1.381   .     A
C286   I304    2.151   .     S
C286   C47     1.431   1_565 S
C287   N308    1.381   .     A
C287   I305    2.153   .     S
C288   I306    2.153   .     S
C288   N307    1.381   .     A
C288   C45     1.431   1_565 S
C289   N309    1.157   .     T
C289   C298    1.453   .     S
C290   N310    1.157   .     T
C290   C299    1.452   .     S
C291   N311    1.156   .     T
C291   C300    1.449   .     S
C292   O314    1.307   .     A
C292   O315    1.310   .     A
C293   N312    1.156   .     T
C294   O317    1.300   .     A
C294   C296    1.407   .     S
C294   O320    1.298   .     A
C295   O318    1.300   .     A
C295   O319    1.298   .     A
C295   C297    1.407   .     S
C296   C1017   1.189   1_554 S
C297   C656    1.189   .     S
C299   C322    1.394   .     S
C300   C338    1.394   .     S
Cu301  O315    1.981   .     S
Cu301  N307    2.043   .     S
Cu301  Cu302   2.719   .     S
Cu301  O319    1.926   .     S
Cu301  O313    1.985   .     S
Cu301  O317    1.929   .     S
Cu302  O316    1.981   .     S
Cu302  N308    2.043   .     S
Cu302  O314    1.985   .     S
Cu302  O318    1.929   .     S
Cu302  O320    1.926   .     S
C321   C324    1.477   .     S
C321   O353    1.307   .     A
C321   O356    1.310   .     A
C322   C324    1.415   .     A
C322   C333    1.449   .     S
C323   C339    1.412   .     A
C323   C340    1.415   .     A
C323   C332    1.477   .     S
C324   C338    1.412   .     A
C325   N348    1.381   .     A
C325   I343    2.151   .     S
C326   N347    1.381   .     A
C326   I344    2.151   .     S
C326   C87     1.431   1_565 S
C327   N348    1.381   .     A
C327   I345    2.153   .     S
C328   I346    2.153   .     S
C328   N347    1.381   .     A
C328   C85     1.431   1_565 S
C329   N349    1.157   .     T
C329   C338    1.453   .     S
C330   N350    1.157   .     T
C330   C339    1.452   .     S
C331   N351    1.156   .     T
C331   C340    1.449   .     S
C332   O354    1.307   .     A
C332   O355    1.310   .     A
C333   N352    1.156   .     T
C334   O357    1.300   .     A
C334   C336    1.407   .     S
C334   O360    1.298   .     A
C335   O358    1.300   .     A
C335   O359    1.298   .     A
C335   C337    1.407   .     S
C336   C1057   1.189   1_554 S
C337   C696    1.189   .     S
C339   C242    1.394   1_655 S
C340   C258    1.394   1_655 S
Cu341  O355    1.981   .     S
Cu341  N347    2.043   .     S
Cu341  Cu342   2.719   .     S
Cu341  O359    1.926   .     S
Cu341  O353    1.985   .     S
Cu341  O357    1.929   .     S
Cu342  O356    1.981   .     S
Cu342  N348    2.043   .     S
Cu342  O354    1.985   .     S
Cu342  O358    1.929   .     S
Cu342  O360    1.926   .     S
C361   C364    1.477   .     S
C361   O393    1.307   .     A
C361   O396    1.310   .     A
C362   C364    1.415   .     A
C362   C373    1.449   .     S
C362   C459    1.394   1_455 S
C363   C379    1.412   .     A
C363   C380    1.415   .     A
C363   C372    1.477   .     S
C364   C378    1.412   .     A
C365   N388    1.381   .     A
C365   I383    2.151   .     S
C365   C608    1.431   1_545 S
C366   N387    1.381   .     A
C366   I384    2.151   .     S
C366   C487    1.431   .     S
C367   N388    1.381   .     A
C367   I385    2.153   .     S
C367   C606    1.431   1_545 S
C368   I386    2.153   .     S
C368   N387    1.381   .     A
C368   C485    1.431   .     S
C369   N389    1.157   .     T
C369   C378    1.453   .     S
C370   N390    1.157   .     T
C370   C379    1.452   .     S
C371   N391    1.156   .     T
C371   C380    1.449   .     S
C372   O394    1.307   .     A
C372   O395    1.310   .     A
C373   N392    1.156   .     T
C374   O397    1.300   .     A
C374   C376    1.407   .     S
C374   O400    1.298   .     A
C375   O398    1.300   .     A
C375   O399    1.298   .     A
C375   C377    1.407   .     S
C377   C736    1.189   .     S
C378   C460    1.394   1_455 S
C379   C402    1.394   .     S
C380   C418    1.394   .     S
Cu381  O395    1.981   .     S
Cu381  N387    2.043   .     S
Cu381  Cu382   2.719   .     S
Cu381  O399    1.926   .     S
Cu381  O393    1.985   .     S
Cu381  O397    1.929   .     S
Cu382  O396    1.981   .     S
Cu382  N388    2.043   .     S
Cu382  O394    1.985   .     S
Cu382  O398    1.929   .     S
Cu382  O400    1.926   .     S
C401   C404    1.477   .     S
C401   O433    1.307   .     A
C401   O436    1.310   .     A
C402   C404    1.415   .     A
C402   C413    1.449   .     S
C403   C419    1.412   .     A
C403   C420    1.415   .     A
C403   C412    1.477   .     S
C404   C418    1.412   .     A
C405   N428    1.381   .     A
C405   I423    2.151   .     S
C405   C648    1.431   1_545 S
C406   N427    1.381   .     A
C406   I424    2.151   .     S
C406   C527    1.431   .     S
C407   N428    1.381   .     A
C407   I425    2.153   .     S
C407   C646    1.431   1_545 S
C408   I426    2.153   .     S
C408   N427    1.381   .     A
C408   C525    1.431   .     S
C409   N429    1.157   .     T
C409   C418    1.453   .     S
C410   N430    1.157   .     T
C410   C419    1.452   .     S
C411   N431    1.156   .     T
C411   C420    1.449   .     S
C412   O434    1.307   .     A
C412   O435    1.310   .     A
C413   N432    1.156   .     T
C414   O437    1.300   .     A
C414   C416    1.407   .     S
C414   O440    1.298   .     A
C415   O438    1.300   .     A
C415   O439    1.298   .     A
C415   C417    1.407   .     S
C417   C776    1.189   .     S
C419   C442    1.394   .     S
C420   C458    1.394   .     S
Cu421  O435    1.981   .     S
Cu421  N427    2.043   .     S
Cu421  Cu422   2.719   .     S
Cu421  O439    1.926   .     S
Cu421  O433    1.985   .     S
Cu421  O437    1.929   .     S
Cu422  O436    1.981   .     S
Cu422  N428    2.043   .     S
Cu422  O434    1.985   .     S
Cu422  O438    1.929   .     S
Cu422  O440    1.926   .     S
C441   C444    1.477   .     S
C441   O473    1.307   .     A
C441   O476    1.310   .     A
C442   C444    1.415   .     A
C442   C453    1.449   .     S
C443   C459    1.412   .     A
C443   C460    1.415   .     A
C443   C452    1.477   .     S
C444   C458    1.412   .     A
C445   N468    1.381   .     A
C445   I463    2.151   .     S
C445   C688    1.431   1_545 S
C446   N467    1.381   .     A
C446   I464    2.151   .     S
C446   C567    1.431   .     S
C447   N468    1.381   .     A
C447   I465    2.153   .     S
C447   C686    1.431   1_545 S
C448   I466    2.153   .     S
C448   N467    1.381   .     A
C448   C565    1.431   .     S
C449   N469    1.157   .     T
C449   C458    1.453   .     S
C450   N470    1.157   .     T
C450   C459    1.452   .     S
C451   N471    1.156   .     T
C451   C460    1.449   .     S
C452   O474    1.307   .     A
C452   O475    1.310   .     A
C453   N472    1.156   .     T
C454   O477    1.300   .     A
C454   C456    1.407   .     S
C454   O480    1.298   .     A
C455   O478    1.300   .     A
C455   O479    1.298   .     A
C455   C457    1.407   .     S
C457   C816    1.189   .     S
C459   C362    1.394   1_655 S
C460   C378    1.394   1_655 S
Cu461  O475    1.981   .     S
Cu461  N467    2.043   .     S
Cu461  Cu462   2.719   .     S
Cu461  O479    1.926   .     S
Cu461  O473    1.985   .     S
Cu461  O477    1.929   .     S
Cu462  O476    1.981   .     S
Cu462  N468    2.043   .     S
Cu462  O474    1.985   .     S
Cu462  O478    1.929   .     S
Cu462  O480    1.926   .     S
C481   C484    1.477   .     S
C481   O513    1.307   .     A
C481   O516    1.310   .     A
C482   C484    1.415   .     A
C482   C493    1.449   .     S
C482   C579    1.394   1_455 S
C483   C499    1.412   .     A
C483   C500    1.415   .     A
C483   C492    1.477   .     S
C484   C498    1.412   .     A
C485   N508    1.381   .     A
C485   I503    2.151   .     S
C486   N507    1.381   .     A
C486   I504    2.151   .     S
C486   C607    1.431   .     S
C487   N508    1.381   .     A
C487   I505    2.153   .     S
C488   I506    2.153   .     S
C488   N507    1.381   .     A
C488   C605    1.431   .     S
C489   N509    1.157   .     T
C489   C498    1.453   .     S
C490   N510    1.157   .     T
C490   C499    1.452   .     S
C491   N511    1.156   .     T
C491   C500    1.449   .     S
C492   O514    1.307   .     A
C492   O515    1.310   .     A
C493   N512    1.156   .     T
C494   O517    1.300   .     A
C494   C496    1.407   .     S
C494   O520    1.298   .     A
C495   O518    1.300   .     A
C495   O519    1.298   .     A
C495   C497    1.407   .     S
C497   C856    1.189   .     S
C498   C580    1.394   1_455 S
C499   C522    1.394   .     S
C500   C538    1.394   .     S
Cu501  O515    1.981   .     S
Cu501  N507    2.043   .     S
Cu501  Cu502   2.719   .     S
Cu501  O519    1.926   .     S
Cu501  O513    1.985   .     S
Cu501  O517    1.929   .     S
Cu502  O516    1.981   .     S
Cu502  N508    2.043   .     S
Cu502  O514    1.985   .     S
Cu502  O518    1.929   .     S
Cu502  O520    1.926   .     S
C521   C524    1.477   .     S
C521   O553    1.307   .     A
C521   O556    1.310   .     A
C522   C524    1.415   .     A
C522   C533    1.449   .     S
C523   C539    1.412   .     A
C523   C540    1.415   .     A
C523   C532    1.477   .     S
C524   C538    1.412   .     A
C525   N548    1.381   .     A
C525   I543    2.151   .     S
C526   N547    1.381   .     A
C526   I544    2.151   .     S
C526   C647    1.431   .     S
C527   N548    1.381   .     A
C527   I545    2.153   .     S
C528   I546    2.153   .     S
C528   N547    1.381   .     A
C528   C645    1.431   .     S
C529   N549    1.157   .     T
C529   C538    1.453   .     S
C530   N550    1.157   .     T
C530   C539    1.452   .     S
C531   N551    1.156   .     T
C531   C540    1.449   .     S
C532   O554    1.307   .     A
C532   O555    1.310   .     A
C533   N552    1.156   .     T
C534   O557    1.300   .     A
C534   C536    1.407   .     S
C534   O560    1.298   .     A
C535   O558    1.300   .     A
C535   O559    1.298   .     A
C535   C537    1.407   .     S
C537   C896    1.189   .     S
C539   C562    1.394   .     S
C540   C578    1.394   .     S
Cu541  O555    1.981   .     S
Cu541  N547    2.043   .     S
Cu541  Cu542   2.719   .     S
Cu541  O559    1.926   .     S
Cu541  O553    1.985   .     S
Cu541  O557    1.929   .     S
Cu542  O556    1.981   .     S
Cu542  N548    2.043   .     S
Cu542  O554    1.985   .     S
Cu542  O558    1.929   .     S
Cu542  O560    1.926   .     S
C561   C564    1.477   .     S
C561   O593    1.307   .     A
C561   O596    1.310   .     A
C562   C564    1.415   .     A
C562   C573    1.449   .     S
C563   C579    1.412   .     A
C563   C580    1.415   .     A
C563   C572    1.477   .     S
C564   C578    1.412   .     A
C565   N588    1.381   .     A
C565   I583    2.151   .     S
C566   N587    1.381   .     A
C566   I584    2.151   .     S
C566   C687    1.431   .     S
C567   N588    1.381   .     A
C567   I585    2.153   .     S
C568   I586    2.153   .     S
C568   N587    1.381   .     A
C568   C685    1.431   .     S
C569   N589    1.157   .     T
C569   C578    1.453   .     S
C570   N590    1.157   .     T
C570   C579    1.452   .     S
C571   N591    1.156   .     T
C571   C580    1.449   .     S
C572   O594    1.307   .     A
C572   O595    1.310   .     A
C573   N592    1.156   .     T
C574   O597    1.300   .     A
C574   C576    1.407   .     S
C574   O600    1.298   .     A
C575   O598    1.300   .     A
C575   O599    1.298   .     A
C575   C577    1.407   .     S
C577   C936    1.189   .     S
C579   C482    1.394   1_655 S
C580   C498    1.394   1_655 S
Cu581  O595    1.981   .     S
Cu581  N587    2.043   .     S
Cu581  Cu582   2.719   .     S
Cu581  O599    1.926   .     S
Cu581  O593    1.985   .     S
Cu581  O597    1.929   .     S
Cu582  O596    1.981   .     S
Cu582  N588    2.043   .     S
Cu582  O594    1.985   .     S
Cu582  O598    1.929   .     S
Cu582  O600    1.926   .     S
C601   C604    1.477   .     S
C601   O633    1.307   .     A
C601   O636    1.310   .     A
C602   C604    1.415   .     A
C602   C613    1.449   .     S
C602   C699    1.394   1_455 S
C603   C619    1.412   .     A
C603   C620    1.415   .     A
C603   C612    1.477   .     S
C604   C618    1.412   .     A
C605   N628    1.381   .     A
C605   I623    2.151   .     S
C606   N627    1.381   .     A
C606   I624    2.151   .     S
C606   C367    1.431   1_565 S
C607   N628    1.381   .     A
C607   I625    2.153   .     S
C608   I626    2.153   .     S
C608   N627    1.381   .     A
C608   C365    1.431   1_565 S
C609   N629    1.157   .     T
C609   C618    1.453   .     S
C610   N630    1.157   .     T
C610   C619    1.452   .     S
C611   N631    1.156   .     T
C611   C620    1.449   .     S
C612   O634    1.307   .     A
C612   O635    1.310   .     A
C613   N632    1.156   .     T
C614   O637    1.300   .     A
C614   C616    1.407   .     S
C614   O640    1.298   .     A
C615   O638    1.300   .     A
C615   O639    1.298   .     A
C615   C617    1.407   .     S
C617   C976    1.189   .     S
C618   C700    1.394   1_455 S
C619   C642    1.394   .     S
C620   C658    1.394   .     S
Cu621  O635    1.981   .     S
Cu621  N627    2.043   .     S
Cu621  Cu622   2.719   .     S
Cu621  O639    1.926   .     S
Cu621  O633    1.985   .     S
Cu621  O637    1.929   .     S
Cu622  O636    1.981   .     S
Cu622  N628    2.043   .     S
Cu622  O634    1.985   .     S
Cu622  O638    1.929   .     S
Cu622  O640    1.926   .     S
C641   C644    1.477   .     S
C641   O673    1.307   .     A
C641   O676    1.310   .     A
C642   C644    1.415   .     A
C642   C653    1.449   .     S
C643   C659    1.412   .     A
C643   C660    1.415   .     A
C643   C652    1.477   .     S
C644   C658    1.412   .     A
C645   N668    1.381   .     A
C645   I663    2.151   .     S
C646   N667    1.381   .     A
C646   I664    2.151   .     S
C646   C407    1.431   1_565 S
C647   N668    1.381   .     A
C647   I665    2.153   .     S
C648   I666    2.153   .     S
C648   N667    1.381   .     A
C648   C405    1.431   1_565 S
C649   N669    1.157   .     T
C649   C658    1.453   .     S
C650   N670    1.157   .     T
C650   C659    1.452   .     S
C651   N671    1.156   .     T
C651   C660    1.449   .     S
C652   O674    1.307   .     A
C652   O675    1.310   .     A
C653   N672    1.156   .     T
C654   O677    1.300   .     A
C654   C656    1.407   .     S
C654   O680    1.298   .     A
C655   O678    1.300   .     A
C655   O679    1.298   .     A
C655   C657    1.407   .     S
C657   C1016   1.189   .     S
C659   C682    1.394   .     S
C660   C698    1.394   .     S
Cu661  O675    1.981   .     S
Cu661  N667    2.043   .     S
Cu661  Cu662   2.719   .     S
Cu661  O679    1.926   .     S
Cu661  O673    1.985   .     S
Cu661  O677    1.929   .     S
Cu662  O676    1.981   .     S
Cu662  N668    2.043   .     S
Cu662  O674    1.985   .     S
Cu662  O678    1.929   .     S
Cu662  O680    1.926   .     S
C681   C684    1.477   .     S
C681   O713    1.307   .     A
C681   O716    1.310   .     A
C682   C684    1.415   .     A
C682   C693    1.449   .     S
C683   C699    1.412   .     A
C683   C700    1.415   .     A
C683   C692    1.477   .     S
C684   C698    1.412   .     A
C685   N708    1.381   .     A
C685   I703    2.151   .     S
C686   N707    1.381   .     A
C686   I704    2.151   .     S
C686   C447    1.431   1_565 S
C687   N708    1.381   .     A
C687   I705    2.153   .     S
C688   I706    2.153   .     S
C688   N707    1.381   .     A
C688   C445    1.431   1_565 S
C689   N709    1.157   .     T
C689   C698    1.453   .     S
C690   N710    1.157   .     T
C690   C699    1.452   .     S
C691   N711    1.156   .     T
C691   C700    1.449   .     S
C692   O714    1.307   .     A
C692   O715    1.310   .     A
C693   N712    1.156   .     T
C694   O717    1.300   .     A
C694   C696    1.407   .     S
C694   O720    1.298   .     A
C695   O718    1.300   .     A
C695   O719    1.298   .     A
C695   C697    1.407   .     S
C697   C1056   1.189   .     S
C699   C602    1.394   1_655 S
C700   C618    1.394   1_655 S
Cu701  O715    1.981   .     S
Cu701  N707    2.043   .     S
Cu701  Cu702   2.719   .     S
Cu701  O719    1.926   .     S
Cu701  O713    1.985   .     S
Cu701  O717    1.929   .     S
Cu702  O716    1.981   .     S
Cu702  N708    2.043   .     S
Cu702  O714    1.985   .     S
Cu702  O718    1.929   .     S
Cu702  O720    1.926   .     S
C721   C724    1.477   .     S
C721   O753    1.307   .     A
C721   O756    1.310   .     A
C722   C724    1.415   .     A
C722   C733    1.449   .     S
C722   C819    1.394   1_455 S
C723   C739    1.412   .     A
C723   C740    1.415   .     A
C723   C732    1.477   .     S
C724   C738    1.412   .     A
C725   N748    1.381   .     A
C725   I743    2.151   .     S
C725   C968    1.431   1_545 S
C726   N747    1.381   .     A
C726   I744    2.151   .     S
C726   C847    1.431   .     S
C727   N748    1.381   .     A
C727   I745    2.153   .     S
C727   C966    1.431   1_545 S
C728   I746    2.153   .     S
C728   N747    1.381   .     A
C728   C845    1.431   .     S
C729   N749    1.157   .     T
C729   C738    1.453   .     S
C730   N750    1.157   .     T
C730   C739    1.452   .     S
C731   N751    1.156   .     T
C731   C740    1.449   .     S
C732   O754    1.307   .     A
C732   O755    1.310   .     A
C733   N752    1.156   .     T
C734   O757    1.300   .     A
C734   C736    1.407   .     S
C734   O760    1.298   .     A
C735   O758    1.300   .     A
C735   O759    1.298   .     A
C735   C737    1.407   .     S
C737   C16     1.189   1_556 S
C738   C820    1.394   1_455 S
C739   C762    1.394   .     S
C740   C778    1.394   .     S
Cu741  O755    1.981   .     S
Cu741  N747    2.043   .     S
Cu741  Cu742   2.719   .     S
Cu741  O759    1.926   .     S
Cu741  O753    1.985   .     S
Cu741  O757    1.929   .     S
Cu742  O756    1.981   .     S
Cu742  N748    2.043   .     S
Cu742  O754    1.985   .     S
Cu742  O758    1.929   .     S
Cu742  O760    1.926   .     S
C761   C764    1.477   .     S
C761   O793    1.307   .     A
C761   O796    1.310   .     A
C762   C764    1.415   .     A
C762   C773    1.449   .     S
C763   C779    1.412   .     A
C763   C780    1.415   .     A
C763   C772    1.477   .     S
C764   C778    1.412   .     A
C765   N788    1.381   .     A
C765   I783    2.151   .     S
C765   C1008   1.431   1_545 S
C766   N787    1.381   .     A
C766   I784    2.151   .     S
C766   C887    1.431   .     S
C767   N788    1.381   .     A
C767   I785    2.153   .     S
C767   C1006   1.431   1_545 S
C768   I786    2.153   .     S
C768   N787    1.381   .     A
C768   C885    1.431   .     S
C769   N789    1.157   .     T
C769   C778    1.453   .     S
C770   N790    1.157   .     T
C770   C779    1.452   .     S
C771   N791    1.156   .     T
C771   C780    1.449   .     S
C772   O794    1.307   .     A
C772   O795    1.310   .     A
C773   N792    1.156   .     T
C774   O797    1.300   .     A
C774   C776    1.407   .     S
C774   O800    1.298   .     A
C775   O798    1.300   .     A
C775   O799    1.298   .     A
C775   C777    1.407   .     S
C777   C56     1.189   1_556 S
C779   C802    1.394   .     S
C780   C818    1.394   .     S
Cu781  O795    1.981   .     S
Cu781  N787    2.043   .     S
Cu781  Cu782   2.719   .     S
Cu781  O799    1.926   .     S
Cu781  O793    1.985   .     S
Cu781  O797    1.929   .     S
Cu782  O796    1.981   .     S
Cu782  N788    2.043   .     S
Cu782  O794    1.985   .     S
Cu782  O798    1.929   .     S
Cu782  O800    1.926   .     S
C801   C804    1.477   .     S
C801   O833    1.307   .     A
C801   O836    1.310   .     A
C802   C804    1.415   .     A
C802   C813    1.449   .     S
C803   C819    1.412   .     A
C803   C820    1.415   .     A
C803   C812    1.477   .     S
C804   C818    1.412   .     A
C805   N828    1.381   .     A
C805   I823    2.151   .     S
C805   C1048   1.431   1_545 S
C806   N827    1.381   .     A
C806   I824    2.151   .     S
C806   C927    1.431   .     S
C807   N828    1.381   .     A
C807   I825    2.153   .     S
C807   C1046   1.431   1_545 S
C808   I826    2.153   .     S
C808   N827    1.381   .     A
C808   C925    1.431   .     S
C809   N829    1.157   .     T
C809   C818    1.453   .     S
C810   N830    1.157   .     T
C810   C819    1.452   .     S
C811   N831    1.156   .     T
C811   C820    1.449   .     S
C812   O834    1.307   .     A
C812   O835    1.310   .     A
C813   N832    1.156   .     T
C814   O837    1.300   .     A
C814   C816    1.407   .     S
C814   O840    1.298   .     A
C815   O838    1.300   .     A
C815   O839    1.298   .     A
C815   C817    1.407   .     S
C817   C96     1.189   1_556 S
C819   C722    1.394   1_655 S
C820   C738    1.394   1_655 S
Cu821  O835    1.981   .     S
Cu821  N827    2.043   .     S
Cu821  Cu822   2.719   .     S
Cu821  O839    1.926   .     S
Cu821  O833    1.985   .     S
Cu821  O837    1.929   .     S
Cu822  O836    1.981   .     S
Cu822  N828    2.043   .     S
Cu822  O834    1.985   .     S
Cu822  O838    1.929   .     S
Cu822  O840    1.926   .     S
C841   C844    1.477   .     S
C841   O873    1.307   .     A
C841   O876    1.310   .     A
C842   C844    1.415   .     A
C842   C853    1.449   .     S
C842   C939    1.394   1_455 S
C843   C859    1.412   .     A
C843   C860    1.415   .     A
C843   C852    1.477   .     S
C844   C858    1.412   .     A
C845   N868    1.381   .     A
C845   I863    2.151   .     S
C846   N867    1.381   .     A
C846   I864    2.151   .     S
C846   C967    1.431   .     S
C847   N868    1.381   .     A
C847   I865    2.153   .     S
C848   I866    2.153   .     S
C848   N867    1.381   .     A
C848   C965    1.431   .     S
C849   N869    1.157   .     T
C849   C858    1.453   .     S
C850   N870    1.157   .     T
C850   C859    1.452   .     S
C851   N871    1.156   .     T
C851   C860    1.449   .     S
C852   O874    1.307   .     A
C852   O875    1.310   .     A
C853   N872    1.156   .     T
C854   O877    1.300   .     A
C854   C856    1.407   .     S
C854   O880    1.298   .     A
C855   O878    1.300   .     A
C855   O879    1.298   .     A
C855   C857    1.407   .     S
C857   C136    1.189   1_556 S
C858   C940    1.394   1_455 S
C859   C882    1.394   .     S
C860   C898    1.394   .     S
Cu861  O875    1.981   .     S
Cu861  N867    2.043   .     S
Cu861  Cu862   2.719   .     S
Cu861  O879    1.926   .     S
Cu861  O873    1.985   .     S
Cu861  O877    1.929   .     S
Cu862  O876    1.981   .     S
Cu862  N868    2.043   .     S
Cu862  O874    1.985   .     S
Cu862  O878    1.929   .     S
Cu862  O880    1.926   .     S
C881   C884    1.477   .     S
C881   O913    1.307   .     A
C881   O916    1.310   .     A
C882   C884    1.415   .     A
C882   C893    1.449   .     S
C883   C899    1.412   .     A
C883   C900    1.415   .     A
C883   C892    1.477   .     S
C884   C898    1.412   .     A
C885   N908    1.381   .     A
C885   I903    2.151   .     S
C886   N907    1.381   .     A
C886   I904    2.151   .     S
C886   C1007   1.431   .     S
C887   N908    1.381   .     A
C887   I905    2.153   .     S
C888   I906    2.153   .     S
C888   N907    1.381   .     A
C888   C1005   1.431   .     S
C889   N909    1.157   .     T
C889   C898    1.453   .     S
C890   N910    1.157   .     T
C890   C899    1.452   .     S
C891   N911    1.156   .     T
C891   C900    1.449   .     S
C892   O914    1.307   .     A
C892   O915    1.310   .     A
C893   N912    1.156   .     T
C894   O917    1.300   .     A
C894   C896    1.407   .     S
C894   O920    1.298   .     A
C895   O918    1.300   .     A
C895   O919    1.298   .     A
C895   C897    1.407   .     S
C897   C176    1.189   1_556 S
C899   C922    1.394   .     S
C900   C938    1.394   .     S
Cu901  O915    1.981   .     S
Cu901  N907    2.043   .     S
Cu901  Cu902   2.719   .     S
Cu901  O919    1.926   .     S
Cu901  O913    1.985   .     S
Cu901  O917    1.929   .     S
Cu902  O916    1.981   .     S
Cu902  N908    2.043   .     S
Cu902  O914    1.985   .     S
Cu902  O918    1.929   .     S
Cu902  O920    1.926   .     S
C921   C924    1.477   .     S
C921   O953    1.307   .     A
C921   O956    1.310   .     A
C922   C924    1.415   .     A
C922   C933    1.449   .     S
C923   C939    1.412   .     A
C923   C940    1.415   .     A
C923   C932    1.477   .     S
C924   C938    1.412   .     A
C925   N948    1.381   .     A
C925   I943    2.151   .     S
C926   N947    1.381   .     A
C926   I944    2.151   .     S
C926   C1047   1.431   .     S
C927   N948    1.381   .     A
C927   I945    2.153   .     S
C928   I946    2.153   .     S
C928   N947    1.381   .     A
C928   C1045   1.431   .     S
C929   N949    1.157   .     T
C929   C938    1.453   .     S
C930   N950    1.157   .     T
C930   C939    1.452   .     S
C931   N951    1.156   .     T
C931   C940    1.449   .     S
C932   O954    1.307   .     A
C932   O955    1.310   .     A
C933   N952    1.156   .     T
C934   O957    1.300   .     A
C934   C936    1.407   .     S
C934   O960    1.298   .     A
C935   O958    1.300   .     A
C935   O959    1.298   .     A
C935   C937    1.407   .     S
C937   C216    1.189   1_556 S
C939   C842    1.394   1_655 S
C940   C858    1.394   1_655 S
Cu941  O955    1.981   .     S
Cu941  N947    2.043   .     S
Cu941  Cu942   2.719   .     S
Cu941  O959    1.926   .     S
Cu941  O953    1.985   .     S
Cu941  O957    1.929   .     S
Cu942  O956    1.981   .     S
Cu942  N948    2.043   .     S
Cu942  O954    1.985   .     S
Cu942  O958    1.929   .     S
Cu942  O960    1.926   .     S
C961   C964    1.477   .     S
C961   O993    1.307   .     A
C961   O996    1.310   .     A
C962   C964    1.415   .     A
C962   C973    1.449   .     S
C962   C1059   1.394   1_455 S
C963   C979    1.412   .     A
C963   C980    1.415   .     A
C963   C972    1.477   .     S
C964   C978    1.412   .     A
C965   N988    1.381   .     A
C965   I983    2.151   .     S
C966   N987    1.381   .     A
C966   I984    2.151   .     S
C966   C727    1.431   1_565 S
C967   N988    1.381   .     A
C967   I985    2.153   .     S
C968   I986    2.153   .     S
C968   N987    1.381   .     A
C968   C725    1.431   1_565 S
C969   N989    1.157   .     T
C969   C978    1.453   .     S
C970   N990    1.157   .     T
C970   C979    1.452   .     S
C971   N991    1.156   .     T
C971   C980    1.449   .     S
C972   O994    1.307   .     A
C972   O995    1.310   .     A
C973   N992    1.156   .     T
C974   O997    1.300   .     A
C974   C976    1.407   .     S
C974   O1000   1.298   .     A
C975   O998    1.300   .     A
C975   O999    1.298   .     A
C975   C977    1.407   .     S
C977   C256    1.189   1_556 S
C978   C1060   1.394   1_455 S
C979   C1002   1.394   .     S
C980   C1018   1.394   .     S
Cu981  O995    1.981   .     S
Cu981  N987    2.043   .     S
Cu981  Cu982   2.719   .     S
Cu981  O999    1.926   .     S
Cu981  O993    1.985   .     S
Cu981  O997    1.929   .     S
Cu982  O996    1.981   .     S
Cu982  N988    2.043   .     S
Cu982  O994    1.985   .     S
Cu982  O998    1.929   .     S
Cu982  O1000   1.926   .     S
C1001  C1004   1.477   .     S
C1001  O1033   1.307   .     A
C1001  O1036   1.310   .     A
C1002  C1004   1.415   .     A
C1002  C1013   1.449   .     S
C1003  C1019   1.412   .     A
C1003  C1020   1.415   .     A
C1003  C1012   1.477   .     S
C1004  C1018   1.412   .     A
C1005  N1028   1.381   .     A
C1005  I1023   2.151   .     S
C1006  N1027   1.381   .     A
C1006  I1024   2.151   .     S
C1006  C767    1.431   1_565 S
C1007  N1028   1.381   .     A
C1007  I1025   2.153   .     S
C1008  I1026   2.153   .     S
C1008  N1027   1.381   .     A
C1008  C765    1.431   1_565 S
C1009  N1029   1.157   .     T
C1009  C1018   1.453   .     S
C1010  N1030   1.157   .     T
C1010  C1019   1.452   .     S
C1011  N1031   1.156   .     T
C1011  C1020   1.449   .     S
C1012  O1034   1.307   .     A
C1012  O1035   1.310   .     A
C1013  N1032   1.156   .     T
C1014  O1037   1.300   .     A
C1014  C1016   1.407   .     S
C1014  O1040   1.298   .     A
C1015  O1038   1.300   .     A
C1015  O1039   1.298   .     A
C1015  C1017   1.407   .     S
C1017  C296    1.189   1_556 S
C1019  C1042   1.394   .     S
C1020  C1058   1.394   .     S
Cu1021 O1035   1.981   .     S
Cu1021 N1027   2.043   .     S
Cu1021 Cu1022  2.719   .     S
Cu1021 O1039   1.926   .     S
Cu1021 O1033   1.985   .     S
Cu1021 O1037   1.929   .     S
Cu1022 O1036   1.981   .     S
Cu1022 N1028   2.043   .     S
Cu1022 O1034   1.985   .     S
Cu1022 O1038   1.929   .     S
Cu1022 O1040   1.926   .     S
C1041  C1044   1.477   .     S
C1041  O1073   1.307   .     A
C1041  O1076   1.310   .     A
C1042  C1044   1.415   .     A
C1042  C1053   1.449   .     S
C1043  C1059   1.412   .     A
C1043  C1060   1.415   .     A
C1043  C1052   1.477   .     S
C1044  C1058   1.412   .     A
C1045  N1068   1.381   .     A
C1045  I1063   2.151   .     S
C1046  N1067   1.381   .     A
C1046  I1064   2.151   .     S
C1046  C807    1.431   1_565 S
C1047  N1068   1.381   .     A
C1047  I1065   2.153   .     S
C1048  I1066   2.153   .     S
C1048  N1067   1.381   .     A
C1048  C805    1.431   1_565 S
C1049  N1069   1.157   .     T
C1049  C1058   1.453   .     S
C1050  N1070   1.157   .     T
C1050  C1059   1.452   .     S
C1051  N1071   1.156   .     T
C1051  C1060   1.449   .     S
C1052  O1074   1.307   .     A
C1052  O1075   1.310   .     A
C1053  N1072   1.156   .     T
C1054  O1077   1.300   .     A
C1054  C1056   1.407   .     S
C1054  O1080   1.298   .     A
C1055  O1078   1.300   .     A
C1055  O1079   1.298   .     A
C1055  C1057   1.407   .     S
C1057  C336    1.189   1_556 S
C1059  C962    1.394   1_655 S
C1060  C978    1.394   1_655 S
Cu1061 O1075   1.981   .     S
Cu1061 N1067   2.043   .     S
Cu1061 Cu1062  2.719   .     S
Cu1061 O1079   1.926   .     S
Cu1061 O1073   1.985   .     S
Cu1061 O1077   1.929   .     S
Cu1062 O1076   1.981   .     S
Cu1062 N1068   2.043   .     S
Cu1062 O1074   1.985   .     S
Cu1062 O1078   1.929   .     S
Cu1062 O1080   1.926   .     S
