data_str_m2_o2_o10_pcu_sym.152
_audit_creation_date              2020-01-03
_audit_creation_method            'Materials Studio'
_symmetry_space_group_name_H-M    'P1'
_symmetry_Int_Tables_number       1
_symmetry_cell_setting            triclinic
loop_
_symmetry_equiv_pos_as_xyz
  x,y,z
_cell_length_a                    26.4146
_cell_length_b                    30.1933
_cell_length_c                    27.6128
_cell_angle_alpha                 89.7091
_cell_angle_beta                  98.0451
_cell_angle_gamma                 89.8052
loop_
_atom_site_label
_atom_site_type_symbol
_atom_site_fract_x
_atom_site_fract_y
_atom_site_fract_z
_atom_site_U_iso_or_equiv
_atom_site_adp_type
_atom_site_occupancy
C1     C     0.16759   0.16506   0.25025   0.00000  Uiso   1.00
C2     C     0.16489   0.33509   0.24962   0.00000  Uiso   1.00
C3     C     0.20272   0.27754   0.05884   0.00000  Uiso   1.00
C4     C     0.20474   0.22434   0.45107   0.00000  Uiso   1.00
C5     C     0.20090   0.27601   0.10987   0.00000  Uiso   1.00
C6     C     0.20274   0.22566   0.39954   0.00000  Uiso   1.00
C7     C     0.13275   0.22493   0.09961   0.00000  Uiso   1.00
C8     C     0.13133   0.27376   0.39117   0.00000  Uiso   1.00
C9     C     0.13265   0.22514   0.04870   0.00000  Uiso   1.00
C10    C     0.13108   0.27340   0.44202   0.00000  Uiso   1.00
C11    C     0.16785   0.25110   0.02742   0.00000  Uiso   1.00
C12    C     0.16791   0.24895   0.47292   0.00000  Uiso   1.00
C13    C     0.06814   0.24654   0.23766   0.00000  Uiso   1.00
C14    C     0.26527   0.24691   0.26243   0.00000  Uiso   1.00
C15    C     0.01341   0.23887   0.23079   0.00000  Uiso   1.00
C16    C     0.32010   0.23973   0.26976   0.00000  Uiso   1.00
C17    C     0.11897   0.04982   0.23233   0.00000  Uiso   1.00
C18    C     0.19079   0.45203   0.21521   0.00000  Uiso   1.00
C19    C     0.12142   0.09584   0.23415   0.00000  Uiso   1.00
C20    C     0.19039   0.40597   0.21679   0.00000  Uiso   1.00
C21    C     0.16764   0.11701   0.25056   0.00000  Uiso   1.00
C22    C     0.16210   0.38346   0.24849   0.00000  Uiso   1.00
C23    C     0.21271   0.09206   0.26513   0.00000  Uiso   1.00
C24    C     0.13241   0.40756   0.27835   0.00000  Uiso   1.00
C25    C     0.20991   0.04590   0.26274   0.00000  Uiso   1.00
C26    C     0.13424   0.45380   0.27752   0.00000  Uiso   1.00
C27    C     0.16358   0.02471   0.24668   0.00000  Uiso   1.00
C28    C     0.16285   0.47610   0.24607   0.00000  Uiso   1.00
Cu29   Cu    0.16667   0.25000   0.29821   0.00000  Uiso   1.00
Cu30   Cu    0.16667   0.25001   0.20178   0.00000  Uiso   1.00
H31    H     0.08722   0.11538   0.22276   0.00000  Uiso   1.00
H32    H     0.21270   0.38751   0.19354   0.00000  Uiso   1.00
H33    H     0.24380   0.02602   0.27414   0.00000  Uiso   1.00
H34    H     0.11229   0.47280   0.30061   0.00000  Uiso   1.00
H35    H     0.22680   0.29602   0.13442   0.00000  Uiso   1.00
H36    H     0.23006   0.20688   0.38214   0.00000  Uiso   1.00
H37    H     0.10560   0.20453   0.11536   0.00000  Uiso   1.00
H38    H     0.10311   0.29322   0.36809   0.00000  Uiso   1.00
H39    H     0.10550   0.20464   0.02594   0.00000  Uiso   1.00
H40    H     0.10261   0.29273   0.45731   0.00000  Uiso   1.00
N41    N     0.16667   0.25001   0.12934   0.00000  Uiso   1.00
N42    N     0.16667   0.24999   0.37065   0.00000  Uiso   1.00
O43    O     0.16667   0.18573   0.29071   0.00000  Uiso   1.00
O44    O     0.16666   0.31427   0.20928   0.00000  Uiso   1.00
O45    O     0.16667   0.18573   0.20928   0.00000  Uiso   1.00
O46    O     0.16666   0.31427   0.29072   0.00000  Uiso   1.00
O47    O     0.09161   0.24999   0.28132   0.00000  Uiso   1.00
O48    O     0.24172   0.25001   0.21868   0.00000  Uiso   1.00
O49    O     0.09161   0.25000   0.19988   0.00000  Uiso   1.00
O50    O     0.24172   0.25000   0.30011   0.00000  Uiso   1.00
C51    C     0.32277   0.22898   0.17977   0.00000  Uiso   1.00
O52    O     0.33062   0.25310   0.14592   0.00000  Uiso   1.00
O53    O     0.29229   0.19131   0.17067   0.00000  Uiso   1.00
H54    H     0.27807   0.18813   0.13481   0.00000  Uiso   1.00
C55    C     0.01042   0.23289   0.32164   0.00000  Uiso   1.00
O56    O     0.03671   0.20002   0.33301   0.00000  Uiso   1.00
O57    O     0.00048   0.26294   0.35756   0.00000  Uiso   1.00
H58    H     0.01717   0.25390   0.39149   0.00000  Uiso   1.00
C59    C     0.07067   0.02915   0.21481   0.00000  Uiso   1.00
N60    N     0.03198   0.01259   0.20082   0.00000  Uiso   1.00
C61    C     0.21955   0.47388   0.18126   0.00000  Uiso   1.00
N62    N     0.24254   0.49141   0.15406   0.00000  Uiso   1.00
C63    C     0.26317   0.11254   0.28223   0.00000  Uiso   1.00
O64    O     0.26576   0.14889   0.30159   0.00000  Uiso   1.00
O65    O     0.30816   0.08952   0.27710   0.00000  Uiso   1.00
H66    H     0.00675   0.10674   0.28996   0.00000  Uiso   1.00
C67    C     0.09702   0.38614   0.30855   0.00000  Uiso   1.00
O68    O     0.07322   0.35304   0.29386   0.00000  Uiso   1.00
O69    O     0.08923   0.40504   0.35306   0.00000  Uiso   1.00
H70    H     0.06399   0.38771   0.37012   0.00000  Uiso   1.00
C71    C     0.24097   0.30712   0.04039   0.00000  Uiso   1.00
O72    O     0.23846   0.31568   0.49680   0.00000  Uiso   1.00
O73    O     0.27994   0.32592   0.07336   0.00000  Uiso   1.00
H74    H     0.30353   0.34543   0.05666   0.00000  Uiso   1.00
C75    C     0.24556   0.19723   0.48012   0.00000  Uiso   1.00
O76    O     0.24280   0.18715   0.02260   0.00000  Uiso   1.00
O77    O     0.28738   0.18265   0.45842   0.00000  Uiso   1.00
H78    H     0.31263   0.16458   0.48164   0.00000  Uiso   1.00
C79    C     0.50093   0.16506   0.25025   0.00000  Uiso   1.00
C80    C     0.49823   0.33509   0.24962   0.00000  Uiso   1.00
C81    C     0.53605   0.27754   0.05884   0.00000  Uiso   1.00
C82    C     0.53807   0.22434   0.45107   0.00000  Uiso   1.00
C83    C     0.53423   0.27601   0.10987   0.00000  Uiso   1.00
C84    C     0.53607   0.22566   0.39954   0.00000  Uiso   1.00
C85    C     0.46608   0.22493   0.09961   0.00000  Uiso   1.00
C86    C     0.46466   0.27376   0.39117   0.00000  Uiso   1.00
C87    C     0.46598   0.22514   0.04870   0.00000  Uiso   1.00
C88    C     0.46442   0.27340   0.44202   0.00000  Uiso   1.00
C89    C     0.50118   0.25110   0.02742   0.00000  Uiso   1.00
C90    C     0.50125   0.24895   0.47292   0.00000  Uiso   1.00
C91    C     0.40147   0.24654   0.23766   0.00000  Uiso   1.00
C92    C     0.59860   0.24691   0.26243   0.00000  Uiso   1.00
C93    C     0.34674   0.23887   0.23079   0.00000  Uiso   1.00
C94    C     0.65343   0.23973   0.26976   0.00000  Uiso   1.00
C95    C     0.45230   0.04982   0.23233   0.00000  Uiso   1.00
C96    C     0.52413   0.45203   0.21521   0.00000  Uiso   1.00
C97    C     0.45475   0.09584   0.23415   0.00000  Uiso   1.00
C98    C     0.52372   0.40597   0.21679   0.00000  Uiso   1.00
C99    C     0.50097   0.11701   0.25056   0.00000  Uiso   1.00
C100   C     0.49543   0.38346   0.24849   0.00000  Uiso   1.00
C101   C     0.54604   0.09206   0.26513   0.00000  Uiso   1.00
C102   C     0.46575   0.40756   0.27835   0.00000  Uiso   1.00
C103   C     0.54324   0.04590   0.26274   0.00000  Uiso   1.00
C104   C     0.46758   0.45380   0.27752   0.00000  Uiso   1.00
C105   C     0.49692   0.02471   0.24668   0.00000  Uiso   1.00
C106   C     0.49618   0.47610   0.24607   0.00000  Uiso   1.00
Cu107  Cu    0.50000   0.25000   0.29821   0.00000  Uiso   1.00
Cu108  Cu    0.50000   0.25001   0.20178   0.00000  Uiso   1.00
H109   H     0.42055   0.11538   0.22276   0.00000  Uiso   1.00
H110   H     0.54604   0.38751   0.19354   0.00000  Uiso   1.00
H111   H     0.57713   0.02602   0.27414   0.00000  Uiso   1.00
H112   H     0.44563   0.47280   0.30061   0.00000  Uiso   1.00
H113   H     0.56013   0.29602   0.13442   0.00000  Uiso   1.00
H114   H     0.56339   0.20688   0.38214   0.00000  Uiso   1.00
H115   H     0.43894   0.20453   0.11536   0.00000  Uiso   1.00
H116   H     0.43644   0.29322   0.36809   0.00000  Uiso   1.00
H117   H     0.43883   0.20464   0.02594   0.00000  Uiso   1.00
H118   H     0.43595   0.29273   0.45731   0.00000  Uiso   1.00
N119   N     0.50000   0.25001   0.12934   0.00000  Uiso   1.00
N120   N     0.50000   0.24999   0.37065   0.00000  Uiso   1.00
O121   O     0.50000   0.18573   0.29071   0.00000  Uiso   1.00
O122   O     0.50000   0.31427   0.20928   0.00000  Uiso   1.00
O123   O     0.50000   0.18573   0.20928   0.00000  Uiso   1.00
O124   O     0.50000   0.31427   0.29072   0.00000  Uiso   1.00
O125   O     0.42495   0.24999   0.28132   0.00000  Uiso   1.00
O126   O     0.57505   0.25001   0.21868   0.00000  Uiso   1.00
O127   O     0.42495   0.25000   0.19988   0.00000  Uiso   1.00
O128   O     0.57505   0.25000   0.30011   0.00000  Uiso   1.00
C129   C     0.65610   0.22898   0.17977   0.00000  Uiso   1.00
O130   O     0.66396   0.25310   0.14592   0.00000  Uiso   1.00
O131   O     0.62562   0.19131   0.17067   0.00000  Uiso   1.00
H132   H     0.61140   0.18813   0.13481   0.00000  Uiso   1.00
C133   C     0.34375   0.23289   0.32164   0.00000  Uiso   1.00
O134   O     0.37004   0.20002   0.33301   0.00000  Uiso   1.00
O135   O     0.33381   0.26294   0.35756   0.00000  Uiso   1.00
H136   H     0.35050   0.25390   0.39149   0.00000  Uiso   1.00
C137   C     0.40401   0.02915   0.21481   0.00000  Uiso   1.00
N138   N     0.36531   0.01259   0.20082   0.00000  Uiso   1.00
C139   C     0.55288   0.47388   0.18126   0.00000  Uiso   1.00
N140   N     0.57588   0.49141   0.15406   0.00000  Uiso   1.00
C141   C     0.59650   0.11254   0.28223   0.00000  Uiso   1.00
O142   O     0.59909   0.14889   0.30159   0.00000  Uiso   1.00
O143   O     0.64149   0.08952   0.27710   0.00000  Uiso   1.00
H144   H     0.34008   0.10674   0.28996   0.00000  Uiso   1.00
C145   C     0.43035   0.38614   0.30855   0.00000  Uiso   1.00
O146   O     0.40655   0.35304   0.29386   0.00000  Uiso   1.00
O147   O     0.42256   0.40504   0.35306   0.00000  Uiso   1.00
H148   H     0.39732   0.38771   0.37012   0.00000  Uiso   1.00
C149   C     0.57431   0.30712   0.04039   0.00000  Uiso   1.00
O150   O     0.57179   0.31568   0.49680   0.00000  Uiso   1.00
O151   O     0.61327   0.32592   0.07336   0.00000  Uiso   1.00
H152   H     0.63686   0.34543   0.05666   0.00000  Uiso   1.00
C153   C     0.57889   0.19723   0.48012   0.00000  Uiso   1.00
O154   O     0.57613   0.18715   0.02260   0.00000  Uiso   1.00
O155   O     0.62071   0.18265   0.45842   0.00000  Uiso   1.00
H156   H     0.64596   0.16458   0.48164   0.00000  Uiso   1.00
C157   C     0.83426   0.16506   0.25025   0.00000  Uiso   1.00
C158   C     0.83156   0.33509   0.24962   0.00000  Uiso   1.00
C159   C     0.86938   0.27754   0.05884   0.00000  Uiso   1.00
C160   C     0.87140   0.22434   0.45107   0.00000  Uiso   1.00
C161   C     0.86757   0.27601   0.10987   0.00000  Uiso   1.00
C162   C     0.86941   0.22566   0.39954   0.00000  Uiso   1.00
C163   C     0.79941   0.22493   0.09961   0.00000  Uiso   1.00
C164   C     0.79799   0.27376   0.39117   0.00000  Uiso   1.00
C165   C     0.79931   0.22514   0.04870   0.00000  Uiso   1.00
C166   C     0.79775   0.27340   0.44202   0.00000  Uiso   1.00
C167   C     0.83452   0.25110   0.02742   0.00000  Uiso   1.00
C168   C     0.83458   0.24895   0.47292   0.00000  Uiso   1.00
C169   C     0.73481   0.24654   0.23766   0.00000  Uiso   1.00
C170   C     0.93193   0.24691   0.26243   0.00000  Uiso   1.00
C171   C     0.68007   0.23887   0.23079   0.00000  Uiso   1.00
C172   C     0.98676   0.23973   0.26976   0.00000  Uiso   1.00
C173   C     0.78563   0.04982   0.23233   0.00000  Uiso   1.00
C174   C     0.85746   0.45203   0.21521   0.00000  Uiso   1.00
C175   C     0.78809   0.09584   0.23415   0.00000  Uiso   1.00
C176   C     0.85705   0.40597   0.21679   0.00000  Uiso   1.00
C177   C     0.83430   0.11701   0.25056   0.00000  Uiso   1.00
C178   C     0.82876   0.38346   0.24849   0.00000  Uiso   1.00
C179   C     0.87938   0.09206   0.26513   0.00000  Uiso   1.00
C180   C     0.79908   0.40756   0.27835   0.00000  Uiso   1.00
C181   C     0.87657   0.04590   0.26274   0.00000  Uiso   1.00
C182   C     0.80091   0.45380   0.27752   0.00000  Uiso   1.00
C183   C     0.83025   0.02471   0.24668   0.00000  Uiso   1.00
C184   C     0.82952   0.47610   0.24607   0.00000  Uiso   1.00
Cu185  Cu    0.83333   0.25000   0.29821   0.00000  Uiso   1.00
Cu186  Cu    0.83333   0.25001   0.20178   0.00000  Uiso   1.00
H187   H     0.75388   0.11538   0.22276   0.00000  Uiso   1.00
H188   H     0.87937   0.38751   0.19354   0.00000  Uiso   1.00
H189   H     0.91046   0.02602   0.27414   0.00000  Uiso   1.00
H190   H     0.77896   0.47280   0.30061   0.00000  Uiso   1.00
H191   H     0.89346   0.29602   0.13442   0.00000  Uiso   1.00
H192   H     0.89673   0.20688   0.38214   0.00000  Uiso   1.00
H193   H     0.77227   0.20453   0.11536   0.00000  Uiso   1.00
H194   H     0.76978   0.29322   0.36809   0.00000  Uiso   1.00
H195   H     0.77216   0.20464   0.02594   0.00000  Uiso   1.00
H196   H     0.76928   0.29273   0.45731   0.00000  Uiso   1.00
N197   N     0.83333   0.25001   0.12934   0.00000  Uiso   1.00
N198   N     0.83333   0.24999   0.37065   0.00000  Uiso   1.00
O199   O     0.83334   0.18573   0.29071   0.00000  Uiso   1.00
O200   O     0.83333   0.31427   0.20928   0.00000  Uiso   1.00
O201   O     0.83334   0.18573   0.20928   0.00000  Uiso   1.00
O202   O     0.83333   0.31427   0.29072   0.00000  Uiso   1.00
O203   O     0.75828   0.24999   0.28132   0.00000  Uiso   1.00
O204   O     0.90839   0.25001   0.21868   0.00000  Uiso   1.00
O205   O     0.75828   0.25000   0.19988   0.00000  Uiso   1.00
O206   O     0.90839   0.25000   0.30011   0.00000  Uiso   1.00
C207   C     0.98944   0.22898   0.17977   0.00000  Uiso   1.00
O208   O     0.99729   0.25310   0.14592   0.00000  Uiso   1.00
O209   O     0.95896   0.19131   0.17067   0.00000  Uiso   1.00
H210   H     0.94474   0.18813   0.13481   0.00000  Uiso   1.00
C211   C     0.67708   0.23289   0.32164   0.00000  Uiso   1.00
O212   O     0.70337   0.20002   0.33301   0.00000  Uiso   1.00
O213   O     0.66715   0.26294   0.35756   0.00000  Uiso   1.00
H214   H     0.68383   0.25390   0.39149   0.00000  Uiso   1.00
C215   C     0.73734   0.02915   0.21481   0.00000  Uiso   1.00
N216   N     0.69864   0.01259   0.20082   0.00000  Uiso   1.00
C217   C     0.88621   0.47388   0.18126   0.00000  Uiso   1.00
N218   N     0.90921   0.49141   0.15406   0.00000  Uiso   1.00
C219   C     0.92983   0.11254   0.28223   0.00000  Uiso   1.00
O220   O     0.93242   0.14889   0.30159   0.00000  Uiso   1.00
O221   O     0.97482   0.08952   0.27710   0.00000  Uiso   1.00
H222   H     0.67341   0.10674   0.28996   0.00000  Uiso   1.00
C223   C     0.76368   0.38614   0.30855   0.00000  Uiso   1.00
O224   O     0.73989   0.35304   0.29386   0.00000  Uiso   1.00
O225   O     0.75590   0.40504   0.35306   0.00000  Uiso   1.00
H226   H     0.73066   0.38771   0.37012   0.00000  Uiso   1.00
C227   C     0.90764   0.30712   0.04039   0.00000  Uiso   1.00
O228   O     0.90513   0.31568   0.49680   0.00000  Uiso   1.00
O229   O     0.94660   0.32592   0.07336   0.00000  Uiso   1.00
H230   H     0.97019   0.34543   0.05666   0.00000  Uiso   1.00
C231   C     0.91222   0.19723   0.48012   0.00000  Uiso   1.00
O232   O     0.90947   0.18715   0.02260   0.00000  Uiso   1.00
O233   O     0.95404   0.18265   0.45842   0.00000  Uiso   1.00
H234   H     0.97930   0.16458   0.48164   0.00000  Uiso   1.00
C235   C     0.16759   0.66506   0.25025   0.00000  Uiso   1.00
C236   C     0.16489   0.83509   0.24962   0.00000  Uiso   1.00
C237   C     0.20272   0.77754   0.05884   0.00000  Uiso   1.00
C238   C     0.20474   0.72434   0.45107   0.00000  Uiso   1.00
C239   C     0.20090   0.77601   0.10987   0.00000  Uiso   1.00
C240   C     0.20274   0.72566   0.39954   0.00000  Uiso   1.00
C241   C     0.13275   0.72493   0.09961   0.00000  Uiso   1.00
C242   C     0.13133   0.77376   0.39117   0.00000  Uiso   1.00
C243   C     0.13265   0.72514   0.04870   0.00000  Uiso   1.00
C244   C     0.13108   0.77340   0.44202   0.00000  Uiso   1.00
C245   C     0.16785   0.75110   0.02742   0.00000  Uiso   1.00
C246   C     0.16791   0.74895   0.47292   0.00000  Uiso   1.00
C247   C     0.06814   0.74654   0.23766   0.00000  Uiso   1.00
C248   C     0.26527   0.74691   0.26243   0.00000  Uiso   1.00
C249   C     0.01341   0.73887   0.23079   0.00000  Uiso   1.00
C250   C     0.32010   0.73973   0.26976   0.00000  Uiso   1.00
C251   C     0.11897   0.54982   0.23233   0.00000  Uiso   1.00
C252   C     0.19079   0.95203   0.21521   0.00000  Uiso   1.00
C253   C     0.12142   0.59584   0.23415   0.00000  Uiso   1.00
C254   C     0.19039   0.90597   0.21679   0.00000  Uiso   1.00
C255   C     0.16764   0.61701   0.25056   0.00000  Uiso   1.00
C256   C     0.16210   0.88346   0.24849   0.00000  Uiso   1.00
C257   C     0.21271   0.59206   0.26513   0.00000  Uiso   1.00
C258   C     0.13241   0.90756   0.27835   0.00000  Uiso   1.00
C259   C     0.20991   0.54590   0.26274   0.00000  Uiso   1.00
C260   C     0.13424   0.95380   0.27752   0.00000  Uiso   1.00
C261   C     0.16358   0.52471   0.24668   0.00000  Uiso   1.00
C262   C     0.16285   0.97610   0.24607   0.00000  Uiso   1.00
Cu263  Cu    0.16667   0.75000   0.29821   0.00000  Uiso   1.00
Cu264  Cu    0.16667   0.75001   0.20178   0.00000  Uiso   1.00
H265   H     0.08722   0.61538   0.22276   0.00000  Uiso   1.00
H266   H     0.21270   0.88751   0.19354   0.00000  Uiso   1.00
H267   H     0.24380   0.52602   0.27414   0.00000  Uiso   1.00
H268   H     0.11229   0.97280   0.30061   0.00000  Uiso   1.00
H269   H     0.22680   0.79602   0.13442   0.00000  Uiso   1.00
H270   H     0.23006   0.70688   0.38214   0.00000  Uiso   1.00
H271   H     0.10560   0.70453   0.11536   0.00000  Uiso   1.00
H272   H     0.10311   0.79322   0.36809   0.00000  Uiso   1.00
H273   H     0.10550   0.70464   0.02594   0.00000  Uiso   1.00
H274   H     0.10261   0.79273   0.45731   0.00000  Uiso   1.00
N275   N     0.16667   0.75001   0.12934   0.00000  Uiso   1.00
N276   N     0.16667   0.74999   0.37065   0.00000  Uiso   1.00
O277   O     0.16667   0.68573   0.29071   0.00000  Uiso   1.00
O278   O     0.16666   0.81427   0.20928   0.00000  Uiso   1.00
O279   O     0.16667   0.68573   0.20928   0.00000  Uiso   1.00
O280   O     0.16666   0.81427   0.29072   0.00000  Uiso   1.00
O281   O     0.09161   0.74999   0.28132   0.00000  Uiso   1.00
O282   O     0.24172   0.75001   0.21868   0.00000  Uiso   1.00
O283   O     0.09161   0.75000   0.19988   0.00000  Uiso   1.00
O284   O     0.24172   0.75000   0.30011   0.00000  Uiso   1.00
C285   C     0.32277   0.72898   0.17977   0.00000  Uiso   1.00
O286   O     0.33062   0.75310   0.14592   0.00000  Uiso   1.00
O287   O     0.29229   0.69131   0.17067   0.00000  Uiso   1.00
H288   H     0.27807   0.68813   0.13481   0.00000  Uiso   1.00
C289   C     0.01042   0.73289   0.32164   0.00000  Uiso   1.00
O290   O     0.03671   0.70002   0.33301   0.00000  Uiso   1.00
O291   O     0.00048   0.76294   0.35756   0.00000  Uiso   1.00
H292   H     0.01717   0.75390   0.39149   0.00000  Uiso   1.00
C293   C     0.07067   0.52915   0.21481   0.00000  Uiso   1.00
N294   N     0.03198   0.51259   0.20082   0.00000  Uiso   1.00
C295   C     0.21955   0.97388   0.18126   0.00000  Uiso   1.00
N296   N     0.24254   0.99141   0.15406   0.00000  Uiso   1.00
C297   C     0.26317   0.61254   0.28223   0.00000  Uiso   1.00
O298   O     0.26576   0.64889   0.30159   0.00000  Uiso   1.00
O299   O     0.30816   0.58952   0.27710   0.00000  Uiso   1.00
H300   H     0.00675   0.60674   0.28996   0.00000  Uiso   1.00
C301   C     0.09702   0.88614   0.30855   0.00000  Uiso   1.00
O302   O     0.07322   0.85304   0.29386   0.00000  Uiso   1.00
O303   O     0.08923   0.90504   0.35306   0.00000  Uiso   1.00
H304   H     0.06399   0.88771   0.37012   0.00000  Uiso   1.00
C305   C     0.24097   0.80712   0.04039   0.00000  Uiso   1.00
O306   O     0.23846   0.81568   0.49680   0.00000  Uiso   1.00
O307   O     0.27994   0.82592   0.07336   0.00000  Uiso   1.00
H308   H     0.30353   0.84543   0.05666   0.00000  Uiso   1.00
C309   C     0.24556   0.69723   0.48012   0.00000  Uiso   1.00
O310   O     0.24280   0.68715   0.02260   0.00000  Uiso   1.00
O311   O     0.28738   0.68265   0.45842   0.00000  Uiso   1.00
H312   H     0.31263   0.66458   0.48164   0.00000  Uiso   1.00
C313   C     0.50093   0.66506   0.25025   0.00000  Uiso   1.00
C314   C     0.49823   0.83509   0.24962   0.00000  Uiso   1.00
C315   C     0.53605   0.77754   0.05884   0.00000  Uiso   1.00
C316   C     0.53807   0.72434   0.45107   0.00000  Uiso   1.00
C317   C     0.53423   0.77601   0.10987   0.00000  Uiso   1.00
C318   C     0.53607   0.72566   0.39954   0.00000  Uiso   1.00
C319   C     0.46608   0.72493   0.09961   0.00000  Uiso   1.00
C320   C     0.46466   0.77376   0.39117   0.00000  Uiso   1.00
C321   C     0.46598   0.72514   0.04870   0.00000  Uiso   1.00
C322   C     0.46442   0.77340   0.44202   0.00000  Uiso   1.00
C323   C     0.50118   0.75110   0.02742   0.00000  Uiso   1.00
C324   C     0.50125   0.74895   0.47292   0.00000  Uiso   1.00
C325   C     0.40147   0.74654   0.23766   0.00000  Uiso   1.00
C326   C     0.59860   0.74691   0.26243   0.00000  Uiso   1.00
C327   C     0.34674   0.73887   0.23079   0.00000  Uiso   1.00
C328   C     0.65343   0.73973   0.26976   0.00000  Uiso   1.00
C329   C     0.45230   0.54982   0.23233   0.00000  Uiso   1.00
C330   C     0.52413   0.95203   0.21521   0.00000  Uiso   1.00
C331   C     0.45475   0.59584   0.23415   0.00000  Uiso   1.00
C332   C     0.52372   0.90597   0.21679   0.00000  Uiso   1.00
C333   C     0.50097   0.61701   0.25056   0.00000  Uiso   1.00
C334   C     0.49543   0.88346   0.24849   0.00000  Uiso   1.00
C335   C     0.54604   0.59206   0.26513   0.00000  Uiso   1.00
C336   C     0.46575   0.90756   0.27835   0.00000  Uiso   1.00
C337   C     0.54324   0.54590   0.26274   0.00000  Uiso   1.00
C338   C     0.46758   0.95380   0.27752   0.00000  Uiso   1.00
C339   C     0.49692   0.52471   0.24668   0.00000  Uiso   1.00
C340   C     0.49618   0.97610   0.24607   0.00000  Uiso   1.00
Cu341  Cu    0.50000   0.75000   0.29821   0.00000  Uiso   1.00
Cu342  Cu    0.50000   0.75001   0.20178   0.00000  Uiso   1.00
H343   H     0.42055   0.61538   0.22276   0.00000  Uiso   1.00
H344   H     0.54604   0.88751   0.19354   0.00000  Uiso   1.00
H345   H     0.57713   0.52602   0.27414   0.00000  Uiso   1.00
H346   H     0.44563   0.97280   0.30061   0.00000  Uiso   1.00
H347   H     0.56013   0.79602   0.13442   0.00000  Uiso   1.00
H348   H     0.56339   0.70688   0.38214   0.00000  Uiso   1.00
H349   H     0.43894   0.70453   0.11536   0.00000  Uiso   1.00
H350   H     0.43644   0.79322   0.36809   0.00000  Uiso   1.00
H351   H     0.43883   0.70464   0.02594   0.00000  Uiso   1.00
H352   H     0.43595   0.79273   0.45731   0.00000  Uiso   1.00
N353   N     0.50000   0.75001   0.12934   0.00000  Uiso   1.00
N354   N     0.50000   0.74999   0.37065   0.00000  Uiso   1.00
O355   O     0.50000   0.68573   0.29071   0.00000  Uiso   1.00
O356   O     0.50000   0.81427   0.20928   0.00000  Uiso   1.00
O357   O     0.50000   0.68573   0.20928   0.00000  Uiso   1.00
O358   O     0.50000   0.81427   0.29072   0.00000  Uiso   1.00
O359   O     0.42495   0.74999   0.28132   0.00000  Uiso   1.00
O360   O     0.57505   0.75001   0.21868   0.00000  Uiso   1.00
O361   O     0.42495   0.75000   0.19988   0.00000  Uiso   1.00
O362   O     0.57505   0.75000   0.30011   0.00000  Uiso   1.00
C363   C     0.65610   0.72898   0.17977   0.00000  Uiso   1.00
O364   O     0.66396   0.75310   0.14592   0.00000  Uiso   1.00
O365   O     0.62562   0.69131   0.17067   0.00000  Uiso   1.00
H366   H     0.61140   0.68813   0.13481   0.00000  Uiso   1.00
C367   C     0.34375   0.73289   0.32164   0.00000  Uiso   1.00
O368   O     0.37004   0.70002   0.33301   0.00000  Uiso   1.00
O369   O     0.33381   0.76294   0.35756   0.00000  Uiso   1.00
H370   H     0.35050   0.75390   0.39149   0.00000  Uiso   1.00
C371   C     0.40401   0.52915   0.21481   0.00000  Uiso   1.00
N372   N     0.36531   0.51259   0.20082   0.00000  Uiso   1.00
C373   C     0.55288   0.97388   0.18126   0.00000  Uiso   1.00
N374   N     0.57588   0.99141   0.15406   0.00000  Uiso   1.00
C375   C     0.59650   0.61254   0.28223   0.00000  Uiso   1.00
O376   O     0.59909   0.64889   0.30159   0.00000  Uiso   1.00
O377   O     0.64149   0.58952   0.27710   0.00000  Uiso   1.00
H378   H     0.34008   0.60674   0.28996   0.00000  Uiso   1.00
C379   C     0.43035   0.88614   0.30855   0.00000  Uiso   1.00
O380   O     0.40655   0.85304   0.29386   0.00000  Uiso   1.00
O381   O     0.42256   0.90504   0.35306   0.00000  Uiso   1.00
H382   H     0.39732   0.88771   0.37012   0.00000  Uiso   1.00
C383   C     0.57431   0.80712   0.04039   0.00000  Uiso   1.00
O384   O     0.57179   0.81568   0.49680   0.00000  Uiso   1.00
O385   O     0.61327   0.82592   0.07336   0.00000  Uiso   1.00
H386   H     0.63686   0.84543   0.05666   0.00000  Uiso   1.00
C387   C     0.57889   0.69723   0.48012   0.00000  Uiso   1.00
O388   O     0.57613   0.68715   0.02260   0.00000  Uiso   1.00
O389   O     0.62071   0.68265   0.45842   0.00000  Uiso   1.00
H390   H     0.64596   0.66458   0.48164   0.00000  Uiso   1.00
C391   C     0.83426   0.66506   0.25025   0.00000  Uiso   1.00
C392   C     0.83156   0.83509   0.24962   0.00000  Uiso   1.00
C393   C     0.86938   0.77754   0.05884   0.00000  Uiso   1.00
C394   C     0.87140   0.72434   0.45107   0.00000  Uiso   1.00
C395   C     0.86757   0.77601   0.10987   0.00000  Uiso   1.00
C396   C     0.86941   0.72566   0.39954   0.00000  Uiso   1.00
C397   C     0.79941   0.72493   0.09961   0.00000  Uiso   1.00
C398   C     0.79799   0.77376   0.39117   0.00000  Uiso   1.00
C399   C     0.79931   0.72514   0.04870   0.00000  Uiso   1.00
C400   C     0.79775   0.77340   0.44202   0.00000  Uiso   1.00
C401   C     0.83452   0.75110   0.02742   0.00000  Uiso   1.00
C402   C     0.83458   0.74895   0.47292   0.00000  Uiso   1.00
C403   C     0.73481   0.74654   0.23766   0.00000  Uiso   1.00
C404   C     0.93193   0.74691   0.26243   0.00000  Uiso   1.00
C405   C     0.68007   0.73887   0.23079   0.00000  Uiso   1.00
C406   C     0.98676   0.73973   0.26976   0.00000  Uiso   1.00
C407   C     0.78563   0.54982   0.23233   0.00000  Uiso   1.00
C408   C     0.85746   0.95203   0.21521   0.00000  Uiso   1.00
C409   C     0.78809   0.59584   0.23415   0.00000  Uiso   1.00
C410   C     0.85705   0.90597   0.21679   0.00000  Uiso   1.00
C411   C     0.83430   0.61701   0.25056   0.00000  Uiso   1.00
C412   C     0.82876   0.88346   0.24849   0.00000  Uiso   1.00
C413   C     0.87938   0.59206   0.26513   0.00000  Uiso   1.00
C414   C     0.79908   0.90756   0.27835   0.00000  Uiso   1.00
C415   C     0.87657   0.54590   0.26274   0.00000  Uiso   1.00
C416   C     0.80091   0.95380   0.27752   0.00000  Uiso   1.00
C417   C     0.83025   0.52471   0.24668   0.00000  Uiso   1.00
C418   C     0.82952   0.97610   0.24607   0.00000  Uiso   1.00
Cu419  Cu    0.83333   0.75000   0.29821   0.00000  Uiso   1.00
Cu420  Cu    0.83333   0.75001   0.20178   0.00000  Uiso   1.00
H421   H     0.75388   0.61538   0.22276   0.00000  Uiso   1.00
H422   H     0.87937   0.88751   0.19354   0.00000  Uiso   1.00
H423   H     0.91046   0.52602   0.27414   0.00000  Uiso   1.00
H424   H     0.77896   0.97280   0.30061   0.00000  Uiso   1.00
H425   H     0.89346   0.79602   0.13442   0.00000  Uiso   1.00
H426   H     0.89673   0.70688   0.38214   0.00000  Uiso   1.00
H427   H     0.77227   0.70453   0.11536   0.00000  Uiso   1.00
H428   H     0.76978   0.79322   0.36809   0.00000  Uiso   1.00
H429   H     0.77216   0.70464   0.02594   0.00000  Uiso   1.00
H430   H     0.76928   0.79273   0.45731   0.00000  Uiso   1.00
N431   N     0.83333   0.75001   0.12934   0.00000  Uiso   1.00
N432   N     0.83333   0.74999   0.37065   0.00000  Uiso   1.00
O433   O     0.83334   0.68573   0.29071   0.00000  Uiso   1.00
O434   O     0.83333   0.81427   0.20928   0.00000  Uiso   1.00
O435   O     0.83334   0.68573   0.20928   0.00000  Uiso   1.00
O436   O     0.83333   0.81427   0.29072   0.00000  Uiso   1.00
O437   O     0.75828   0.74999   0.28132   0.00000  Uiso   1.00
O438   O     0.90839   0.75001   0.21868   0.00000  Uiso   1.00
O439   O     0.75828   0.75000   0.19988   0.00000  Uiso   1.00
O440   O     0.90839   0.75000   0.30011   0.00000  Uiso   1.00
C441   C     0.98944   0.72898   0.17977   0.00000  Uiso   1.00
O442   O     0.99729   0.75310   0.14592   0.00000  Uiso   1.00
O443   O     0.95896   0.69131   0.17067   0.00000  Uiso   1.00
H444   H     0.94474   0.68813   0.13481   0.00000  Uiso   1.00
C445   C     0.67708   0.73289   0.32164   0.00000  Uiso   1.00
O446   O     0.70337   0.70002   0.33301   0.00000  Uiso   1.00
O447   O     0.66715   0.76294   0.35756   0.00000  Uiso   1.00
H448   H     0.68383   0.75390   0.39149   0.00000  Uiso   1.00
C449   C     0.73734   0.52915   0.21481   0.00000  Uiso   1.00
N450   N     0.69864   0.51259   0.20082   0.00000  Uiso   1.00
C451   C     0.88621   0.97388   0.18126   0.00000  Uiso   1.00
N452   N     0.90921   0.99141   0.15406   0.00000  Uiso   1.00
C453   C     0.92983   0.61254   0.28223   0.00000  Uiso   1.00
O454   O     0.93242   0.64889   0.30159   0.00000  Uiso   1.00
O455   O     0.97482   0.58952   0.27710   0.00000  Uiso   1.00
H456   H     0.67341   0.60674   0.28996   0.00000  Uiso   1.00
C457   C     0.76368   0.88614   0.30855   0.00000  Uiso   1.00
O458   O     0.73989   0.85304   0.29386   0.00000  Uiso   1.00
O459   O     0.75590   0.90504   0.35306   0.00000  Uiso   1.00
H460   H     0.73066   0.88771   0.37012   0.00000  Uiso   1.00
C461   C     0.90764   0.80712   0.04039   0.00000  Uiso   1.00
O462   O     0.90513   0.81568   0.49680   0.00000  Uiso   1.00
O463   O     0.94660   0.82592   0.07336   0.00000  Uiso   1.00
H464   H     0.97019   0.84543   0.05666   0.00000  Uiso   1.00
C465   C     0.91222   0.69723   0.48012   0.00000  Uiso   1.00
O466   O     0.90947   0.68715   0.02260   0.00000  Uiso   1.00
O467   O     0.95404   0.68265   0.45842   0.00000  Uiso   1.00
H468   H     0.97930   0.66458   0.48164   0.00000  Uiso   1.00
C469   C     0.16759   0.16506   0.75025   0.00000  Uiso   1.00
C470   C     0.16489   0.33509   0.74962   0.00000  Uiso   1.00
C471   C     0.20272   0.27754   0.55884   0.00000  Uiso   1.00
C472   C     0.20474   0.22434   0.95107   0.00000  Uiso   1.00
C473   C     0.20090   0.27601   0.60987   0.00000  Uiso   1.00
C474   C     0.20274   0.22566   0.89954   0.00000  Uiso   1.00
C475   C     0.13275   0.22493   0.59961   0.00000  Uiso   1.00
C476   C     0.13133   0.27376   0.89117   0.00000  Uiso   1.00
C477   C     0.13265   0.22514   0.54870   0.00000  Uiso   1.00
C478   C     0.13108   0.27340   0.94202   0.00000  Uiso   1.00
C479   C     0.16785   0.25110   0.52742   0.00000  Uiso   1.00
C480   C     0.16791   0.24895   0.97292   0.00000  Uiso   1.00
C481   C     0.06814   0.24654   0.73766   0.00000  Uiso   1.00
C482   C     0.26527   0.24691   0.76243   0.00000  Uiso   1.00
C483   C     0.01341   0.23887   0.73079   0.00000  Uiso   1.00
C484   C     0.32010   0.23973   0.76976   0.00000  Uiso   1.00
C485   C     0.11897   0.04982   0.73233   0.00000  Uiso   1.00
C486   C     0.19079   0.45203   0.71521   0.00000  Uiso   1.00
C487   C     0.12142   0.09584   0.73415   0.00000  Uiso   1.00
C488   C     0.19039   0.40597   0.71679   0.00000  Uiso   1.00
C489   C     0.16764   0.11701   0.75056   0.00000  Uiso   1.00
C490   C     0.16210   0.38346   0.74849   0.00000  Uiso   1.00
C491   C     0.21271   0.09206   0.76513   0.00000  Uiso   1.00
C492   C     0.13241   0.40756   0.77835   0.00000  Uiso   1.00
C493   C     0.20991   0.04590   0.76274   0.00000  Uiso   1.00
C494   C     0.13424   0.45380   0.77752   0.00000  Uiso   1.00
C495   C     0.16358   0.02471   0.74668   0.00000  Uiso   1.00
C496   C     0.16285   0.47610   0.74607   0.00000  Uiso   1.00
Cu497  Cu    0.16667   0.25000   0.79821   0.00000  Uiso   1.00
Cu498  Cu    0.16667   0.25001   0.70178   0.00000  Uiso   1.00
H499   H     0.08722   0.11538   0.72276   0.00000  Uiso   1.00
H500   H     0.21270   0.38751   0.69354   0.00000  Uiso   1.00
H501   H     0.24380   0.02602   0.77414   0.00000  Uiso   1.00
H502   H     0.11229   0.47280   0.80061   0.00000  Uiso   1.00
H503   H     0.22680   0.29602   0.63442   0.00000  Uiso   1.00
H504   H     0.23006   0.20688   0.88214   0.00000  Uiso   1.00
H505   H     0.10560   0.20453   0.61536   0.00000  Uiso   1.00
H506   H     0.10311   0.29322   0.86809   0.00000  Uiso   1.00
H507   H     0.10550   0.20464   0.52594   0.00000  Uiso   1.00
H508   H     0.10261   0.29273   0.95731   0.00000  Uiso   1.00
N509   N     0.16667   0.25001   0.62934   0.00000  Uiso   1.00
N510   N     0.16667   0.24999   0.87065   0.00000  Uiso   1.00
O511   O     0.16667   0.18573   0.79071   0.00000  Uiso   1.00
O512   O     0.16666   0.31427   0.70928   0.00000  Uiso   1.00
O513   O     0.16667   0.18573   0.70928   0.00000  Uiso   1.00
O514   O     0.16666   0.31427   0.79072   0.00000  Uiso   1.00
O515   O     0.09161   0.24999   0.78132   0.00000  Uiso   1.00
O516   O     0.24172   0.25001   0.71868   0.00000  Uiso   1.00
O517   O     0.09161   0.25000   0.69988   0.00000  Uiso   1.00
O518   O     0.24172   0.25000   0.80011   0.00000  Uiso   1.00
C519   C     0.32277   0.22898   0.67977   0.00000  Uiso   1.00
O520   O     0.33062   0.25310   0.64592   0.00000  Uiso   1.00
O521   O     0.29229   0.19131   0.67067   0.00000  Uiso   1.00
H522   H     0.27807   0.18813   0.63481   0.00000  Uiso   1.00
C523   C     0.01042   0.23289   0.82164   0.00000  Uiso   1.00
O524   O     0.03671   0.20002   0.83301   0.00000  Uiso   1.00
O525   O     0.00048   0.26294   0.85756   0.00000  Uiso   1.00
H526   H     0.01717   0.25390   0.89149   0.00000  Uiso   1.00
C527   C     0.07067   0.02915   0.71481   0.00000  Uiso   1.00
N528   N     0.03198   0.01259   0.70082   0.00000  Uiso   1.00
C529   C     0.21955   0.47388   0.68126   0.00000  Uiso   1.00
N530   N     0.24254   0.49141   0.65406   0.00000  Uiso   1.00
C531   C     0.26317   0.11254   0.78223   0.00000  Uiso   1.00
O532   O     0.26576   0.14889   0.80159   0.00000  Uiso   1.00
O533   O     0.30816   0.08952   0.77710   0.00000  Uiso   1.00
H534   H     0.00675   0.10674   0.78996   0.00000  Uiso   1.00
C535   C     0.09702   0.38614   0.80855   0.00000  Uiso   1.00
O536   O     0.07322   0.35304   0.79386   0.00000  Uiso   1.00
O537   O     0.08923   0.40504   0.85306   0.00000  Uiso   1.00
H538   H     0.06399   0.38771   0.87012   0.00000  Uiso   1.00
C539   C     0.24097   0.30712   0.54039   0.00000  Uiso   1.00
O540   O     0.23846   0.31568   0.99680   0.00000  Uiso   1.00
O541   O     0.27994   0.32592   0.57336   0.00000  Uiso   1.00
H542   H     0.30353   0.34543   0.55666   0.00000  Uiso   1.00
C543   C     0.24556   0.19723   0.98012   0.00000  Uiso   1.00
O544   O     0.24280   0.18715   0.52260   0.00000  Uiso   1.00
O545   O     0.28738   0.18265   0.95842   0.00000  Uiso   1.00
H546   H     0.31263   0.16458   0.98164   0.00000  Uiso   1.00
C547   C     0.50093   0.16506   0.75025   0.00000  Uiso   1.00
C548   C     0.49823   0.33509   0.74962   0.00000  Uiso   1.00
C549   C     0.53605   0.27754   0.55884   0.00000  Uiso   1.00
C550   C     0.53807   0.22434   0.95107   0.00000  Uiso   1.00
C551   C     0.53423   0.27601   0.60987   0.00000  Uiso   1.00
C552   C     0.53607   0.22566   0.89954   0.00000  Uiso   1.00
C553   C     0.46608   0.22493   0.59961   0.00000  Uiso   1.00
C554   C     0.46466   0.27376   0.89117   0.00000  Uiso   1.00
C555   C     0.46598   0.22514   0.54870   0.00000  Uiso   1.00
C556   C     0.46442   0.27340   0.94202   0.00000  Uiso   1.00
C557   C     0.50118   0.25110   0.52742   0.00000  Uiso   1.00
C558   C     0.50125   0.24895   0.97292   0.00000  Uiso   1.00
C559   C     0.40147   0.24654   0.73766   0.00000  Uiso   1.00
C560   C     0.59860   0.24691   0.76243   0.00000  Uiso   1.00
C561   C     0.34674   0.23887   0.73079   0.00000  Uiso   1.00
C562   C     0.65343   0.23973   0.76976   0.00000  Uiso   1.00
C563   C     0.45230   0.04982   0.73233   0.00000  Uiso   1.00
C564   C     0.52413   0.45203   0.71521   0.00000  Uiso   1.00
C565   C     0.45475   0.09584   0.73415   0.00000  Uiso   1.00
C566   C     0.52372   0.40597   0.71679   0.00000  Uiso   1.00
C567   C     0.50097   0.11701   0.75056   0.00000  Uiso   1.00
C568   C     0.49543   0.38346   0.74849   0.00000  Uiso   1.00
C569   C     0.54604   0.09206   0.76513   0.00000  Uiso   1.00
C570   C     0.46575   0.40756   0.77835   0.00000  Uiso   1.00
C571   C     0.54324   0.04590   0.76274   0.00000  Uiso   1.00
C572   C     0.46758   0.45380   0.77752   0.00000  Uiso   1.00
C573   C     0.49692   0.02471   0.74668   0.00000  Uiso   1.00
C574   C     0.49618   0.47610   0.74607   0.00000  Uiso   1.00
Cu575  Cu    0.50000   0.25000   0.79821   0.00000  Uiso   1.00
Cu576  Cu    0.50000   0.25001   0.70178   0.00000  Uiso   1.00
H577   H     0.42055   0.11538   0.72276   0.00000  Uiso   1.00
H578   H     0.54604   0.38751   0.69354   0.00000  Uiso   1.00
H579   H     0.57713   0.02602   0.77414   0.00000  Uiso   1.00
H580   H     0.44563   0.47280   0.80061   0.00000  Uiso   1.00
H581   H     0.56013   0.29602   0.63442   0.00000  Uiso   1.00
H582   H     0.56339   0.20688   0.88214   0.00000  Uiso   1.00
H583   H     0.43894   0.20453   0.61536   0.00000  Uiso   1.00
H584   H     0.43644   0.29322   0.86809   0.00000  Uiso   1.00
H585   H     0.43883   0.20464   0.52594   0.00000  Uiso   1.00
H586   H     0.43595   0.29273   0.95731   0.00000  Uiso   1.00
N587   N     0.50000   0.25001   0.62934   0.00000  Uiso   1.00
N588   N     0.50000   0.24999   0.87065   0.00000  Uiso   1.00
O589   O     0.50000   0.18573   0.79071   0.00000  Uiso   1.00
O590   O     0.50000   0.31427   0.70928   0.00000  Uiso   1.00
O591   O     0.50000   0.18573   0.70928   0.00000  Uiso   1.00
O592   O     0.50000   0.31427   0.79072   0.00000  Uiso   1.00
O593   O     0.42495   0.24999   0.78132   0.00000  Uiso   1.00
O594   O     0.57505   0.25001   0.71868   0.00000  Uiso   1.00
O595   O     0.42495   0.25000   0.69988   0.00000  Uiso   1.00
O596   O     0.57505   0.25000   0.80011   0.00000  Uiso   1.00
C597   C     0.65610   0.22898   0.67977   0.00000  Uiso   1.00
O598   O     0.66396   0.25310   0.64592   0.00000  Uiso   1.00
O599   O     0.62562   0.19131   0.67067   0.00000  Uiso   1.00
H600   H     0.61140   0.18813   0.63481   0.00000  Uiso   1.00
C601   C     0.34375   0.23289   0.82164   0.00000  Uiso   1.00
O602   O     0.37004   0.20002   0.83301   0.00000  Uiso   1.00
O603   O     0.33381   0.26294   0.85756   0.00000  Uiso   1.00
H604   H     0.35050   0.25390   0.89149   0.00000  Uiso   1.00
C605   C     0.40401   0.02915   0.71481   0.00000  Uiso   1.00
N606   N     0.36531   0.01259   0.70082   0.00000  Uiso   1.00
C607   C     0.55288   0.47388   0.68126   0.00000  Uiso   1.00
N608   N     0.57588   0.49141   0.65406   0.00000  Uiso   1.00
C609   C     0.59650   0.11254   0.78223   0.00000  Uiso   1.00
O610   O     0.59909   0.14889   0.80159   0.00000  Uiso   1.00
O611   O     0.64149   0.08952   0.77710   0.00000  Uiso   1.00
H612   H     0.34008   0.10674   0.78996   0.00000  Uiso   1.00
C613   C     0.43035   0.38614   0.80855   0.00000  Uiso   1.00
O614   O     0.40655   0.35304   0.79386   0.00000  Uiso   1.00
O615   O     0.42256   0.40504   0.85306   0.00000  Uiso   1.00
H616   H     0.39732   0.38771   0.87012   0.00000  Uiso   1.00
C617   C     0.57431   0.30712   0.54039   0.00000  Uiso   1.00
O618   O     0.57179   0.31568   0.99680   0.00000  Uiso   1.00
O619   O     0.61327   0.32592   0.57336   0.00000  Uiso   1.00
H620   H     0.63686   0.34543   0.55666   0.00000  Uiso   1.00
C621   C     0.57889   0.19723   0.98012   0.00000  Uiso   1.00
O622   O     0.57613   0.18715   0.52260   0.00000  Uiso   1.00
O623   O     0.62071   0.18265   0.95842   0.00000  Uiso   1.00
H624   H     0.64596   0.16458   0.98164   0.00000  Uiso   1.00
C625   C     0.83426   0.16506   0.75025   0.00000  Uiso   1.00
C626   C     0.83156   0.33509   0.74962   0.00000  Uiso   1.00
C627   C     0.86938   0.27754   0.55884   0.00000  Uiso   1.00
C628   C     0.87140   0.22434   0.95107   0.00000  Uiso   1.00
C629   C     0.86757   0.27601   0.60987   0.00000  Uiso   1.00
C630   C     0.86941   0.22566   0.89954   0.00000  Uiso   1.00
C631   C     0.79941   0.22493   0.59961   0.00000  Uiso   1.00
C632   C     0.79799   0.27376   0.89117   0.00000  Uiso   1.00
C633   C     0.79931   0.22514   0.54870   0.00000  Uiso   1.00
C634   C     0.79775   0.27340   0.94202   0.00000  Uiso   1.00
C635   C     0.83452   0.25110   0.52742   0.00000  Uiso   1.00
C636   C     0.83458   0.24895   0.97292   0.00000  Uiso   1.00
C637   C     0.73481   0.24654   0.73766   0.00000  Uiso   1.00
C638   C     0.93193   0.24691   0.76243   0.00000  Uiso   1.00
C639   C     0.68007   0.23887   0.73079   0.00000  Uiso   1.00
C640   C     0.98676   0.23973   0.76976   0.00000  Uiso   1.00
C641   C     0.78563   0.04982   0.73233   0.00000  Uiso   1.00
C642   C     0.85746   0.45203   0.71521   0.00000  Uiso   1.00
C643   C     0.78809   0.09584   0.73415   0.00000  Uiso   1.00
C644   C     0.85705   0.40597   0.71679   0.00000  Uiso   1.00
C645   C     0.83430   0.11701   0.75056   0.00000  Uiso   1.00
C646   C     0.82876   0.38346   0.74849   0.00000  Uiso   1.00
C647   C     0.87938   0.09206   0.76513   0.00000  Uiso   1.00
C648   C     0.79908   0.40756   0.77835   0.00000  Uiso   1.00
C649   C     0.87657   0.04590   0.76274   0.00000  Uiso   1.00
C650   C     0.80091   0.45380   0.77752   0.00000  Uiso   1.00
C651   C     0.83025   0.02471   0.74668   0.00000  Uiso   1.00
C652   C     0.82952   0.47610   0.74607   0.00000  Uiso   1.00
Cu653  Cu    0.83333   0.25000   0.79821   0.00000  Uiso   1.00
Cu654  Cu    0.83333   0.25001   0.70178   0.00000  Uiso   1.00
H655   H     0.75388   0.11538   0.72276   0.00000  Uiso   1.00
H656   H     0.87937   0.38751   0.69354   0.00000  Uiso   1.00
H657   H     0.91046   0.02602   0.77414   0.00000  Uiso   1.00
H658   H     0.77896   0.47280   0.80061   0.00000  Uiso   1.00
H659   H     0.89346   0.29602   0.63442   0.00000  Uiso   1.00
H660   H     0.89673   0.20688   0.88214   0.00000  Uiso   1.00
H661   H     0.77227   0.20453   0.61536   0.00000  Uiso   1.00
H662   H     0.76978   0.29322   0.86809   0.00000  Uiso   1.00
H663   H     0.77216   0.20464   0.52594   0.00000  Uiso   1.00
H664   H     0.76928   0.29273   0.95731   0.00000  Uiso   1.00
N665   N     0.83333   0.25001   0.62934   0.00000  Uiso   1.00
N666   N     0.83333   0.24999   0.87065   0.00000  Uiso   1.00
O667   O     0.83334   0.18573   0.79071   0.00000  Uiso   1.00
O668   O     0.83333   0.31427   0.70928   0.00000  Uiso   1.00
O669   O     0.83334   0.18573   0.70928   0.00000  Uiso   1.00
O670   O     0.83333   0.31427   0.79072   0.00000  Uiso   1.00
O671   O     0.75828   0.24999   0.78132   0.00000  Uiso   1.00
O672   O     0.90839   0.25001   0.71868   0.00000  Uiso   1.00
O673   O     0.75828   0.25000   0.69988   0.00000  Uiso   1.00
O674   O     0.90839   0.25000   0.80011   0.00000  Uiso   1.00
C675   C     0.98944   0.22898   0.67977   0.00000  Uiso   1.00
O676   O     0.99729   0.25310   0.64592   0.00000  Uiso   1.00
O677   O     0.95896   0.19131   0.67067   0.00000  Uiso   1.00
H678   H     0.94474   0.18813   0.63481   0.00000  Uiso   1.00
C679   C     0.67708   0.23289   0.82164   0.00000  Uiso   1.00
O680   O     0.70337   0.20002   0.83301   0.00000  Uiso   1.00
O681   O     0.66715   0.26294   0.85756   0.00000  Uiso   1.00
H682   H     0.68383   0.25390   0.89149   0.00000  Uiso   1.00
C683   C     0.73734   0.02915   0.71481   0.00000  Uiso   1.00
N684   N     0.69864   0.01259   0.70082   0.00000  Uiso   1.00
C685   C     0.88621   0.47388   0.68126   0.00000  Uiso   1.00
N686   N     0.90921   0.49141   0.65406   0.00000  Uiso   1.00
C687   C     0.92983   0.11254   0.78223   0.00000  Uiso   1.00
O688   O     0.93242   0.14889   0.80159   0.00000  Uiso   1.00
O689   O     0.97482   0.08952   0.77710   0.00000  Uiso   1.00
H690   H     0.67341   0.10674   0.78996   0.00000  Uiso   1.00
C691   C     0.76368   0.38614   0.80855   0.00000  Uiso   1.00
O692   O     0.73989   0.35304   0.79386   0.00000  Uiso   1.00
O693   O     0.75590   0.40504   0.85306   0.00000  Uiso   1.00
H694   H     0.73066   0.38771   0.87012   0.00000  Uiso   1.00
C695   C     0.90764   0.30712   0.54039   0.00000  Uiso   1.00
O696   O     0.90513   0.31568   0.99680   0.00000  Uiso   1.00
O697   O     0.94660   0.32592   0.57336   0.00000  Uiso   1.00
H698   H     0.97019   0.34543   0.55666   0.00000  Uiso   1.00
C699   C     0.91222   0.19723   0.98012   0.00000  Uiso   1.00
O700   O     0.90947   0.18715   0.52260   0.00000  Uiso   1.00
O701   O     0.95404   0.18265   0.95842   0.00000  Uiso   1.00
H702   H     0.97930   0.16458   0.98164   0.00000  Uiso   1.00
C703   C     0.16759   0.66506   0.75025   0.00000  Uiso   1.00
C704   C     0.16489   0.83509   0.74962   0.00000  Uiso   1.00
C705   C     0.20272   0.77754   0.55884   0.00000  Uiso   1.00
C706   C     0.20474   0.72434   0.95107   0.00000  Uiso   1.00
C707   C     0.20090   0.77601   0.60987   0.00000  Uiso   1.00
C708   C     0.20274   0.72566   0.89954   0.00000  Uiso   1.00
C709   C     0.13275   0.72493   0.59961   0.00000  Uiso   1.00
C710   C     0.13133   0.77376   0.89117   0.00000  Uiso   1.00
C711   C     0.13265   0.72514   0.54870   0.00000  Uiso   1.00
C712   C     0.13108   0.77340   0.94202   0.00000  Uiso   1.00
C713   C     0.16785   0.75110   0.52742   0.00000  Uiso   1.00
C714   C     0.16791   0.74895   0.97292   0.00000  Uiso   1.00
C715   C     0.06814   0.74654   0.73766   0.00000  Uiso   1.00
C716   C     0.26527   0.74691   0.76243   0.00000  Uiso   1.00
C717   C     0.01341   0.73887   0.73079   0.00000  Uiso   1.00
C718   C     0.32010   0.73973   0.76976   0.00000  Uiso   1.00
C719   C     0.11897   0.54982   0.73233   0.00000  Uiso   1.00
C720   C     0.19079   0.95203   0.71521   0.00000  Uiso   1.00
C721   C     0.12142   0.59584   0.73415   0.00000  Uiso   1.00
C722   C     0.19039   0.90597   0.71679   0.00000  Uiso   1.00
C723   C     0.16764   0.61701   0.75056   0.00000  Uiso   1.00
C724   C     0.16210   0.88346   0.74849   0.00000  Uiso   1.00
C725   C     0.21271   0.59206   0.76513   0.00000  Uiso   1.00
C726   C     0.13241   0.90756   0.77835   0.00000  Uiso   1.00
C727   C     0.20991   0.54590   0.76274   0.00000  Uiso   1.00
C728   C     0.13424   0.95380   0.77752   0.00000  Uiso   1.00
C729   C     0.16358   0.52471   0.74668   0.00000  Uiso   1.00
C730   C     0.16285   0.97610   0.74607   0.00000  Uiso   1.00
Cu731  Cu    0.16667   0.75000   0.79821   0.00000  Uiso   1.00
Cu732  Cu    0.16667   0.75001   0.70178   0.00000  Uiso   1.00
H733   H     0.08722   0.61538   0.72276   0.00000  Uiso   1.00
H734   H     0.21270   0.88751   0.69354   0.00000  Uiso   1.00
H735   H     0.24380   0.52602   0.77414   0.00000  Uiso   1.00
H736   H     0.11229   0.97280   0.80061   0.00000  Uiso   1.00
H737   H     0.22680   0.79602   0.63442   0.00000  Uiso   1.00
H738   H     0.23006   0.70688   0.88214   0.00000  Uiso   1.00
H739   H     0.10560   0.70453   0.61536   0.00000  Uiso   1.00
H740   H     0.10311   0.79322   0.86809   0.00000  Uiso   1.00
H741   H     0.10550   0.70464   0.52594   0.00000  Uiso   1.00
H742   H     0.10261   0.79273   0.95731   0.00000  Uiso   1.00
N743   N     0.16667   0.75001   0.62934   0.00000  Uiso   1.00
N744   N     0.16667   0.74999   0.87065   0.00000  Uiso   1.00
O745   O     0.16667   0.68573   0.79071   0.00000  Uiso   1.00
O746   O     0.16666   0.81427   0.70928   0.00000  Uiso   1.00
O747   O     0.16667   0.68573   0.70928   0.00000  Uiso   1.00
O748   O     0.16666   0.81427   0.79072   0.00000  Uiso   1.00
O749   O     0.09161   0.74999   0.78132   0.00000  Uiso   1.00
O750   O     0.24172   0.75001   0.71868   0.00000  Uiso   1.00
O751   O     0.09161   0.75000   0.69988   0.00000  Uiso   1.00
O752   O     0.24172   0.75000   0.80011   0.00000  Uiso   1.00
C753   C     0.32277   0.72898   0.67977   0.00000  Uiso   1.00
O754   O     0.33062   0.75310   0.64592   0.00000  Uiso   1.00
O755   O     0.29229   0.69131   0.67067   0.00000  Uiso   1.00
H756   H     0.27807   0.68813   0.63481   0.00000  Uiso   1.00
C757   C     0.01042   0.73289   0.82164   0.00000  Uiso   1.00
O758   O     0.03671   0.70002   0.83301   0.00000  Uiso   1.00
O759   O     0.00048   0.76294   0.85756   0.00000  Uiso   1.00
H760   H     0.01717   0.75390   0.89149   0.00000  Uiso   1.00
C761   C     0.07067   0.52915   0.71481   0.00000  Uiso   1.00
N762   N     0.03198   0.51259   0.70082   0.00000  Uiso   1.00
C763   C     0.21955   0.97388   0.68126   0.00000  Uiso   1.00
N764   N     0.24254   0.99141   0.65406   0.00000  Uiso   1.00
C765   C     0.26317   0.61254   0.78223   0.00000  Uiso   1.00
O766   O     0.26576   0.64889   0.80159   0.00000  Uiso   1.00
O767   O     0.30816   0.58952   0.77710   0.00000  Uiso   1.00
H768   H     0.00675   0.60674   0.78996   0.00000  Uiso   1.00
C769   C     0.09702   0.88614   0.80855   0.00000  Uiso   1.00
O770   O     0.07322   0.85304   0.79386   0.00000  Uiso   1.00
O771   O     0.08923   0.90504   0.85306   0.00000  Uiso   1.00
H772   H     0.06399   0.88771   0.87012   0.00000  Uiso   1.00
C773   C     0.24097   0.80712   0.54039   0.00000  Uiso   1.00
O774   O     0.23846   0.81568   0.99680   0.00000  Uiso   1.00
O775   O     0.27994   0.82592   0.57336   0.00000  Uiso   1.00
H776   H     0.30353   0.84543   0.55666   0.00000  Uiso   1.00
C777   C     0.24556   0.69723   0.98012   0.00000  Uiso   1.00
O778   O     0.24280   0.68715   0.52260   0.00000  Uiso   1.00
O779   O     0.28738   0.68265   0.95842   0.00000  Uiso   1.00
H780   H     0.31263   0.66458   0.98164   0.00000  Uiso   1.00
C781   C     0.50093   0.66506   0.75025   0.00000  Uiso   1.00
C782   C     0.49823   0.83509   0.74962   0.00000  Uiso   1.00
C783   C     0.53605   0.77754   0.55884   0.00000  Uiso   1.00
C784   C     0.53807   0.72434   0.95107   0.00000  Uiso   1.00
C785   C     0.53423   0.77601   0.60987   0.00000  Uiso   1.00
C786   C     0.53607   0.72566   0.89954   0.00000  Uiso   1.00
C787   C     0.46608   0.72493   0.59961   0.00000  Uiso   1.00
C788   C     0.46466   0.77376   0.89117   0.00000  Uiso   1.00
C789   C     0.46598   0.72514   0.54870   0.00000  Uiso   1.00
C790   C     0.46442   0.77340   0.94202   0.00000  Uiso   1.00
C791   C     0.50118   0.75110   0.52742   0.00000  Uiso   1.00
C792   C     0.50125   0.74895   0.97292   0.00000  Uiso   1.00
C793   C     0.40147   0.74654   0.73766   0.00000  Uiso   1.00
C794   C     0.59860   0.74691   0.76243   0.00000  Uiso   1.00
C795   C     0.34674   0.73887   0.73079   0.00000  Uiso   1.00
C796   C     0.65343   0.73973   0.76976   0.00000  Uiso   1.00
C797   C     0.45230   0.54982   0.73233   0.00000  Uiso   1.00
C798   C     0.52413   0.95203   0.71521   0.00000  Uiso   1.00
C799   C     0.45475   0.59584   0.73415   0.00000  Uiso   1.00
C800   C     0.52372   0.90597   0.71679   0.00000  Uiso   1.00
C801   C     0.50097   0.61701   0.75056   0.00000  Uiso   1.00
C802   C     0.49543   0.88346   0.74849   0.00000  Uiso   1.00
C803   C     0.54604   0.59206   0.76513   0.00000  Uiso   1.00
C804   C     0.46575   0.90756   0.77835   0.00000  Uiso   1.00
C805   C     0.54324   0.54590   0.76274   0.00000  Uiso   1.00
C806   C     0.46758   0.95380   0.77752   0.00000  Uiso   1.00
C807   C     0.49692   0.52471   0.74668   0.00000  Uiso   1.00
C808   C     0.49618   0.97610   0.74607   0.00000  Uiso   1.00
Cu809  Cu    0.50000   0.75000   0.79821   0.00000  Uiso   1.00
Cu810  Cu    0.50000   0.75001   0.70178   0.00000  Uiso   1.00
H811   H     0.42055   0.61538   0.72276   0.00000  Uiso   1.00
H812   H     0.54604   0.88751   0.69354   0.00000  Uiso   1.00
H813   H     0.57713   0.52602   0.77414   0.00000  Uiso   1.00
H814   H     0.44563   0.97280   0.80061   0.00000  Uiso   1.00
H815   H     0.56013   0.79602   0.63442   0.00000  Uiso   1.00
H816   H     0.56339   0.70688   0.88214   0.00000  Uiso   1.00
H817   H     0.43894   0.70453   0.61536   0.00000  Uiso   1.00
H818   H     0.43644   0.79322   0.86809   0.00000  Uiso   1.00
H819   H     0.43883   0.70464   0.52594   0.00000  Uiso   1.00
H820   H     0.43595   0.79273   0.95731   0.00000  Uiso   1.00
N821   N     0.50000   0.75001   0.62934   0.00000  Uiso   1.00
N822   N     0.50000   0.74999   0.87065   0.00000  Uiso   1.00
O823   O     0.50000   0.68573   0.79071   0.00000  Uiso   1.00
O824   O     0.50000   0.81427   0.70928   0.00000  Uiso   1.00
O825   O     0.50000   0.68573   0.70928   0.00000  Uiso   1.00
O826   O     0.50000   0.81427   0.79072   0.00000  Uiso   1.00
O827   O     0.42495   0.74999   0.78132   0.00000  Uiso   1.00
O828   O     0.57505   0.75001   0.71868   0.00000  Uiso   1.00
O829   O     0.42495   0.75000   0.69988   0.00000  Uiso   1.00
O830   O     0.57505   0.75000   0.80011   0.00000  Uiso   1.00
C831   C     0.65610   0.72898   0.67977   0.00000  Uiso   1.00
O832   O     0.66396   0.75310   0.64592   0.00000  Uiso   1.00
O833   O     0.62562   0.69131   0.67067   0.00000  Uiso   1.00
H834   H     0.61140   0.68813   0.63481   0.00000  Uiso   1.00
C835   C     0.34375   0.73289   0.82164   0.00000  Uiso   1.00
O836   O     0.37004   0.70002   0.83301   0.00000  Uiso   1.00
O837   O     0.33381   0.76294   0.85756   0.00000  Uiso   1.00
H838   H     0.35050   0.75390   0.89149   0.00000  Uiso   1.00
C839   C     0.40401   0.52915   0.71481   0.00000  Uiso   1.00
N840   N     0.36531   0.51259   0.70082   0.00000  Uiso   1.00
C841   C     0.55288   0.97388   0.68126   0.00000  Uiso   1.00
N842   N     0.57588   0.99141   0.65406   0.00000  Uiso   1.00
C843   C     0.59650   0.61254   0.78223   0.00000  Uiso   1.00
O844   O     0.59909   0.64889   0.80159   0.00000  Uiso   1.00
O845   O     0.64149   0.58952   0.77710   0.00000  Uiso   1.00
H846   H     0.34008   0.60674   0.78996   0.00000  Uiso   1.00
C847   C     0.43035   0.88614   0.80855   0.00000  Uiso   1.00
O848   O     0.40655   0.85304   0.79386   0.00000  Uiso   1.00
O849   O     0.42256   0.90504   0.85306   0.00000  Uiso   1.00
H850   H     0.39732   0.88771   0.87012   0.00000  Uiso   1.00
C851   C     0.57431   0.80712   0.54039   0.00000  Uiso   1.00
O852   O     0.57179   0.81568   0.99680   0.00000  Uiso   1.00
O853   O     0.61327   0.82592   0.57336   0.00000  Uiso   1.00
H854   H     0.63686   0.84543   0.55666   0.00000  Uiso   1.00
C855   C     0.57889   0.69723   0.98012   0.00000  Uiso   1.00
O856   O     0.57613   0.68715   0.52260   0.00000  Uiso   1.00
O857   O     0.62071   0.68265   0.95842   0.00000  Uiso   1.00
H858   H     0.64596   0.66458   0.98164   0.00000  Uiso   1.00
C859   C     0.83426   0.66506   0.75025   0.00000  Uiso   1.00
C860   C     0.83156   0.83509   0.74962   0.00000  Uiso   1.00
C861   C     0.86938   0.77754   0.55884   0.00000  Uiso   1.00
C862   C     0.87140   0.72434   0.95107   0.00000  Uiso   1.00
C863   C     0.86757   0.77601   0.60987   0.00000  Uiso   1.00
C864   C     0.86941   0.72566   0.89954   0.00000  Uiso   1.00
C865   C     0.79941   0.72493   0.59961   0.00000  Uiso   1.00
C866   C     0.79799   0.77376   0.89117   0.00000  Uiso   1.00
C867   C     0.79931   0.72514   0.54870   0.00000  Uiso   1.00
C868   C     0.79775   0.77340   0.94202   0.00000  Uiso   1.00
C869   C     0.83452   0.75110   0.52742   0.00000  Uiso   1.00
C870   C     0.83458   0.74895   0.97292   0.00000  Uiso   1.00
C871   C     0.73481   0.74654   0.73766   0.00000  Uiso   1.00
C872   C     0.93193   0.74691   0.76243   0.00000  Uiso   1.00
C873   C     0.68007   0.73887   0.73079   0.00000  Uiso   1.00
C874   C     0.98676   0.73973   0.76976   0.00000  Uiso   1.00
C875   C     0.78563   0.54982   0.73233   0.00000  Uiso   1.00
C876   C     0.85746   0.95203   0.71521   0.00000  Uiso   1.00
C877   C     0.78809   0.59584   0.73415   0.00000  Uiso   1.00
C878   C     0.85705   0.90597   0.71679   0.00000  Uiso   1.00
C879   C     0.83430   0.61701   0.75056   0.00000  Uiso   1.00
C880   C     0.82876   0.88346   0.74849   0.00000  Uiso   1.00
C881   C     0.87938   0.59206   0.76513   0.00000  Uiso   1.00
C882   C     0.79908   0.90756   0.77835   0.00000  Uiso   1.00
C883   C     0.87657   0.54590   0.76274   0.00000  Uiso   1.00
C884   C     0.80091   0.95380   0.77752   0.00000  Uiso   1.00
C885   C     0.83025   0.52471   0.74668   0.00000  Uiso   1.00
C886   C     0.82952   0.97610   0.74607   0.00000  Uiso   1.00
Cu887  Cu    0.83333   0.75000   0.79821   0.00000  Uiso   1.00
Cu888  Cu    0.83333   0.75001   0.70178   0.00000  Uiso   1.00
H889   H     0.75388   0.61538   0.72276   0.00000  Uiso   1.00
H890   H     0.87937   0.88751   0.69354   0.00000  Uiso   1.00
H891   H     0.91046   0.52602   0.77414   0.00000  Uiso   1.00
H892   H     0.77896   0.97280   0.80061   0.00000  Uiso   1.00
H893   H     0.89346   0.79602   0.63442   0.00000  Uiso   1.00
H894   H     0.89673   0.70688   0.88214   0.00000  Uiso   1.00
H895   H     0.77227   0.70453   0.61536   0.00000  Uiso   1.00
H896   H     0.76978   0.79322   0.86809   0.00000  Uiso   1.00
H897   H     0.77216   0.70464   0.52594   0.00000  Uiso   1.00
H898   H     0.76928   0.79273   0.95731   0.00000  Uiso   1.00
N899   N     0.83333   0.75001   0.62934   0.00000  Uiso   1.00
N900   N     0.83333   0.74999   0.87065   0.00000  Uiso   1.00
O901   O     0.83334   0.68573   0.79071   0.00000  Uiso   1.00
O902   O     0.83333   0.81427   0.70928   0.00000  Uiso   1.00
O903   O     0.83334   0.68573   0.70928   0.00000  Uiso   1.00
O904   O     0.83333   0.81427   0.79072   0.00000  Uiso   1.00
O905   O     0.75828   0.74999   0.78132   0.00000  Uiso   1.00
O906   O     0.90839   0.75001   0.71868   0.00000  Uiso   1.00
O907   O     0.75828   0.75000   0.69988   0.00000  Uiso   1.00
O908   O     0.90839   0.75000   0.80011   0.00000  Uiso   1.00
C909   C     0.98944   0.72898   0.67977   0.00000  Uiso   1.00
O910   O     0.99729   0.75310   0.64592   0.00000  Uiso   1.00
O911   O     0.95896   0.69131   0.67067   0.00000  Uiso   1.00
H912   H     0.94474   0.68813   0.63481   0.00000  Uiso   1.00
C913   C     0.67708   0.73289   0.82164   0.00000  Uiso   1.00
O914   O     0.70337   0.70002   0.83301   0.00000  Uiso   1.00
O915   O     0.66715   0.76294   0.85756   0.00000  Uiso   1.00
H916   H     0.68383   0.75390   0.89149   0.00000  Uiso   1.00
C917   C     0.73734   0.52915   0.71481   0.00000  Uiso   1.00
N918   N     0.69864   0.51259   0.70082   0.00000  Uiso   1.00
C919   C     0.88621   0.97388   0.68126   0.00000  Uiso   1.00
N920   N     0.90921   0.99141   0.65406   0.00000  Uiso   1.00
C921   C     0.92983   0.61254   0.78223   0.00000  Uiso   1.00
O922   O     0.93242   0.64889   0.80159   0.00000  Uiso   1.00
O923   O     0.97482   0.58952   0.77710   0.00000  Uiso   1.00
H924   H     0.67341   0.60674   0.78996   0.00000  Uiso   1.00
C925   C     0.76368   0.88614   0.80855   0.00000  Uiso   1.00
O926   O     0.73989   0.85304   0.79386   0.00000  Uiso   1.00
O927   O     0.75590   0.90504   0.85306   0.00000  Uiso   1.00
H928   H     0.73066   0.88771   0.87012   0.00000  Uiso   1.00
C929   C     0.90764   0.80712   0.54039   0.00000  Uiso   1.00
O930   O     0.90513   0.81568   0.99680   0.00000  Uiso   1.00
O931   O     0.94660   0.82592   0.57336   0.00000  Uiso   1.00
H932   H     0.97019   0.84543   0.55666   0.00000  Uiso   1.00
C933   C     0.91222   0.69723   0.98012   0.00000  Uiso   1.00
O934   O     0.90947   0.68715   0.52260   0.00000  Uiso   1.00
O935   O     0.95404   0.68265   0.95842   0.00000  Uiso   1.00
H936   H     0.97930   0.66458   0.98164   0.00000  Uiso   1.00
loop_
_geom_bond_atom_site_label_1
_geom_bond_atom_site_label_2
_geom_bond_distance
_geom_bond_site_symmetry_2
_ccdc_geom_bond_type
C1     C21     1.451   .     S
C1     O43     1.286   .     A
C1     O45     1.286   .     A
C2     O46     1.290   .     A
C2     O44     1.288   .     A
C2     C22     1.462   .     S
C3     C71     1.491   .     S
C3     C5      1.417   .     A
C3     C11     1.424   .     A
C4     C75     1.490   .     S
C4     C12     1.424   .     A
C4     C6      1.417   .     A
C5     N41     1.364   .     A
C5     H35     1.082   .     S
C6     H36     1.082   .     S
C6     N42     1.364   .     A
C7     H37     1.082   .     S
C7     C9      1.405   .     A
C7     N41     1.362   .     A
C8     H38     1.080   .     S
C8     N42     1.362   .     A
C8     C10     1.405   .     A
C9     H39     1.083   .     S
C9     C11     1.406   .     A
C10    H40     1.083   .     S
C10    C12     1.406   .     A
C11    C480    1.507   1_554 S
C12    C479    1.507   .     S
C13    O49     1.290   .     A
C13    C15     1.451   .     S
C13    O47     1.281   .     A
C14    O48     1.282   .     A
C14    O50     1.288   .     A
C14    C16     1.449   .     S
C15    C172    1.366   1_455 S
C15    C207    1.493   1_455 S
C16    C93     1.366   .     S
C16    C133    1.494   .     S
C17    C27     1.407   .     A
C17    C59     1.444   .     S
C17    C19     1.392   .     A
C18    C20     1.391   .     A
C18    C28     1.406   .     A
C18    C61     1.445   .     S
C19    H31     1.086   .     S
C19    C21     1.399   .     A
C20    C22     1.402   .     A
C20    H32     1.085   .     S
C21    C23     1.415   .     A
C22    C24     1.417   .     A
C23    C63     1.488   .     S
C23    C25     1.397   .     A
C24    C26     1.397   .     A
C24    C67     1.485   .     S
C25    C27     1.400   .     A
C25    H33     1.084   .     S
C26    H34     1.085   .     S
C26    C28     1.400   .     A
C27    C262    1.468   1_545 S
C28    C261    1.468   .     S
Cu29   N42     2.000   .     S
Cu29   O47     1.972   .     S
Cu29   O43     1.953   .     S
Cu29   O50     1.976   .     S
Cu29   Cu30    2.663   .     S
Cu29   O46     1.951   .     S
Cu30   O45     1.951   .     S
Cu30   O48     1.972   .     S
Cu30   N41     2.000   .     S
Cu30   O44     1.953   .     S
Cu30   O49     1.976   .     S
C51    O52     1.223   .     D
C51    O53     1.399   .     S
C51    C93     1.493   .     S
O53    H54     1.014   .     S
C55    O56     1.224   .     D
C55    O57     1.399   .     S
C55    C172    1.494   1_455 S
O57    H58     1.014   .     S
C59    N60     1.157   .     T
C61    N62     1.157   .     T
C63    O65     1.399   .     S
C63    O64     1.221   .     D
O65    H144    1.014   .     S
H66    O221    1.014   1_455 S
C67    O68     1.223   .     D
C67    O69     1.398   .     S
O69    H70     1.014   .     S
C71    O73     1.399   .     S
C71    O540    1.222   1_554 S
O72    C539    1.222   .     S
O73    H74     1.014   .     S
C75    O77     1.399   .     S
C75    O544    1.223   .     S
O76    C543    1.223   1_554 S
O77    H78     1.014   .     S
C79    C99     1.451   .     S
C79    O121    1.286   .     A
C79    O123    1.286   .     A
C80    O124    1.290   .     A
C80    O122    1.288   .     A
C80    C100    1.462   .     S
C81    C149    1.491   .     S
C81    C83     1.417   .     A
C81    C89     1.424   .     A
C82    C153    1.490   .     S
C82    C90     1.424   .     A
C82    C84     1.417   .     A
C83    N119    1.364   .     A
C83    H113    1.082   .     S
C84    H114    1.082   .     S
C84    N120    1.364   .     A
C85    H115    1.082   .     S
C85    C87     1.405   .     A
C85    N119    1.362   .     A
C86    H116    1.080   .     S
C86    N120    1.362   .     A
C86    C88     1.405   .     A
C87    H117    1.083   .     S
C87    C89     1.406   .     A
C88    H118    1.083   .     S
C88    C90     1.406   .     A
C89    C558    1.507   1_554 S
C90    C557    1.507   .     S
C91    O127    1.290   .     A
C91    C93     1.451   .     S
C91    O125    1.281   .     A
C92    O126    1.282   .     A
C92    O128    1.288   .     A
C92    C94     1.449   .     S
C94    C171    1.366   .     S
C94    C211    1.494   .     S
C95    C105    1.407   .     A
C95    C137    1.444   .     S
C95    C97     1.392   .     A
C96    C98     1.391   .     A
C96    C106    1.406   .     A
C96    C139    1.445   .     S
C97    H109    1.086   .     S
C97    C99     1.399   .     A
C98    C100    1.402   .     A
C98    H110    1.085   .     S
C99    C101    1.415   .     A
C100   C102    1.417   .     A
C101   C141    1.488   .     S
C101   C103    1.397   .     A
C102   C104    1.397   .     A
C102   C145    1.485   .     S
C103   C105    1.400   .     A
C103   H111    1.084   .     S
C104   H112    1.085   .     S
C104   C106    1.400   .     A
C105   C340    1.468   1_545 S
C106   C339    1.468   .     S
Cu107  N120    2.000   .     S
Cu107  O125    1.972   .     S
Cu107  O121    1.953   .     S
Cu107  O128    1.976   .     S
Cu107  Cu108   2.663   .     S
Cu107  O124    1.951   .     S
Cu108  O123    1.951   .     S
Cu108  O126    1.972   .     S
Cu108  N119    2.000   .     S
Cu108  O122    1.953   .     S
Cu108  O127    1.976   .     S
C129   O130    1.223   .     D
C129   O131    1.399   .     S
C129   C171    1.493   .     S
O131   H132    1.014   .     S
C133   O134    1.224   .     D
C133   O135    1.399   .     S
O135   H136    1.014   .     S
C137   N138    1.157   .     T
C139   N140    1.157   .     T
C141   O143    1.399   .     S
C141   O142    1.221   .     D
O143   H222    1.014   .     S
C145   O146    1.223   .     D
C145   O147    1.398   .     S
O147   H148    1.014   .     S
C149   O151    1.399   .     S
C149   O618    1.222   1_554 S
O150   C617    1.222   .     S
O151   H152    1.014   .     S
C153   O155    1.399   .     S
C153   O622    1.223   .     S
O154   C621    1.223   1_554 S
O155   H156    1.014   .     S
C157   C177    1.451   .     S
C157   O199    1.286   .     A
C157   O201    1.286   .     A
C158   O202    1.290   .     A
C158   O200    1.288   .     A
C158   C178    1.462   .     S
C159   C227    1.491   .     S
C159   C161    1.417   .     A
C159   C167    1.424   .     A
C160   C231    1.490   .     S
C160   C168    1.424   .     A
C160   C162    1.417   .     A
C161   N197    1.364   .     A
C161   H191    1.082   .     S
C162   H192    1.082   .     S
C162   N198    1.364   .     A
C163   H193    1.082   .     S
C163   C165    1.405   .     A
C163   N197    1.362   .     A
C164   H194    1.080   .     S
C164   N198    1.362   .     A
C164   C166    1.405   .     A
C165   H195    1.083   .     S
C165   C167    1.406   .     A
C166   H196    1.083   .     S
C166   C168    1.406   .     A
C167   C636    1.507   1_554 S
C168   C635    1.507   .     S
C169   O205    1.290   .     A
C169   C171    1.451   .     S
C169   O203    1.281   .     A
C170   O204    1.282   .     A
C170   O206    1.288   .     A
C170   C172    1.449   .     S
C172   C15     1.366   1_655 S
C172   C55     1.494   1_655 S
C173   C183    1.407   .     A
C173   C215    1.444   .     S
C173   C175    1.392   .     A
C174   C176    1.391   .     A
C174   C184    1.406   .     A
C174   C217    1.445   .     S
C175   H187    1.086   .     S
C175   C177    1.399   .     A
C176   C178    1.402   .     A
C176   H188    1.085   .     S
C177   C179    1.415   .     A
C178   C180    1.417   .     A
C179   C219    1.488   .     S
C179   C181    1.397   .     A
C180   C182    1.397   .     A
C180   C223    1.485   .     S
C181   C183    1.400   .     A
C181   H189    1.084   .     S
C182   H190    1.085   .     S
C182   C184    1.400   .     A
C183   C418    1.468   1_545 S
C184   C417    1.468   .     S
Cu185  N198    2.000   .     S
Cu185  O203    1.972   .     S
Cu185  O199    1.953   .     S
Cu185  O206    1.976   .     S
Cu185  Cu186   2.663   .     S
Cu185  O202    1.951   .     S
Cu186  O201    1.951   .     S
Cu186  O204    1.972   .     S
Cu186  N197    2.000   .     S
Cu186  O200    1.953   .     S
Cu186  O205    1.976   .     S
C207   O208    1.223   .     D
C207   O209    1.399   .     S
C207   C15     1.493   1_655 S
O209   H210    1.014   .     S
C211   O212    1.224   .     D
C211   O213    1.399   .     S
O213   H214    1.014   .     S
C215   N216    1.157   .     T
C217   N218    1.157   .     T
C219   O221    1.399   .     S
C219   O220    1.221   .     D
O221   H66     1.014   1_655 S
C223   O224    1.223   .     D
C223   O225    1.398   .     S
O225   H226    1.014   .     S
C227   O229    1.399   .     S
C227   O696    1.222   1_554 S
O228   C695    1.222   .     S
O229   H230    1.014   .     S
C231   O233    1.399   .     S
C231   O700    1.223   .     S
O232   C699    1.223   1_554 S
O233   H234    1.014   .     S
C235   C255    1.451   .     S
C235   O277    1.286   .     A
C235   O279    1.286   .     A
C236   O280    1.290   .     A
C236   O278    1.288   .     A
C236   C256    1.462   .     S
C237   C305    1.491   .     S
C237   C239    1.417   .     A
C237   C245    1.424   .     A
C238   C309    1.490   .     S
C238   C246    1.424   .     A
C238   C240    1.417   .     A
C239   N275    1.364   .     A
C239   H269    1.082   .     S
C240   H270    1.082   .     S
C240   N276    1.364   .     A
C241   H271    1.082   .     S
C241   C243    1.405   .     A
C241   N275    1.362   .     A
C242   H272    1.080   .     S
C242   N276    1.362   .     A
C242   C244    1.405   .     A
C243   H273    1.083   .     S
C243   C245    1.406   .     A
C244   H274    1.083   .     S
C244   C246    1.406   .     A
C245   C714    1.507   1_554 S
C246   C713    1.507   .     S
C247   O283    1.290   .     A
C247   C249    1.451   .     S
C247   O281    1.281   .     A
C248   O282    1.282   .     A
C248   O284    1.288   .     A
C248   C250    1.449   .     S
C249   C406    1.366   1_455 S
C249   C441    1.493   1_455 S
C250   C327    1.366   .     S
C250   C367    1.494   .     S
C251   C261    1.407   .     A
C251   C293    1.444   .     S
C251   C253    1.392   .     A
C252   C254    1.391   .     A
C252   C262    1.406   .     A
C252   C295    1.445   .     S
C253   H265    1.086   .     S
C253   C255    1.399   .     A
C254   C256    1.402   .     A
C254   H266    1.085   .     S
C255   C257    1.415   .     A
C256   C258    1.417   .     A
C257   C297    1.488   .     S
C257   C259    1.397   .     A
C258   C260    1.397   .     A
C258   C301    1.485   .     S
C259   C261    1.400   .     A
C259   H267    1.084   .     S
C260   H268    1.085   .     S
C260   C262    1.400   .     A
C262   C27     1.468   1_565 S
Cu263  N276    2.000   .     S
Cu263  O281    1.972   .     S
Cu263  O277    1.953   .     S
Cu263  O284    1.976   .     S
Cu263  Cu264   2.663   .     S
Cu263  O280    1.951   .     S
Cu264  O279    1.951   .     S
Cu264  O282    1.972   .     S
Cu264  N275    2.000   .     S
Cu264  O278    1.953   .     S
Cu264  O283    1.976   .     S
C285   O286    1.223   .     D
C285   O287    1.399   .     S
C285   C327    1.493   .     S
O287   H288    1.014   .     S
C289   O290    1.224   .     D
C289   O291    1.399   .     S
C289   C406    1.494   1_455 S
O291   H292    1.014   .     S
C293   N294    1.157   .     T
C295   N296    1.157   .     T
C297   O299    1.399   .     S
C297   O298    1.221   .     D
O299   H378    1.014   .     S
H300   O455    1.014   1_455 S
C301   O302    1.223   .     D
C301   O303    1.398   .     S
O303   H304    1.014   .     S
C305   O307    1.399   .     S
C305   O774    1.222   1_554 S
O306   C773    1.222   .     S
O307   H308    1.014   .     S
C309   O311    1.399   .     S
C309   O778    1.223   .     S
O310   C777    1.223   1_554 S
O311   H312    1.014   .     S
C313   C333    1.451   .     S
C313   O355    1.286   .     A
C313   O357    1.286   .     A
C314   O358    1.290   .     A
C314   O356    1.288   .     A
C314   C334    1.462   .     S
C315   C383    1.491   .     S
C315   C317    1.417   .     A
C315   C323    1.424   .     A
C316   C387    1.490   .     S
C316   C324    1.424   .     A
C316   C318    1.417   .     A
C317   N353    1.364   .     A
C317   H347    1.082   .     S
C318   H348    1.082   .     S
C318   N354    1.364   .     A
C319   H349    1.082   .     S
C319   C321    1.405   .     A
C319   N353    1.362   .     A
C320   H350    1.080   .     S
C320   N354    1.362   .     A
C320   C322    1.405   .     A
C321   H351    1.083   .     S
C321   C323    1.406   .     A
C322   H352    1.083   .     S
C322   C324    1.406   .     A
C323   C792    1.507   1_554 S
C324   C791    1.507   .     S
C325   O361    1.290   .     A
C325   C327    1.451   .     S
C325   O359    1.281   .     A
C326   O360    1.282   .     A
C326   O362    1.288   .     A
C326   C328    1.449   .     S
C328   C405    1.366   .     S
C328   C445    1.494   .     S
C329   C339    1.407   .     A
C329   C371    1.444   .     S
C329   C331    1.392   .     A
C330   C332    1.391   .     A
C330   C340    1.406   .     A
C330   C373    1.445   .     S
C331   H343    1.086   .     S
C331   C333    1.399   .     A
C332   C334    1.402   .     A
C332   H344    1.085   .     S
C333   C335    1.415   .     A
C334   C336    1.417   .     A
C335   C375    1.488   .     S
C335   C337    1.397   .     A
C336   C338    1.397   .     A
C336   C379    1.485   .     S
C337   C339    1.400   .     A
C337   H345    1.084   .     S
C338   H346    1.085   .     S
C338   C340    1.400   .     A
C340   C105    1.468   1_565 S
Cu341  N354    2.000   .     S
Cu341  O359    1.972   .     S
Cu341  O355    1.953   .     S
Cu341  O362    1.976   .     S
Cu341  Cu342   2.663   .     S
Cu341  O358    1.951   .     S
Cu342  O357    1.951   .     S
Cu342  O360    1.972   .     S
Cu342  N353    2.000   .     S
Cu342  O356    1.953   .     S
Cu342  O361    1.976   .     S
C363   O364    1.223   .     D
C363   O365    1.399   .     S
C363   C405    1.493   .     S
O365   H366    1.014   .     S
C367   O368    1.224   .     D
C367   O369    1.399   .     S
O369   H370    1.014   .     S
C371   N372    1.157   .     T
C373   N374    1.157   .     T
C375   O377    1.399   .     S
C375   O376    1.221   .     D
O377   H456    1.014   .     S
C379   O380    1.223   .     D
C379   O381    1.398   .     S
O381   H382    1.014   .     S
C383   O385    1.399   .     S
C383   O852    1.222   1_554 S
O384   C851    1.222   .     S
O385   H386    1.014   .     S
C387   O389    1.399   .     S
C387   O856    1.223   .     S
O388   C855    1.223   1_554 S
O389   H390    1.014   .     S
C391   C411    1.451   .     S
C391   O433    1.286   .     A
C391   O435    1.286   .     A
C392   O436    1.290   .     A
C392   O434    1.288   .     A
C392   C412    1.462   .     S
C393   C461    1.491   .     S
C393   C395    1.417   .     A
C393   C401    1.424   .     A
C394   C465    1.490   .     S
C394   C402    1.424   .     A
C394   C396    1.417   .     A
C395   N431    1.364   .     A
C395   H425    1.082   .     S
C396   H426    1.082   .     S
C396   N432    1.364   .     A
C397   H427    1.082   .     S
C397   C399    1.405   .     A
C397   N431    1.362   .     A
C398   H428    1.080   .     S
C398   N432    1.362   .     A
C398   C400    1.405   .     A
C399   H429    1.083   .     S
C399   C401    1.406   .     A
C400   H430    1.083   .     S
C400   C402    1.406   .     A
C401   C870    1.507   1_554 S
C402   C869    1.507   .     S
C403   O439    1.290   .     A
C403   C405    1.451   .     S
C403   O437    1.281   .     A
C404   O438    1.282   .     A
C404   O440    1.288   .     A
C404   C406    1.449   .     S
C406   C249    1.366   1_655 S
C406   C289    1.494   1_655 S
C407   C417    1.407   .     A
C407   C449    1.444   .     S
C407   C409    1.392   .     A
C408   C410    1.391   .     A
C408   C418    1.406   .     A
C408   C451    1.445   .     S
C409   H421    1.086   .     S
C409   C411    1.399   .     A
C410   C412    1.402   .     A
C410   H422    1.085   .     S
C411   C413    1.415   .     A
C412   C414    1.417   .     A
C413   C453    1.488   .     S
C413   C415    1.397   .     A
C414   C416    1.397   .     A
C414   C457    1.485   .     S
C415   C417    1.400   .     A
C415   H423    1.084   .     S
C416   H424    1.085   .     S
C416   C418    1.400   .     A
C418   C183    1.468   1_565 S
Cu419  N432    2.000   .     S
Cu419  O437    1.972   .     S
Cu419  O433    1.953   .     S
Cu419  O440    1.976   .     S
Cu419  Cu420   2.663   .     S
Cu419  O436    1.951   .     S
Cu420  O435    1.951   .     S
Cu420  O438    1.972   .     S
Cu420  N431    2.000   .     S
Cu420  O434    1.953   .     S
Cu420  O439    1.976   .     S
C441   O442    1.223   .     D
C441   O443    1.399   .     S
C441   C249    1.493   1_655 S
O443   H444    1.014   .     S
C445   O446    1.224   .     D
C445   O447    1.399   .     S
O447   H448    1.014   .     S
C449   N450    1.157   .     T
C451   N452    1.157   .     T
C453   O455    1.399   .     S
C453   O454    1.221   .     D
O455   H300    1.014   1_655 S
C457   O458    1.223   .     D
C457   O459    1.398   .     S
O459   H460    1.014   .     S
C461   O463    1.399   .     S
C461   O930    1.222   1_554 S
O462   C929    1.222   .     S
O463   H464    1.014   .     S
C465   O467    1.399   .     S
C465   O934    1.223   .     S
O466   C933    1.223   1_554 S
O467   H468    1.014   .     S
C469   C489    1.451   .     S
C469   O511    1.286   .     A
C469   O513    1.286   .     A
C470   O514    1.290   .     A
C470   O512    1.288   .     A
C470   C490    1.462   .     S
C471   C539    1.491   .     S
C471   C473    1.417   .     A
C471   C479    1.424   .     A
C472   C543    1.490   .     S
C472   C480    1.424   .     A
C472   C474    1.417   .     A
C473   N509    1.364   .     A
C473   H503    1.082   .     S
C474   H504    1.082   .     S
C474   N510    1.364   .     A
C475   H505    1.082   .     S
C475   C477    1.405   .     A
C475   N509    1.362   .     A
C476   H506    1.080   .     S
C476   N510    1.362   .     A
C476   C478    1.405   .     A
C477   H507    1.083   .     S
C477   C479    1.406   .     A
C478   H508    1.083   .     S
C478   C480    1.406   .     A
C480   C11     1.507   1_556 S
C481   O517    1.290   .     A
C481   C483    1.451   .     S
C481   O515    1.281   .     A
C482   O516    1.282   .     A
C482   O518    1.288   .     A
C482   C484    1.449   .     S
C483   C640    1.366   1_455 S
C483   C675    1.493   1_455 S
C484   C561    1.366   .     S
C484   C601    1.494   .     S
C485   C495    1.407   .     A
C485   C527    1.444   .     S
C485   C487    1.392   .     A
C486   C488    1.391   .     A
C486   C496    1.406   .     A
C486   C529    1.445   .     S
C487   H499    1.086   .     S
C487   C489    1.399   .     A
C488   C490    1.402   .     A
C488   H500    1.085   .     S
C489   C491    1.415   .     A
C490   C492    1.417   .     A
C491   C531    1.488   .     S
C491   C493    1.397   .     A
C492   C494    1.397   .     A
C492   C535    1.485   .     S
C493   C495    1.400   .     A
C493   H501    1.084   .     S
C494   H502    1.085   .     S
C494   C496    1.400   .     A
C495   C730    1.468   1_545 S
C496   C729    1.468   .     S
Cu497  N510    2.000   .     S
Cu497  O515    1.972   .     S
Cu497  O511    1.953   .     S
Cu497  O518    1.976   .     S
Cu497  Cu498   2.663   .     S
Cu497  O514    1.951   .     S
Cu498  O513    1.951   .     S
Cu498  O516    1.972   .     S
Cu498  N509    2.000   .     S
Cu498  O512    1.953   .     S
Cu498  O517    1.976   .     S
C519   O520    1.223   .     D
C519   O521    1.399   .     S
C519   C561    1.493   .     S
O521   H522    1.014   .     S
C523   O524    1.224   .     D
C523   O525    1.399   .     S
C523   C640    1.494   1_455 S
O525   H526    1.014   .     S
C527   N528    1.157   .     T
C529   N530    1.157   .     T
C531   O533    1.399   .     S
C531   O532    1.221   .     D
O533   H612    1.014   .     S
H534   O689    1.014   1_455 S
C535   O536    1.223   .     D
C535   O537    1.398   .     S
O537   H538    1.014   .     S
C539   O541    1.399   .     S
O540   C71     1.222   1_556 S
O541   H542    1.014   .     S
C543   O545    1.399   .     S
C543   O76     1.223   1_556 S
O545   H546    1.014   .     S
C547   C567    1.451   .     S
C547   O589    1.286   .     A
C547   O591    1.286   .     A
C548   O592    1.290   .     A
C548   O590    1.288   .     A
C548   C568    1.462   .     S
C549   C617    1.491   .     S
C549   C551    1.417   .     A
C549   C557    1.424   .     A
C550   C621    1.490   .     S
C550   C558    1.424   .     A
C550   C552    1.417   .     A
C551   N587    1.364   .     A
C551   H581    1.082   .     S
C552   H582    1.082   .     S
C552   N588    1.364   .     A
C553   H583    1.082   .     S
C553   C555    1.405   .     A
C553   N587    1.362   .     A
C554   H584    1.080   .     S
C554   N588    1.362   .     A
C554   C556    1.405   .     A
C555   H585    1.083   .     S
C555   C557    1.406   .     A
C556   H586    1.083   .     S
C556   C558    1.406   .     A
C558   C89     1.507   1_556 S
C559   O595    1.290   .     A
C559   C561    1.451   .     S
C559   O593    1.281   .     A
C560   O594    1.282   .     A
C560   O596    1.288   .     A
C560   C562    1.449   .     S
C562   C639    1.366   .     S
C562   C679    1.494   .     S
C563   C573    1.407   .     A
C563   C605    1.444   .     S
C563   C565    1.392   .     A
C564   C566    1.391   .     A
C564   C574    1.406   .     A
C564   C607    1.445   .     S
C565   H577    1.086   .     S
C565   C567    1.399   .     A
C566   C568    1.402   .     A
C566   H578    1.085   .     S
C567   C569    1.415   .     A
C568   C570    1.417   .     A
C569   C609    1.488   .     S
C569   C571    1.397   .     A
C570   C572    1.397   .     A
C570   C613    1.485   .     S
C571   C573    1.400   .     A
C571   H579    1.084   .     S
C572   H580    1.085   .     S
C572   C574    1.400   .     A
C573   C808    1.468   1_545 S
C574   C807    1.468   .     S
Cu575  N588    2.000   .     S
Cu575  O593    1.972   .     S
Cu575  O589    1.953   .     S
Cu575  O596    1.976   .     S
Cu575  Cu576   2.663   .     S
Cu575  O592    1.951   .     S
Cu576  O591    1.951   .     S
Cu576  O594    1.972   .     S
Cu576  N587    2.000   .     S
Cu576  O590    1.953   .     S
Cu576  O595    1.976   .     S
C597   O598    1.223   .     D
C597   O599    1.399   .     S
C597   C639    1.493   .     S
O599   H600    1.014   .     S
C601   O602    1.224   .     D
C601   O603    1.399   .     S
O603   H604    1.014   .     S
C605   N606    1.157   .     T
C607   N608    1.157   .     T
C609   O611    1.399   .     S
C609   O610    1.221   .     D
O611   H690    1.014   .     S
C613   O614    1.223   .     D
C613   O615    1.398   .     S
O615   H616    1.014   .     S
C617   O619    1.399   .     S
O618   C149    1.222   1_556 S
O619   H620    1.014   .     S
C621   O623    1.399   .     S
C621   O154    1.223   1_556 S
O623   H624    1.014   .     S
C625   C645    1.451   .     S
C625   O667    1.286   .     A
C625   O669    1.286   .     A
C626   O670    1.290   .     A
C626   O668    1.288   .     A
C626   C646    1.462   .     S
C627   C695    1.491   .     S
C627   C629    1.417   .     A
C627   C635    1.424   .     A
C628   C699    1.490   .     S
C628   C636    1.424   .     A
C628   C630    1.417   .     A
C629   N665    1.364   .     A
C629   H659    1.082   .     S
C630   H660    1.082   .     S
C630   N666    1.364   .     A
C631   H661    1.082   .     S
C631   C633    1.405   .     A
C631   N665    1.362   .     A
C632   H662    1.080   .     S
C632   N666    1.362   .     A
C632   C634    1.405   .     A
C633   H663    1.083   .     S
C633   C635    1.406   .     A
C634   H664    1.083   .     S
C634   C636    1.406   .     A
C636   C167    1.507   1_556 S
C637   O673    1.290   .     A
C637   C639    1.451   .     S
C637   O671    1.281   .     A
C638   O672    1.282   .     A
C638   O674    1.288   .     A
C638   C640    1.449   .     S
C640   C483    1.366   1_655 S
C640   C523    1.494   1_655 S
C641   C651    1.407   .     A
C641   C683    1.444   .     S
C641   C643    1.392   .     A
C642   C644    1.391   .     A
C642   C652    1.406   .     A
C642   C685    1.445   .     S
C643   H655    1.086   .     S
C643   C645    1.399   .     A
C644   C646    1.402   .     A
C644   H656    1.085   .     S
C645   C647    1.415   .     A
C646   C648    1.417   .     A
C647   C687    1.488   .     S
C647   C649    1.397   .     A
C648   C650    1.397   .     A
C648   C691    1.485   .     S
C649   C651    1.400   .     A
C649   H657    1.084   .     S
C650   H658    1.085   .     S
C650   C652    1.400   .     A
C651   C886    1.468   1_545 S
C652   C885    1.468   .     S
Cu653  N666    2.000   .     S
Cu653  O671    1.972   .     S
Cu653  O667    1.953   .     S
Cu653  O674    1.976   .     S
Cu653  Cu654   2.663   .     S
Cu653  O670    1.951   .     S
Cu654  O669    1.951   .     S
Cu654  O672    1.972   .     S
Cu654  N665    2.000   .     S
Cu654  O668    1.953   .     S
Cu654  O673    1.976   .     S
C675   O676    1.223   .     D
C675   O677    1.399   .     S
C675   C483    1.493   1_655 S
O677   H678    1.014   .     S
C679   O680    1.224   .     D
C679   O681    1.399   .     S
O681   H682    1.014   .     S
C683   N684    1.157   .     T
C685   N686    1.157   .     T
C687   O689    1.399   .     S
C687   O688    1.221   .     D
O689   H534    1.014   1_655 S
C691   O692    1.223   .     D
C691   O693    1.398   .     S
O693   H694    1.014   .     S
C695   O697    1.399   .     S
O696   C227    1.222   1_556 S
O697   H698    1.014   .     S
C699   O701    1.399   .     S
C699   O232    1.223   1_556 S
O701   H702    1.014   .     S
C703   C723    1.451   .     S
C703   O745    1.286   .     A
C703   O747    1.286   .     A
C704   O748    1.290   .     A
C704   O746    1.288   .     A
C704   C724    1.462   .     S
C705   C773    1.491   .     S
C705   C707    1.417   .     A
C705   C713    1.424   .     A
C706   C777    1.490   .     S
C706   C714    1.424   .     A
C706   C708    1.417   .     A
C707   N743    1.364   .     A
C707   H737    1.082   .     S
C708   H738    1.082   .     S
C708   N744    1.364   .     A
C709   H739    1.082   .     S
C709   C711    1.405   .     A
C709   N743    1.362   .     A
C710   H740    1.080   .     S
C710   N744    1.362   .     A
C710   C712    1.405   .     A
C711   H741    1.083   .     S
C711   C713    1.406   .     A
C712   H742    1.083   .     S
C712   C714    1.406   .     A
C714   C245    1.507   1_556 S
C715   O751    1.290   .     A
C715   C717    1.451   .     S
C715   O749    1.281   .     A
C716   O750    1.282   .     A
C716   O752    1.288   .     A
C716   C718    1.449   .     S
C717   C874    1.366   1_455 S
C717   C909    1.493   1_455 S
C718   C795    1.366   .     S
C718   C835    1.494   .     S
C719   C729    1.407   .     A
C719   C761    1.444   .     S
C719   C721    1.392   .     A
C720   C722    1.391   .     A
C720   C730    1.406   .     A
C720   C763    1.445   .     S
C721   H733    1.086   .     S
C721   C723    1.399   .     A
C722   C724    1.402   .     A
C722   H734    1.085   .     S
C723   C725    1.415   .     A
C724   C726    1.417   .     A
C725   C765    1.488   .     S
C725   C727    1.397   .     A
C726   C728    1.397   .     A
C726   C769    1.485   .     S
C727   C729    1.400   .     A
C727   H735    1.084   .     S
C728   H736    1.085   .     S
C728   C730    1.400   .     A
C730   C495    1.468   1_565 S
Cu731  N744    2.000   .     S
Cu731  O749    1.972   .     S
Cu731  O745    1.953   .     S
Cu731  O752    1.976   .     S
Cu731  Cu732   2.663   .     S
Cu731  O748    1.951   .     S
Cu732  O747    1.951   .     S
Cu732  O750    1.972   .     S
Cu732  N743    2.000   .     S
Cu732  O746    1.953   .     S
Cu732  O751    1.976   .     S
C753   O754    1.223   .     D
C753   O755    1.399   .     S
C753   C795    1.493   .     S
O755   H756    1.014   .     S
C757   O758    1.224   .     D
C757   O759    1.399   .     S
C757   C874    1.494   1_455 S
O759   H760    1.014   .     S
C761   N762    1.157   .     T
C763   N764    1.157   .     T
C765   O767    1.399   .     S
C765   O766    1.221   .     D
O767   H846    1.014   .     S
H768   O923    1.014   1_455 S
C769   O770    1.223   .     D
C769   O771    1.398   .     S
O771   H772    1.014   .     S
C773   O775    1.399   .     S
O774   C305    1.222   1_556 S
O775   H776    1.014   .     S
C777   O779    1.399   .     S
C777   O310    1.223   1_556 S
O779   H780    1.014   .     S
C781   C801    1.451   .     S
C781   O823    1.286   .     A
C781   O825    1.286   .     A
C782   O826    1.290   .     A
C782   O824    1.288   .     A
C782   C802    1.462   .     S
C783   C851    1.491   .     S
C783   C785    1.417   .     A
C783   C791    1.424   .     A
C784   C855    1.490   .     S
C784   C792    1.424   .     A
C784   C786    1.417   .     A
C785   N821    1.364   .     A
C785   H815    1.082   .     S
C786   H816    1.082   .     S
C786   N822    1.364   .     A
C787   H817    1.082   .     S
C787   C789    1.405   .     A
C787   N821    1.362   .     A
C788   H818    1.080   .     S
C788   N822    1.362   .     A
C788   C790    1.405   .     A
C789   H819    1.083   .     S
C789   C791    1.406   .     A
C790   H820    1.083   .     S
C790   C792    1.406   .     A
C792   C323    1.507   1_556 S
C793   O829    1.290   .     A
C793   C795    1.451   .     S
C793   O827    1.281   .     A
C794   O828    1.282   .     A
C794   O830    1.288   .     A
C794   C796    1.449   .     S
C796   C873    1.366   .     S
C796   C913    1.494   .     S
C797   C807    1.407   .     A
C797   C839    1.444   .     S
C797   C799    1.392   .     A
C798   C800    1.391   .     A
C798   C808    1.406   .     A
C798   C841    1.445   .     S
C799   H811    1.086   .     S
C799   C801    1.399   .     A
C800   C802    1.402   .     A
C800   H812    1.085   .     S
C801   C803    1.415   .     A
C802   C804    1.417   .     A
C803   C843    1.488   .     S
C803   C805    1.397   .     A
C804   C806    1.397   .     A
C804   C847    1.485   .     S
C805   C807    1.400   .     A
C805   H813    1.084   .     S
C806   H814    1.085   .     S
C806   C808    1.400   .     A
C808   C573    1.468   1_565 S
Cu809  N822    2.000   .     S
Cu809  O827    1.972   .     S
Cu809  O823    1.953   .     S
Cu809  O830    1.976   .     S
Cu809  Cu810   2.663   .     S
Cu809  O826    1.951   .     S
Cu810  O825    1.951   .     S
Cu810  O828    1.972   .     S
Cu810  N821    2.000   .     S
Cu810  O824    1.953   .     S
Cu810  O829    1.976   .     S
C831   O832    1.223   .     D
C831   O833    1.399   .     S
C831   C873    1.493   .     S
O833   H834    1.014   .     S
C835   O836    1.224   .     D
C835   O837    1.399   .     S
O837   H838    1.014   .     S
C839   N840    1.157   .     T
C841   N842    1.157   .     T
C843   O845    1.399   .     S
C843   O844    1.221   .     D
O845   H924    1.014   .     S
C847   O848    1.223   .     D
C847   O849    1.398   .     S
O849   H850    1.014   .     S
C851   O853    1.399   .     S
O852   C383    1.222   1_556 S
O853   H854    1.014   .     S
C855   O857    1.399   .     S
C855   O388    1.223   1_556 S
O857   H858    1.014   .     S
C859   C879    1.451   .     S
C859   O901    1.286   .     A
C859   O903    1.286   .     A
C860   O904    1.290   .     A
C860   O902    1.288   .     A
C860   C880    1.462   .     S
C861   C929    1.491   .     S
C861   C863    1.417   .     A
C861   C869    1.424   .     A
C862   C933    1.490   .     S
C862   C870    1.424   .     A
C862   C864    1.417   .     A
C863   N899    1.364   .     A
C863   H893    1.082   .     S
C864   H894    1.082   .     S
C864   N900    1.364   .     A
C865   H895    1.082   .     S
C865   C867    1.405   .     A
C865   N899    1.362   .     A
C866   H896    1.080   .     S
C866   N900    1.362   .     A
C866   C868    1.405   .     A
C867   H897    1.083   .     S
C867   C869    1.406   .     A
C868   H898    1.083   .     S
C868   C870    1.406   .     A
C870   C401    1.507   1_556 S
C871   O907    1.290   .     A
C871   C873    1.451   .     S
C871   O905    1.281   .     A
C872   O906    1.282   .     A
C872   O908    1.288   .     A
C872   C874    1.449   .     S
C874   C717    1.366   1_655 S
C874   C757    1.494   1_655 S
C875   C885    1.407   .     A
C875   C917    1.444   .     S
C875   C877    1.392   .     A
C876   C878    1.391   .     A
C876   C886    1.406   .     A
C876   C919    1.445   .     S
C877   H889    1.086   .     S
C877   C879    1.399   .     A
C878   C880    1.402   .     A
C878   H890    1.085   .     S
C879   C881    1.415   .     A
C880   C882    1.417   .     A
C881   C921    1.488   .     S
C881   C883    1.397   .     A
C882   C884    1.397   .     A
C882   C925    1.485   .     S
C883   C885    1.400   .     A
C883   H891    1.084   .     S
C884   H892    1.085   .     S
C884   C886    1.400   .     A
C886   C651    1.468   1_565 S
Cu887  N900    2.000   .     S
Cu887  O905    1.972   .     S
Cu887  O901    1.953   .     S
Cu887  O908    1.976   .     S
Cu887  Cu888   2.663   .     S
Cu887  O904    1.951   .     S
Cu888  O903    1.951   .     S
Cu888  O906    1.972   .     S
Cu888  N899    2.000   .     S
Cu888  O902    1.953   .     S
Cu888  O907    1.976   .     S
C909   O910    1.223   .     D
C909   O911    1.399   .     S
C909   C717    1.493   1_655 S
O911   H912    1.014   .     S
C913   O914    1.224   .     D
C913   O915    1.399   .     S
O915   H916    1.014   .     S
C917   N918    1.157   .     T
C919   N920    1.157   .     T
C921   O923    1.399   .     S
C921   O922    1.221   .     D
O923   H768    1.014   1_655 S
C925   O926    1.223   .     D
C925   O927    1.398   .     S
O927   H928    1.014   .     S
C929   O931    1.399   .     S
O930   C461    1.222   1_556 S
O931   H932    1.014   .     S
C933   O935    1.399   .     S
C933   O466    1.223   1_556 S
O935   H936    1.014   .     S
