data_str_m2_o1_o1_pcu_sym.3
_audit_creation_date              2020-01-03
_audit_creation_method            'Materials Studio'
_symmetry_space_group_name_H-M    'P1'
_symmetry_Int_Tables_number       1
_symmetry_cell_setting            triclinic
loop_
_symmetry_equiv_pos_as_xyz
  x,y,z
_cell_length_a                    31.8572
_cell_length_b                    29.4488
_cell_length_c                    28.8391
_cell_angle_alpha                 92.9473
_cell_angle_beta                  89.0918
_cell_angle_gamma                 89.9144
loop_
_atom_site_label
_atom_site_type_symbol
_atom_site_fract_x
_atom_site_fract_y
_atom_site_fract_z
_atom_site_U_iso_or_equiv
_atom_site_adp_type
_atom_site_occupancy
C1     C     0.05925   0.19050   0.16606   0.00000  Uiso   1.00
C2     C     0.00546   0.28959   0.31091   0.00000  Uiso   1.00
C3     C     0.00115   0.28997   0.02723   0.00000  Uiso   1.00
C4     C     0.49771   0.21016   0.30637   0.00000  Uiso   1.00
C5     C     0.25101   0.46026   0.02255   0.00000  Uiso   1.00
C6     C     0.25558   0.03959   0.31094   0.00000  Uiso   1.00
C7     C     0.25146   0.03999   0.02728   0.00000  Uiso   1.00
C8     C     0.24670   0.46023   0.30638   0.00000  Uiso   1.00
C9     C     0.40952   0.11751   0.13396   0.00000  Uiso   1.00
C10    C     0.08656   0.38645   0.18576   0.00000  Uiso   1.00
C11    C     0.13129   0.33008   0.14359   0.00000  Uiso   1.00
C12    C     0.44115   0.30992   0.16761   0.00000  Uiso   1.00
C13    C     0.37067   0.16625   0.19179   0.00000  Uiso   1.00
C14    C     0.12913   0.16681   0.19102   0.00000  Uiso   1.00
C15    C     0.36987   0.33069   0.14578   0.00000  Uiso   1.00
C16    C     0.41022   0.38489   0.19361   0.00000  Uiso   1.00
C17    C     0.08521   0.11173   0.14865   0.00000  Uiso   1.00
C18    C     0.16401   0.36253   0.14120   0.00000  Uiso   1.00
C19    C     0.33718   0.13564   0.18928   0.00000  Uiso   1.00
C20    C     0.37790   0.08416   0.13652   0.00000  Uiso   1.00
C21    C     0.12007   0.41688   0.18888   0.00000  Uiso   1.00
C22    C     0.38001   0.41841   0.18730   0.00000  Uiso   1.00
C23    C     0.44120   0.18987   0.16594   0.00000  Uiso   1.00
C24    C     0.11916   0.08121   0.14408   0.00000  Uiso   1.00
C25    C     0.15880   0.13258   0.19627   0.00000  Uiso   1.00
C26    C     0.33568   0.36072   0.14937   0.00000  Uiso   1.00
C27    C     0.09307   0.34251   0.16609   0.00000  Uiso   1.00
C28    C     0.40690   0.15699   0.16426   0.00000  Uiso   1.00
C29    C     0.40687   0.34249   0.16907   0.00000  Uiso   1.00
C30    C     0.09240   0.15655   0.16622   0.00000  Uiso   1.00
C31    C     0.34268   0.09293   0.16602   0.00000  Uiso   1.00
C32    C     0.15806   0.40576   0.16511   0.00000  Uiso   1.00
C33    C     0.15588   0.09148   0.16927   0.00000  Uiso   1.00
C34    C     0.05903   0.30967   0.16686   0.00000  Uiso   1.00
C35    C     0.34221   0.40614   0.16556   0.00000  Uiso   1.00
C36    C     0.06021   0.15896   0.03299   0.00000  Uiso   1.00
C37    C     0.06465   0.33980   0.30030   0.00000  Uiso   1.00
C38    C     0.47009   0.36382   0.05153   0.00000  Uiso   1.00
C39    C     0.45987   0.13927   0.28768   0.00000  Uiso   1.00
C40    C     0.30276   0.40346   0.03683   0.00000  Uiso   1.00
C41    C     0.31618   0.08672   0.29905   0.00000  Uiso   1.00
C42    C     0.22146   0.11432   0.05263   0.00000  Uiso   1.00
C43    C     0.20772   0.38970   0.28698   0.00000  Uiso   1.00
C44    C     0.46151   0.07313   0.08281   0.00000  Uiso   1.00
C45    C     0.30839   0.43944   0.16592   0.00000  Uiso   1.00
C46    C     0.02554   0.42639   0.16244   0.00000  Uiso   1.00
C47    C     0.12232   0.27056   0.08115   0.00000  Uiso   1.00
C48    C     0.36818   0.20878   0.26697   0.00000  Uiso   1.00
C49    C     0.12165   0.22301   0.25653   0.00000  Uiso   1.00
C50    C     0.36918   0.28402   0.07353   0.00000  Uiso   1.00
C51    C     0.42551   0.38549   0.27467   0.00000  Uiso   1.00
C52    C     0.01860   0.09345   0.18426   0.00000  Uiso   1.00
C53    C     0.20719   0.32273   0.07715   0.00000  Uiso   1.00
C54    C     0.27458   0.17516   0.17023   0.00000  Uiso   1.00
C55    C     0.36843   0.04189   0.06179   0.00000  Uiso   1.00
C56    C     0.19059   0.05932   0.16758   0.00000  Uiso   1.00
C57    C     0.11497   0.45930   0.26391   0.00000  Uiso   1.00
C58    C     0.37887   0.48129   0.24678   0.00000  Uiso   1.00
C59    C     0.11325   0.03967   0.06932   0.00000  Uiso   1.00
C60    C     0.17334   0.12849   0.27747   0.00000  Uiso   1.00
C61    C     0.27636   0.32500   0.18388   0.00000  Uiso   1.00
C62    C     0.19144   0.43969   0.16614   0.00000  Uiso   1.00
C63    C     0.30889   0.05982   0.16687   0.00000  Uiso   1.00
C64    C     0.00255   0.21025   0.02238   0.00000  Uiso   1.00
Cu65   Cu    0.00000   0.25000   0.21355   0.00000  Uiso   1.00
Cu66   Cu    0.00000   0.25000   0.11978   0.00000  Uiso   1.00
Cu67   Cu    0.25000  -0.00000   0.21355   0.00000  Uiso   1.00
Cu68   Cu    0.25000  -0.00000   0.11978   0.00000  Uiso   1.00
H69    H     0.49734   0.14294   0.03567   0.00000  Uiso   1.00
H70    H     0.48162   0.39442   0.03442   0.00000  Uiso   1.00
H71    H     0.45892   0.37470   0.08699   0.00000  Uiso   1.00
H72    H     0.44318   0.34899   0.03208   0.00000  Uiso   1.00
H73    H     0.02387   0.15156   0.27493   0.00000  Uiso   1.00
H74    H     0.47047   0.10680   0.30167   0.00000  Uiso   1.00
H75    H     0.44395   0.13103   0.25441   0.00000  Uiso   1.00
H76    H     0.43672   0.15572   0.31247   0.00000  Uiso   1.00
H77    H     0.23795   0.39512   0.03720   0.00000  Uiso   1.00
H78    H     0.30868   0.39187   0.00022   0.00000  Uiso   1.00
H79    H     0.30844   0.37415   0.05830   0.00000  Uiso   1.00
H80    H     0.06290   0.13156   0.00516   0.00000  Uiso   1.00
H81    H     0.32559   0.43068   0.04655   0.00000  Uiso   1.00
H82    H     0.25421   0.10751   0.29569   0.00000  Uiso   1.00
H83    H     0.32005   0.11533   0.32521   0.00000  Uiso   1.00
H84    H     0.33257   0.09592   0.26705   0.00000  Uiso   1.00
H85    H     0.33207   0.05591   0.31086   0.00000  Uiso   1.00
H86    H     0.28462   0.09498   0.05705   0.00000  Uiso   1.00
H87    H     0.23291   0.14470   0.03506   0.00000  Uiso   1.00
H88    H     0.21128   0.12542   0.08838   0.00000  Uiso   1.00
H89    H     0.19390   0.09992   0.03417   0.00000  Uiso   1.00
H90    H     0.27155   0.40237   0.27152   0.00000  Uiso   1.00
H91    H     0.07465   0.14645   0.06447   0.00000  Uiso   1.00
H92    H     0.21809   0.35759   0.30187   0.00000  Uiso   1.00
H93    H     0.19271   0.38070   0.25335   0.00000  Uiso   1.00
H94    H     0.18398   0.40670   0.31064   0.00000  Uiso   1.00
H95    H     0.43441   0.13642   0.07138   0.00000  Uiso   1.00
H96    H     0.46058   0.04786   0.11003   0.00000  Uiso   1.00
H97    H     0.44787   0.05910   0.05014   0.00000  Uiso   1.00
H98    H     0.49448   0.07988   0.07356   0.00000  Uiso   1.00
H99    H     0.04289   0.41824   0.23046   0.00000  Uiso   1.00
H100   H     0.49351   0.43726   0.17373   0.00000  Uiso   1.00
H101   H     0.02318   0.40457   0.13003   0.00000  Uiso   1.00
H102   H     0.07854   0.18890   0.02227   0.00000  Uiso   1.00
H103   H     0.04389   0.45741   0.15525   0.00000  Uiso   1.00
H104   H     0.16349   0.26754   0.13823   0.00000  Uiso   1.00
H105   H     0.10782   0.29959   0.06409   0.00000  Uiso   1.00
H106   H     0.14822   0.25637   0.05872   0.00000  Uiso   1.00
H107   H     0.09901   0.24317   0.08359   0.00000  Uiso   1.00
H108   H     0.37851   0.23704   0.20271   0.00000  Uiso   1.00
H109   H     0.39878   0.22325   0.27819   0.00000  Uiso   1.00
H110   H     0.36520   0.17392   0.27964   0.00000  Uiso   1.00
H111   H     0.34264   0.23014   0.28314   0.00000  Uiso   1.00
H112   H     0.16738   0.22270   0.20446   0.00000  Uiso   1.00
H113   H     0.00198   0.35674   0.29385   0.00000  Uiso   1.00
H114   H     0.14818   0.22488   0.28108   0.00000  Uiso   1.00
H115   H     0.09860   0.19772   0.26855   0.00000  Uiso   1.00
H116   H     0.10617   0.25675   0.25736   0.00000  Uiso   1.00
H117   H     0.34186   0.26683   0.13659   0.00000  Uiso   1.00
H118   H     0.39223   0.25718   0.06235   0.00000  Uiso   1.00
H119   H     0.37979   0.31676   0.05987   0.00000  Uiso   1.00
H120   H     0.33833   0.27518   0.05811   0.00000  Uiso   1.00
H121   H     0.46960   0.37788   0.22123   0.00000  Uiso   1.00
H122   H     0.39197   0.39518   0.27951   0.00000  Uiso   1.00
H123   H     0.44385   0.40662   0.29989   0.00000  Uiso   1.00
H124   H     0.08054   0.31233   0.31850   0.00000  Uiso   1.00
H125   H     0.42841   0.34897   0.28197   0.00000  Uiso   1.00
H126   H     0.04213   0.06471   0.12320   0.00000  Uiso   1.00
H127   H     0.03756   0.08057   0.21289   0.00000  Uiso   1.00
H128   H     0.49150   0.07028   0.17895   0.00000  Uiso   1.00
H129   H     0.00575   0.12741   0.19432   0.00000  Uiso   1.00
H130   H     0.22648   0.37623   0.12107   0.00000  Uiso   1.00
H131   H     0.20815   0.28653   0.08519   0.00000  Uiso   1.00
H132   H     0.18216   0.33099   0.05257   0.00000  Uiso   1.00
H133   H     0.23804   0.32728   0.05983   0.00000  Uiso   1.00
H134   H     0.29548   0.16676   0.23687   0.00000  Uiso   1.00
H135   H     0.06634   0.37184   0.32228   0.00000  Uiso   1.00
H136   H     0.24370   0.18722   0.18417   0.00000  Uiso   1.00
H137   H     0.26952   0.15304   0.13849   0.00000  Uiso   1.00
H138   H     0.29292   0.20555   0.16100   0.00000  Uiso   1.00
H139   H     0.37221   0.01342   0.12639   0.00000  Uiso   1.00
H140   H     0.37101   0.07632   0.04794   0.00000  Uiso   1.00
H141   H     0.38847   0.01786   0.04038   0.00000  Uiso   1.00
H142   H     0.33593   0.02934   0.05807   0.00000  Uiso   1.00
H143   H     0.12908   0.48747   0.20090   0.00000  Uiso   1.00
H144   H     0.14486   0.47422   0.27685   0.00000  Uiso   1.00
H145   H     0.11203   0.42432   0.27624   0.00000  Uiso   1.00
H146   H     0.08244   0.34479   0.26779   0.00000  Uiso   1.00
H147   H     0.08850   0.48009   0.27884   0.00000  Uiso   1.00
H148   H     0.41827   0.47530   0.18878   0.00000  Uiso   1.00
H149   H     0.40712   0.47997   0.26874   0.00000  Uiso   1.00
H150   H     0.35335   0.46129   0.26256   0.00000  Uiso   1.00
H151   H     0.36868   0.01722   0.24623   0.00000  Uiso   1.00
H152   H     0.13169   0.01164   0.12991   0.00000  Uiso   1.00
H153   H     0.14498   0.04757   0.05574   0.00000  Uiso   1.00
H154   H     0.09046   0.06535   0.05830   0.00000  Uiso   1.00
H155   H     0.10372   0.00593   0.05407   0.00000  Uiso   1.00
H156   H     0.21833   0.12559   0.22433   0.00000  Uiso   1.00
H157   H     0.03347   0.34544   0.05681   0.00000  Uiso   1.00
H158   H     0.13874   0.13257   0.28090   0.00000  Uiso   1.00
H159   H     0.18799   0.15206   0.30360   0.00000  Uiso   1.00
H160   H     0.18090   0.09277   0.28469   0.00000  Uiso   1.00
H161   H     0.29223   0.32102   0.11419   0.00000  Uiso   1.00
H162   H     0.29830   0.30080   0.19935   0.00000  Uiso   1.00
H163   H     0.24709   0.30622   0.17537   0.00000  Uiso   1.00
H164   H     0.26858   0.35290   0.20965   0.00000  Uiso   1.00
N165   N     0.00000   0.25000   0.28402   0.00000  Uiso   1.00
N166   N     0.27200   0.07857   0.29011   0.00000  Uiso   1.00
N167   N     0.25496   0.08131   0.05476   0.00000  Uiso   1.00
N168   N     0.24361   0.41874   0.27925   0.00000  Uiso   1.00
N169   N     0.44090   0.11543   0.09788   0.00000  Uiso   1.00
N170   N     0.04523   0.40144   0.19829   0.00000  Uiso   1.00
N171   N     0.13712   0.28386   0.12729   0.00000  Uiso   1.00
N172   N     0.36517   0.20900   0.21693   0.00000  Uiso   1.00
N173   N     0.13700   0.21179   0.20974   0.00000  Uiso   1.00
N174   N     0.36567   0.28646   0.12375   0.00000  Uiso   1.00
N175   N     0.44093   0.39299   0.22815   0.00000  Uiso   1.00
N176   N     0.00000   0.25000   0.04931   0.00000  Uiso   1.00
N177   N     0.04349   0.09537   0.14186   0.00000  Uiso   1.00
N178   N     0.20396   0.35139   0.11945   0.00000  Uiso   1.00
N179   N     0.29634   0.15010   0.20457   0.00000  Uiso   1.00
N180   N     0.38137   0.04200   0.10977   0.00000  Uiso   1.00
N181   N     0.11412   0.45977   0.21372   0.00000  Uiso   1.00
N182   N     0.38901   0.46489   0.19974   0.00000  Uiso   1.00
N183   N     0.11389   0.03822   0.11937   0.00000  Uiso   1.00
N184   N     0.18896   0.13878   0.23176   0.00000  Uiso   1.00
N185   N     0.29451   0.34356   0.14251   0.00000  Uiso   1.00
N186   N     0.25000  -0.00000   0.28402   0.00000  Uiso   1.00
N187   N     0.25000  -0.00000   0.04931   0.00000  Uiso   1.00
N188   N     0.01642   0.17023   0.04268   0.00000  Uiso   1.00
N189   N     0.02120   0.32882   0.28991   0.00000  Uiso   1.00
N190   N     0.00394   0.33136   0.05463   0.00000  Uiso   1.00
N191   N     0.49565   0.16842   0.27949   0.00000  Uiso   1.00
N192   N     0.25998   0.41954   0.04419   0.00000  Uiso   1.00
O193   O     0.04508   0.20491   0.20625   0.00000  Uiso   1.00
O194   O     0.20491   0.04509   0.12709   0.00000  Uiso   1.00
O195   O     0.20491   0.04509   0.20625   0.00000  Uiso   1.00
O196   O     0.29508   0.45491   0.12709   0.00000  Uiso   1.00
O197   O     0.20491   0.45491   0.12709   0.00000  Uiso   1.00
O198   O     0.29508   0.04509   0.20625   0.00000  Uiso   1.00
O199   O     0.29508   0.04509   0.12709   0.00000  Uiso   1.00
O200   O     0.20491   0.45491   0.20625   0.00000  Uiso   1.00
O201   O     0.45491   0.29509   0.12709   0.00000  Uiso   1.00
O202   O     0.45491   0.29509   0.20625   0.00000  Uiso   1.00
O203   O     0.04508   0.20491   0.12709   0.00000  Uiso   1.00
O204   O     0.45491   0.20491   0.12709   0.00000  Uiso   1.00
O205   O     0.04508   0.29509   0.20625   0.00000  Uiso   1.00
O206   O     0.04508   0.29509   0.12709   0.00000  Uiso   1.00
O207   O     0.45491   0.20491   0.20625   0.00000  Uiso   1.00
O208   O     0.29508   0.45491   0.20625   0.00000  Uiso   1.00
C209   C     0.55925   0.19050   0.16606   0.00000  Uiso   1.00
C210   C     0.50546   0.28959   0.31091   0.00000  Uiso   1.00
C211   C     0.50115   0.28997   0.02723   0.00000  Uiso   1.00
C212   C     0.99771   0.21016   0.30637   0.00000  Uiso   1.00
C213   C     0.75101   0.46026   0.02255   0.00000  Uiso   1.00
C214   C     0.75558   0.03959   0.31094   0.00000  Uiso   1.00
C215   C     0.75146   0.03999   0.02728   0.00000  Uiso   1.00
C216   C     0.74670   0.46023   0.30638   0.00000  Uiso   1.00
C217   C     0.90952   0.11751   0.13396   0.00000  Uiso   1.00
C218   C     0.58656   0.38645   0.18576   0.00000  Uiso   1.00
C219   C     0.63129   0.33008   0.14359   0.00000  Uiso   1.00
C220   C     0.94115   0.30992   0.16761   0.00000  Uiso   1.00
C221   C     0.87067   0.16625   0.19179   0.00000  Uiso   1.00
C222   C     0.62913   0.16681   0.19102   0.00000  Uiso   1.00
C223   C     0.86987   0.33069   0.14578   0.00000  Uiso   1.00
C224   C     0.91022   0.38489   0.19361   0.00000  Uiso   1.00
C225   C     0.58521   0.11173   0.14865   0.00000  Uiso   1.00
C226   C     0.66401   0.36253   0.14120   0.00000  Uiso   1.00
C227   C     0.83718   0.13564   0.18928   0.00000  Uiso   1.00
C228   C     0.87790   0.08416   0.13652   0.00000  Uiso   1.00
C229   C     0.62007   0.41688   0.18888   0.00000  Uiso   1.00
C230   C     0.88001   0.41841   0.18730   0.00000  Uiso   1.00
C231   C     0.94120   0.18987   0.16594   0.00000  Uiso   1.00
C232   C     0.61916   0.08121   0.14408   0.00000  Uiso   1.00
C233   C     0.65880   0.13258   0.19627   0.00000  Uiso   1.00
C234   C     0.83568   0.36072   0.14937   0.00000  Uiso   1.00
C235   C     0.59307   0.34251   0.16609   0.00000  Uiso   1.00
C236   C     0.90690   0.15699   0.16426   0.00000  Uiso   1.00
C237   C     0.90687   0.34249   0.16907   0.00000  Uiso   1.00
C238   C     0.59240   0.15655   0.16622   0.00000  Uiso   1.00
C239   C     0.84268   0.09293   0.16602   0.00000  Uiso   1.00
C240   C     0.65806   0.40576   0.16511   0.00000  Uiso   1.00
C241   C     0.65588   0.09148   0.16927   0.00000  Uiso   1.00
C242   C     0.55903   0.30967   0.16686   0.00000  Uiso   1.00
C243   C     0.84221   0.40614   0.16556   0.00000  Uiso   1.00
C244   C     0.56021   0.15896   0.03299   0.00000  Uiso   1.00
C245   C     0.56465   0.33980   0.30030   0.00000  Uiso   1.00
C246   C     0.97009   0.36382   0.05153   0.00000  Uiso   1.00
C247   C     0.95987   0.13927   0.28768   0.00000  Uiso   1.00
C248   C     0.80276   0.40346   0.03683   0.00000  Uiso   1.00
C249   C     0.81618   0.08672   0.29905   0.00000  Uiso   1.00
C250   C     0.72146   0.11432   0.05263   0.00000  Uiso   1.00
C251   C     0.70772   0.38970   0.28698   0.00000  Uiso   1.00
C252   C     0.96151   0.07313   0.08281   0.00000  Uiso   1.00
C253   C     0.80839   0.43944   0.16592   0.00000  Uiso   1.00
C254   C     0.52554   0.42639   0.16244   0.00000  Uiso   1.00
C255   C     0.62232   0.27056   0.08115   0.00000  Uiso   1.00
C256   C     0.86818   0.20878   0.26697   0.00000  Uiso   1.00
C257   C     0.62165   0.22301   0.25653   0.00000  Uiso   1.00
C258   C     0.86918   0.28402   0.07353   0.00000  Uiso   1.00
C259   C     0.92551   0.38549   0.27467   0.00000  Uiso   1.00
C260   C     0.51860   0.09345   0.18426   0.00000  Uiso   1.00
C261   C     0.70719   0.32273   0.07715   0.00000  Uiso   1.00
C262   C     0.77458   0.17516   0.17023   0.00000  Uiso   1.00
C263   C     0.86843   0.04189   0.06179   0.00000  Uiso   1.00
C264   C     0.69059   0.05932   0.16758   0.00000  Uiso   1.00
C265   C     0.61497   0.45930   0.26391   0.00000  Uiso   1.00
C266   C     0.87887   0.48129   0.24678   0.00000  Uiso   1.00
C267   C     0.61325   0.03967   0.06932   0.00000  Uiso   1.00
C268   C     0.67334   0.12849   0.27747   0.00000  Uiso   1.00
C269   C     0.77636   0.32500   0.18388   0.00000  Uiso   1.00
C270   C     0.69144   0.43969   0.16614   0.00000  Uiso   1.00
C271   C     0.80889   0.05982   0.16687   0.00000  Uiso   1.00
C272   C     0.50255   0.21025   0.02238   0.00000  Uiso   1.00
Cu273  Cu    0.50000   0.25000   0.21355   0.00000  Uiso   1.00
Cu274  Cu    0.50000   0.25000   0.11978   0.00000  Uiso   1.00
Cu275  Cu    0.75000  -0.00000   0.21355   0.00000  Uiso   1.00
Cu276  Cu    0.75000  -0.00000   0.11978   0.00000  Uiso   1.00
H277   H     0.99734   0.14294   0.03567   0.00000  Uiso   1.00
H278   H     0.98162   0.39442   0.03442   0.00000  Uiso   1.00
H279   H     0.95892   0.37470   0.08699   0.00000  Uiso   1.00
H280   H     0.94318   0.34899   0.03208   0.00000  Uiso   1.00
H281   H     0.52387   0.15156   0.27493   0.00000  Uiso   1.00
H282   H     0.97047   0.10680   0.30167   0.00000  Uiso   1.00
H283   H     0.94395   0.13103   0.25441   0.00000  Uiso   1.00
H284   H     0.93672   0.15572   0.31247   0.00000  Uiso   1.00
H285   H     0.73795   0.39512   0.03720   0.00000  Uiso   1.00
H286   H     0.80868   0.39187   0.00022   0.00000  Uiso   1.00
H287   H     0.80844   0.37415   0.05830   0.00000  Uiso   1.00
H288   H     0.56290   0.13156   0.00516   0.00000  Uiso   1.00
H289   H     0.82559   0.43068   0.04655   0.00000  Uiso   1.00
H290   H     0.75421   0.10751   0.29569   0.00000  Uiso   1.00
H291   H     0.82005   0.11533   0.32521   0.00000  Uiso   1.00
H292   H     0.83257   0.09592   0.26705   0.00000  Uiso   1.00
H293   H     0.83207   0.05591   0.31086   0.00000  Uiso   1.00
H294   H     0.78462   0.09498   0.05705   0.00000  Uiso   1.00
H295   H     0.73291   0.14470   0.03506   0.00000  Uiso   1.00
H296   H     0.71128   0.12542   0.08838   0.00000  Uiso   1.00
H297   H     0.69390   0.09992   0.03417   0.00000  Uiso   1.00
H298   H     0.77155   0.40237   0.27152   0.00000  Uiso   1.00
H299   H     0.57465   0.14645   0.06447   0.00000  Uiso   1.00
H300   H     0.71809   0.35759   0.30187   0.00000  Uiso   1.00
H301   H     0.69271   0.38070   0.25335   0.00000  Uiso   1.00
H302   H     0.68398   0.40670   0.31064   0.00000  Uiso   1.00
H303   H     0.93441   0.13642   0.07138   0.00000  Uiso   1.00
H304   H     0.96058   0.04786   0.11003   0.00000  Uiso   1.00
H305   H     0.94787   0.05910   0.05014   0.00000  Uiso   1.00
H306   H     0.99448   0.07988   0.07356   0.00000  Uiso   1.00
H307   H     0.54289   0.41824   0.23046   0.00000  Uiso   1.00
H308   H     0.99351   0.43726   0.17373   0.00000  Uiso   1.00
H309   H     0.52318   0.40457   0.13003   0.00000  Uiso   1.00
H310   H     0.57854   0.18890   0.02227   0.00000  Uiso   1.00
H311   H     0.54389   0.45741   0.15525   0.00000  Uiso   1.00
H312   H     0.66349   0.26754   0.13823   0.00000  Uiso   1.00
H313   H     0.60782   0.29959   0.06409   0.00000  Uiso   1.00
H314   H     0.64822   0.25637   0.05872   0.00000  Uiso   1.00
H315   H     0.59901   0.24317   0.08359   0.00000  Uiso   1.00
H316   H     0.87851   0.23704   0.20271   0.00000  Uiso   1.00
H317   H     0.89878   0.22325   0.27819   0.00000  Uiso   1.00
H318   H     0.86520   0.17392   0.27964   0.00000  Uiso   1.00
H319   H     0.84264   0.23014   0.28314   0.00000  Uiso   1.00
H320   H     0.66738   0.22270   0.20446   0.00000  Uiso   1.00
H321   H     0.50198   0.35674   0.29385   0.00000  Uiso   1.00
H322   H     0.64818   0.22488   0.28108   0.00000  Uiso   1.00
H323   H     0.59860   0.19772   0.26855   0.00000  Uiso   1.00
H324   H     0.60617   0.25675   0.25736   0.00000  Uiso   1.00
H325   H     0.84186   0.26683   0.13659   0.00000  Uiso   1.00
H326   H     0.89223   0.25718   0.06235   0.00000  Uiso   1.00
H327   H     0.87979   0.31676   0.05987   0.00000  Uiso   1.00
H328   H     0.83833   0.27518   0.05811   0.00000  Uiso   1.00
H329   H     0.96960   0.37788   0.22123   0.00000  Uiso   1.00
H330   H     0.89197   0.39518   0.27951   0.00000  Uiso   1.00
H331   H     0.94385   0.40662   0.29989   0.00000  Uiso   1.00
H332   H     0.58054   0.31233   0.31850   0.00000  Uiso   1.00
H333   H     0.92841   0.34897   0.28197   0.00000  Uiso   1.00
H334   H     0.54213   0.06471   0.12320   0.00000  Uiso   1.00
H335   H     0.53756   0.08057   0.21289   0.00000  Uiso   1.00
H336   H     0.99150   0.07028   0.17895   0.00000  Uiso   1.00
H337   H     0.50575   0.12741   0.19432   0.00000  Uiso   1.00
H338   H     0.72648   0.37623   0.12107   0.00000  Uiso   1.00
H339   H     0.70815   0.28653   0.08519   0.00000  Uiso   1.00
H340   H     0.68216   0.33099   0.05257   0.00000  Uiso   1.00
H341   H     0.73804   0.32728   0.05983   0.00000  Uiso   1.00
H342   H     0.79548   0.16676   0.23687   0.00000  Uiso   1.00
H343   H     0.56634   0.37184   0.32228   0.00000  Uiso   1.00
H344   H     0.74370   0.18722   0.18417   0.00000  Uiso   1.00
H345   H     0.76952   0.15304   0.13849   0.00000  Uiso   1.00
H346   H     0.79292   0.20555   0.16100   0.00000  Uiso   1.00
H347   H     0.87221   0.01342   0.12639   0.00000  Uiso   1.00
H348   H     0.87101   0.07632   0.04794   0.00000  Uiso   1.00
H349   H     0.88847   0.01786   0.04038   0.00000  Uiso   1.00
H350   H     0.83593   0.02934   0.05807   0.00000  Uiso   1.00
H351   H     0.62908   0.48747   0.20090   0.00000  Uiso   1.00
H352   H     0.64486   0.47422   0.27685   0.00000  Uiso   1.00
H353   H     0.61203   0.42432   0.27624   0.00000  Uiso   1.00
H354   H     0.58244   0.34479   0.26779   0.00000  Uiso   1.00
H355   H     0.58850   0.48009   0.27884   0.00000  Uiso   1.00
H356   H     0.91827   0.47530   0.18878   0.00000  Uiso   1.00
H357   H     0.90712   0.47997   0.26874   0.00000  Uiso   1.00
H358   H     0.85335   0.46129   0.26256   0.00000  Uiso   1.00
H359   H     0.86868   0.01722   0.24623   0.00000  Uiso   1.00
H360   H     0.63169   0.01164   0.12991   0.00000  Uiso   1.00
H361   H     0.64498   0.04757   0.05574   0.00000  Uiso   1.00
H362   H     0.59046   0.06535   0.05830   0.00000  Uiso   1.00
H363   H     0.60372   0.00593   0.05407   0.00000  Uiso   1.00
H364   H     0.71833   0.12559   0.22433   0.00000  Uiso   1.00
H365   H     0.53347   0.34544   0.05681   0.00000  Uiso   1.00
H366   H     0.63874   0.13257   0.28090   0.00000  Uiso   1.00
H367   H     0.68799   0.15206   0.30360   0.00000  Uiso   1.00
H368   H     0.68090   0.09277   0.28469   0.00000  Uiso   1.00
H369   H     0.79223   0.32102   0.11419   0.00000  Uiso   1.00
H370   H     0.79830   0.30080   0.19935   0.00000  Uiso   1.00
H371   H     0.74709   0.30622   0.17537   0.00000  Uiso   1.00
H372   H     0.76858   0.35290   0.20965   0.00000  Uiso   1.00
N373   N     0.50000   0.25000   0.28402   0.00000  Uiso   1.00
N374   N     0.77200   0.07857   0.29011   0.00000  Uiso   1.00
N375   N     0.75496   0.08131   0.05476   0.00000  Uiso   1.00
N376   N     0.74361   0.41874   0.27925   0.00000  Uiso   1.00
N377   N     0.94090   0.11543   0.09788   0.00000  Uiso   1.00
N378   N     0.54523   0.40144   0.19829   0.00000  Uiso   1.00
N379   N     0.63712   0.28386   0.12729   0.00000  Uiso   1.00
N380   N     0.86517   0.20900   0.21693   0.00000  Uiso   1.00
N381   N     0.63700   0.21179   0.20974   0.00000  Uiso   1.00
N382   N     0.86567   0.28646   0.12375   0.00000  Uiso   1.00
N383   N     0.94093   0.39299   0.22815   0.00000  Uiso   1.00
N384   N     0.50000   0.25000   0.04931   0.00000  Uiso   1.00
N385   N     0.54349   0.09537   0.14186   0.00000  Uiso   1.00
N386   N     0.70396   0.35139   0.11945   0.00000  Uiso   1.00
N387   N     0.79634   0.15010   0.20457   0.00000  Uiso   1.00
N388   N     0.88137   0.04200   0.10977   0.00000  Uiso   1.00
N389   N     0.61412   0.45977   0.21372   0.00000  Uiso   1.00
N390   N     0.88901   0.46489   0.19974   0.00000  Uiso   1.00
N391   N     0.61389   0.03822   0.11937   0.00000  Uiso   1.00
N392   N     0.68896   0.13878   0.23176   0.00000  Uiso   1.00
N393   N     0.79451   0.34356   0.14251   0.00000  Uiso   1.00
N394   N     0.75000  -0.00000   0.28402   0.00000  Uiso   1.00
N395   N     0.75000  -0.00000   0.04931   0.00000  Uiso   1.00
N396   N     0.51642   0.17023   0.04268   0.00000  Uiso   1.00
N397   N     0.52120   0.32882   0.28991   0.00000  Uiso   1.00
N398   N     0.50394   0.33136   0.05463   0.00000  Uiso   1.00
N399   N     0.99565   0.16842   0.27949   0.00000  Uiso   1.00
N400   N     0.75998   0.41954   0.04419   0.00000  Uiso   1.00
O401   O     0.54508   0.20491   0.20625   0.00000  Uiso   1.00
O402   O     0.70491   0.04509   0.12709   0.00000  Uiso   1.00
O403   O     0.70491   0.04509   0.20625   0.00000  Uiso   1.00
O404   O     0.79508   0.45491   0.12709   0.00000  Uiso   1.00
O405   O     0.70491   0.45491   0.12709   0.00000  Uiso   1.00
O406   O     0.79508   0.04509   0.20625   0.00000  Uiso   1.00
O407   O     0.79508   0.04509   0.12709   0.00000  Uiso   1.00
O408   O     0.70491   0.45491   0.20625   0.00000  Uiso   1.00
O409   O     0.95491   0.29509   0.12709   0.00000  Uiso   1.00
O410   O     0.95491   0.29509   0.20625   0.00000  Uiso   1.00
O411   O     0.54508   0.20491   0.12709   0.00000  Uiso   1.00
O412   O     0.95491   0.20491   0.12709   0.00000  Uiso   1.00
O413   O     0.54508   0.29509   0.20625   0.00000  Uiso   1.00
O414   O     0.54508   0.29509   0.12709   0.00000  Uiso   1.00
O415   O     0.95491   0.20491   0.20625   0.00000  Uiso   1.00
O416   O     0.79508   0.45491   0.20625   0.00000  Uiso   1.00
C417   C     0.05925   0.69050   0.16606   0.00000  Uiso   1.00
C418   C     0.00546   0.78959   0.31091   0.00000  Uiso   1.00
C419   C     0.00115   0.78997   0.02723   0.00000  Uiso   1.00
C420   C     0.49771   0.71016   0.30637   0.00000  Uiso   1.00
C421   C     0.25101   0.96026   0.02255   0.00000  Uiso   1.00
C422   C     0.25558   0.53959   0.31094   0.00000  Uiso   1.00
C423   C     0.25146   0.53999   0.02728   0.00000  Uiso   1.00
C424   C     0.24670   0.96023   0.30638   0.00000  Uiso   1.00
C425   C     0.40952   0.61751   0.13396   0.00000  Uiso   1.00
C426   C     0.08656   0.88645   0.18576   0.00000  Uiso   1.00
C427   C     0.13129   0.83008   0.14359   0.00000  Uiso   1.00
C428   C     0.44115   0.80992   0.16761   0.00000  Uiso   1.00
C429   C     0.37067   0.66625   0.19179   0.00000  Uiso   1.00
C430   C     0.12913   0.66681   0.19102   0.00000  Uiso   1.00
C431   C     0.36987   0.83069   0.14578   0.00000  Uiso   1.00
C432   C     0.41022   0.88489   0.19361   0.00000  Uiso   1.00
C433   C     0.08521   0.61173   0.14865   0.00000  Uiso   1.00
C434   C     0.16401   0.86253   0.14120   0.00000  Uiso   1.00
C435   C     0.33718   0.63564   0.18928   0.00000  Uiso   1.00
C436   C     0.37790   0.58416   0.13652   0.00000  Uiso   1.00
C437   C     0.12007   0.91688   0.18888   0.00000  Uiso   1.00
C438   C     0.38001   0.91841   0.18730   0.00000  Uiso   1.00
C439   C     0.44120   0.68987   0.16594   0.00000  Uiso   1.00
C440   C     0.11916   0.58121   0.14408   0.00000  Uiso   1.00
C441   C     0.15880   0.63258   0.19627   0.00000  Uiso   1.00
C442   C     0.33568   0.86072   0.14937   0.00000  Uiso   1.00
C443   C     0.09307   0.84251   0.16609   0.00000  Uiso   1.00
C444   C     0.40690   0.65699   0.16426   0.00000  Uiso   1.00
C445   C     0.40687   0.84249   0.16907   0.00000  Uiso   1.00
C446   C     0.09240   0.65655   0.16622   0.00000  Uiso   1.00
C447   C     0.34268   0.59293   0.16602   0.00000  Uiso   1.00
C448   C     0.15806   0.90576   0.16511   0.00000  Uiso   1.00
C449   C     0.15588   0.59148   0.16927   0.00000  Uiso   1.00
C450   C     0.05903   0.80967   0.16686   0.00000  Uiso   1.00
C451   C     0.34221   0.90614   0.16556   0.00000  Uiso   1.00
C452   C     0.06021   0.65896   0.03299   0.00000  Uiso   1.00
C453   C     0.06465   0.83980   0.30030   0.00000  Uiso   1.00
C454   C     0.47009   0.86382   0.05153   0.00000  Uiso   1.00
C455   C     0.45987   0.63927   0.28768   0.00000  Uiso   1.00
C456   C     0.30276   0.90346   0.03683   0.00000  Uiso   1.00
C457   C     0.31618   0.58672   0.29905   0.00000  Uiso   1.00
C458   C     0.22146   0.61432   0.05263   0.00000  Uiso   1.00
C459   C     0.20772   0.88970   0.28698   0.00000  Uiso   1.00
C460   C     0.46151   0.57313   0.08281   0.00000  Uiso   1.00
C461   C     0.30839   0.93944   0.16592   0.00000  Uiso   1.00
C462   C     0.02554   0.92639   0.16244   0.00000  Uiso   1.00
C463   C     0.12232   0.77056   0.08115   0.00000  Uiso   1.00
C464   C     0.36818   0.70878   0.26697   0.00000  Uiso   1.00
C465   C     0.12165   0.72301   0.25653   0.00000  Uiso   1.00
C466   C     0.36918   0.78402   0.07353   0.00000  Uiso   1.00
C467   C     0.42551   0.88549   0.27467   0.00000  Uiso   1.00
C468   C     0.01860   0.59345   0.18426   0.00000  Uiso   1.00
C469   C     0.20719   0.82273   0.07715   0.00000  Uiso   1.00
C470   C     0.27458   0.67516   0.17023   0.00000  Uiso   1.00
C471   C     0.36843   0.54189   0.06179   0.00000  Uiso   1.00
C472   C     0.19059   0.55932   0.16758   0.00000  Uiso   1.00
C473   C     0.11497   0.95930   0.26391   0.00000  Uiso   1.00
C474   C     0.37887   0.98129   0.24678   0.00000  Uiso   1.00
C475   C     0.11325   0.53967   0.06932   0.00000  Uiso   1.00
C476   C     0.17334   0.62849   0.27747   0.00000  Uiso   1.00
C477   C     0.27636   0.82500   0.18388   0.00000  Uiso   1.00
C478   C     0.19144   0.93969   0.16614   0.00000  Uiso   1.00
C479   C     0.30889   0.55982   0.16687   0.00000  Uiso   1.00
C480   C     0.00255   0.71025   0.02238   0.00000  Uiso   1.00
Cu481  Cu    0.00000   0.75000   0.21355   0.00000  Uiso   1.00
Cu482  Cu    0.00000   0.75000   0.11978   0.00000  Uiso   1.00
Cu483  Cu    0.25000   0.50000   0.21355   0.00000  Uiso   1.00
Cu484  Cu    0.25000   0.50000   0.11978   0.00000  Uiso   1.00
H485   H     0.49734   0.64294   0.03567   0.00000  Uiso   1.00
H486   H     0.48162   0.89442   0.03442   0.00000  Uiso   1.00
H487   H     0.45892   0.87470   0.08699   0.00000  Uiso   1.00
H488   H     0.44318   0.84899   0.03208   0.00000  Uiso   1.00
H489   H     0.02387   0.65156   0.27493   0.00000  Uiso   1.00
H490   H     0.47047   0.60680   0.30167   0.00000  Uiso   1.00
H491   H     0.44395   0.63103   0.25441   0.00000  Uiso   1.00
H492   H     0.43672   0.65572   0.31247   0.00000  Uiso   1.00
H493   H     0.23795   0.89512   0.03720   0.00000  Uiso   1.00
H494   H     0.30868   0.89187   0.00022   0.00000  Uiso   1.00
H495   H     0.30844   0.87415   0.05830   0.00000  Uiso   1.00
H496   H     0.06290   0.63156   0.00516   0.00000  Uiso   1.00
H497   H     0.32559   0.93068   0.04655   0.00000  Uiso   1.00
H498   H     0.25421   0.60751   0.29569   0.00000  Uiso   1.00
H499   H     0.32005   0.61533   0.32521   0.00000  Uiso   1.00
H500   H     0.33257   0.59592   0.26705   0.00000  Uiso   1.00
H501   H     0.33207   0.55591   0.31086   0.00000  Uiso   1.00
H502   H     0.28462   0.59498   0.05705   0.00000  Uiso   1.00
H503   H     0.23291   0.64470   0.03506   0.00000  Uiso   1.00
H504   H     0.21128   0.62542   0.08838   0.00000  Uiso   1.00
H505   H     0.19390   0.59992   0.03417   0.00000  Uiso   1.00
H506   H     0.27155   0.90237   0.27152   0.00000  Uiso   1.00
H507   H     0.07465   0.64645   0.06447   0.00000  Uiso   1.00
H508   H     0.21809   0.85759   0.30187   0.00000  Uiso   1.00
H509   H     0.19271   0.88070   0.25335   0.00000  Uiso   1.00
H510   H     0.18398   0.90670   0.31064   0.00000  Uiso   1.00
H511   H     0.43441   0.63642   0.07138   0.00000  Uiso   1.00
H512   H     0.46058   0.54786   0.11003   0.00000  Uiso   1.00
H513   H     0.44787   0.55910   0.05014   0.00000  Uiso   1.00
H514   H     0.49448   0.57988   0.07356   0.00000  Uiso   1.00
H515   H     0.04289   0.91824   0.23046   0.00000  Uiso   1.00
H516   H     0.49351   0.93726   0.17373   0.00000  Uiso   1.00
H517   H     0.02318   0.90457   0.13003   0.00000  Uiso   1.00
H518   H     0.07854   0.68890   0.02227   0.00000  Uiso   1.00
H519   H     0.04389   0.95741   0.15525   0.00000  Uiso   1.00
H520   H     0.16349   0.76754   0.13823   0.00000  Uiso   1.00
H521   H     0.10782   0.79959   0.06409   0.00000  Uiso   1.00
H522   H     0.14822   0.75637   0.05872   0.00000  Uiso   1.00
H523   H     0.09901   0.74317   0.08359   0.00000  Uiso   1.00
H524   H     0.37851   0.73704   0.20271   0.00000  Uiso   1.00
H525   H     0.39878   0.72325   0.27819   0.00000  Uiso   1.00
H526   H     0.36520   0.67392   0.27964   0.00000  Uiso   1.00
H527   H     0.34264   0.73014   0.28314   0.00000  Uiso   1.00
H528   H     0.16738   0.72270   0.20446   0.00000  Uiso   1.00
H529   H     0.00198   0.85674   0.29385   0.00000  Uiso   1.00
H530   H     0.14818   0.72488   0.28108   0.00000  Uiso   1.00
H531   H     0.09860   0.69772   0.26855   0.00000  Uiso   1.00
H532   H     0.10617   0.75675   0.25736   0.00000  Uiso   1.00
H533   H     0.34186   0.76683   0.13659   0.00000  Uiso   1.00
H534   H     0.39223   0.75718   0.06235   0.00000  Uiso   1.00
H535   H     0.37979   0.81676   0.05987   0.00000  Uiso   1.00
H536   H     0.33833   0.77518   0.05811   0.00000  Uiso   1.00
H537   H     0.46960   0.87788   0.22123   0.00000  Uiso   1.00
H538   H     0.39197   0.89518   0.27951   0.00000  Uiso   1.00
H539   H     0.44385   0.90662   0.29989   0.00000  Uiso   1.00
H540   H     0.08054   0.81233   0.31850   0.00000  Uiso   1.00
H541   H     0.42841   0.84897   0.28197   0.00000  Uiso   1.00
H542   H     0.04213   0.56471   0.12320   0.00000  Uiso   1.00
H543   H     0.03756   0.58057   0.21289   0.00000  Uiso   1.00
H544   H     0.49150   0.57028   0.17895   0.00000  Uiso   1.00
H545   H     0.00575   0.62741   0.19432   0.00000  Uiso   1.00
H546   H     0.22648   0.87623   0.12107   0.00000  Uiso   1.00
H547   H     0.20815   0.78653   0.08519   0.00000  Uiso   1.00
H548   H     0.18216   0.83099   0.05257   0.00000  Uiso   1.00
H549   H     0.23804   0.82728   0.05983   0.00000  Uiso   1.00
H550   H     0.29548   0.66676   0.23687   0.00000  Uiso   1.00
H551   H     0.06634   0.87184   0.32228   0.00000  Uiso   1.00
H552   H     0.24370   0.68722   0.18417   0.00000  Uiso   1.00
H553   H     0.26952   0.65304   0.13849   0.00000  Uiso   1.00
H554   H     0.29292   0.70555   0.16100   0.00000  Uiso   1.00
H555   H     0.37221   0.51342   0.12639   0.00000  Uiso   1.00
H556   H     0.37101   0.57632   0.04794   0.00000  Uiso   1.00
H557   H     0.38847   0.51786   0.04038   0.00000  Uiso   1.00
H558   H     0.33593   0.52934   0.05807   0.00000  Uiso   1.00
H559   H     0.12908   0.98747   0.20090   0.00000  Uiso   1.00
H560   H     0.14486   0.97422   0.27685   0.00000  Uiso   1.00
H561   H     0.11203   0.92432   0.27624   0.00000  Uiso   1.00
H562   H     0.08244   0.84479   0.26779   0.00000  Uiso   1.00
H563   H     0.08850   0.98009   0.27884   0.00000  Uiso   1.00
H564   H     0.41827   0.97530   0.18878   0.00000  Uiso   1.00
H565   H     0.40712   0.97997   0.26874   0.00000  Uiso   1.00
H566   H     0.35335   0.96129   0.26256   0.00000  Uiso   1.00
H567   H     0.36868   0.51722   0.24623   0.00000  Uiso   1.00
H568   H     0.13169   0.51164   0.12991   0.00000  Uiso   1.00
H569   H     0.14498   0.54757   0.05574   0.00000  Uiso   1.00
H570   H     0.09046   0.56535   0.05830   0.00000  Uiso   1.00
H571   H     0.10372   0.50593   0.05407   0.00000  Uiso   1.00
H572   H     0.21833   0.62559   0.22433   0.00000  Uiso   1.00
H573   H     0.03347   0.84544   0.05681   0.00000  Uiso   1.00
H574   H     0.13874   0.63257   0.28090   0.00000  Uiso   1.00
H575   H     0.18799   0.65206   0.30360   0.00000  Uiso   1.00
H576   H     0.18090   0.59277   0.28469   0.00000  Uiso   1.00
H577   H     0.29223   0.82102   0.11419   0.00000  Uiso   1.00
H578   H     0.29830   0.80080   0.19935   0.00000  Uiso   1.00
H579   H     0.24709   0.80622   0.17537   0.00000  Uiso   1.00
H580   H     0.26858   0.85290   0.20965   0.00000  Uiso   1.00
N581   N     0.00000   0.75000   0.28402   0.00000  Uiso   1.00
N582   N     0.27200   0.57857   0.29011   0.00000  Uiso   1.00
N583   N     0.25496   0.58131   0.05476   0.00000  Uiso   1.00
N584   N     0.24361   0.91874   0.27925   0.00000  Uiso   1.00
N585   N     0.44090   0.61543   0.09788   0.00000  Uiso   1.00
N586   N     0.04523   0.90144   0.19829   0.00000  Uiso   1.00
N587   N     0.13712   0.78386   0.12729   0.00000  Uiso   1.00
N588   N     0.36517   0.70900   0.21693   0.00000  Uiso   1.00
N589   N     0.13700   0.71179   0.20974   0.00000  Uiso   1.00
N590   N     0.36567   0.78646   0.12375   0.00000  Uiso   1.00
N591   N     0.44093   0.89299   0.22815   0.00000  Uiso   1.00
N592   N     0.00000   0.75000   0.04931   0.00000  Uiso   1.00
N593   N     0.04349   0.59537   0.14186   0.00000  Uiso   1.00
N594   N     0.20396   0.85139   0.11945   0.00000  Uiso   1.00
N595   N     0.29634   0.65010   0.20457   0.00000  Uiso   1.00
N596   N     0.38137   0.54200   0.10977   0.00000  Uiso   1.00
N597   N     0.11412   0.95977   0.21372   0.00000  Uiso   1.00
N598   N     0.38901   0.96489   0.19974   0.00000  Uiso   1.00
N599   N     0.11389   0.53822   0.11937   0.00000  Uiso   1.00
N600   N     0.18896   0.63878   0.23176   0.00000  Uiso   1.00
N601   N     0.29451   0.84356   0.14251   0.00000  Uiso   1.00
N602   N     0.25000   0.50000   0.28402   0.00000  Uiso   1.00
N603   N     0.25000   0.50000   0.04931   0.00000  Uiso   1.00
N604   N     0.01642   0.67023   0.04268   0.00000  Uiso   1.00
N605   N     0.02120   0.82882   0.28991   0.00000  Uiso   1.00
N606   N     0.00394   0.83136   0.05463   0.00000  Uiso   1.00
N607   N     0.49565   0.66842   0.27949   0.00000  Uiso   1.00
N608   N     0.25998   0.91954   0.04419   0.00000  Uiso   1.00
O609   O     0.04508   0.70491   0.20625   0.00000  Uiso   1.00
O610   O     0.20491   0.54509   0.12709   0.00000  Uiso   1.00
O611   O     0.20491   0.54509   0.20625   0.00000  Uiso   1.00
O612   O     0.29508   0.95491   0.12709   0.00000  Uiso   1.00
O613   O     0.20491   0.95491   0.12709   0.00000  Uiso   1.00
O614   O     0.29508   0.54509   0.20625   0.00000  Uiso   1.00
O615   O     0.29508   0.54509   0.12709   0.00000  Uiso   1.00
O616   O     0.20491   0.95491   0.20625   0.00000  Uiso   1.00
O617   O     0.45491   0.79509   0.12709   0.00000  Uiso   1.00
O618   O     0.45491   0.79509   0.20625   0.00000  Uiso   1.00
O619   O     0.04508   0.70491   0.12709   0.00000  Uiso   1.00
O620   O     0.45491   0.70491   0.12709   0.00000  Uiso   1.00
O621   O     0.04508   0.79509   0.20625   0.00000  Uiso   1.00
O622   O     0.04508   0.79509   0.12709   0.00000  Uiso   1.00
O623   O     0.45491   0.70491   0.20625   0.00000  Uiso   1.00
O624   O     0.29508   0.95491   0.20625   0.00000  Uiso   1.00
C625   C     0.55925   0.69050   0.16606   0.00000  Uiso   1.00
C626   C     0.50546   0.78959   0.31091   0.00000  Uiso   1.00
C627   C     0.50115   0.78997   0.02723   0.00000  Uiso   1.00
C628   C     0.99771   0.71016   0.30637   0.00000  Uiso   1.00
C629   C     0.75101   0.96026   0.02255   0.00000  Uiso   1.00
C630   C     0.75558   0.53959   0.31094   0.00000  Uiso   1.00
C631   C     0.75146   0.53999   0.02728   0.00000  Uiso   1.00
C632   C     0.74670   0.96023   0.30638   0.00000  Uiso   1.00
C633   C     0.90952   0.61751   0.13396   0.00000  Uiso   1.00
C634   C     0.58656   0.88645   0.18576   0.00000  Uiso   1.00
C635   C     0.63129   0.83008   0.14359   0.00000  Uiso   1.00
C636   C     0.94115   0.80992   0.16761   0.00000  Uiso   1.00
C637   C     0.87067   0.66625   0.19179   0.00000  Uiso   1.00
C638   C     0.62913   0.66681   0.19102   0.00000  Uiso   1.00
C639   C     0.86987   0.83069   0.14578   0.00000  Uiso   1.00
C640   C     0.91022   0.88489   0.19361   0.00000  Uiso   1.00
C641   C     0.58521   0.61173   0.14865   0.00000  Uiso   1.00
C642   C     0.66401   0.86253   0.14120   0.00000  Uiso   1.00
C643   C     0.83718   0.63564   0.18928   0.00000  Uiso   1.00
C644   C     0.87790   0.58416   0.13652   0.00000  Uiso   1.00
C645   C     0.62007   0.91688   0.18888   0.00000  Uiso   1.00
C646   C     0.88001   0.91841   0.18730   0.00000  Uiso   1.00
C647   C     0.94120   0.68987   0.16594   0.00000  Uiso   1.00
C648   C     0.61916   0.58121   0.14408   0.00000  Uiso   1.00
C649   C     0.65880   0.63258   0.19627   0.00000  Uiso   1.00
C650   C     0.83568   0.86072   0.14937   0.00000  Uiso   1.00
C651   C     0.59307   0.84251   0.16609   0.00000  Uiso   1.00
C652   C     0.90690   0.65699   0.16426   0.00000  Uiso   1.00
C653   C     0.90687   0.84249   0.16907   0.00000  Uiso   1.00
C654   C     0.59240   0.65655   0.16622   0.00000  Uiso   1.00
C655   C     0.84268   0.59293   0.16602   0.00000  Uiso   1.00
C656   C     0.65806   0.90576   0.16511   0.00000  Uiso   1.00
C657   C     0.65588   0.59148   0.16927   0.00000  Uiso   1.00
C658   C     0.55903   0.80967   0.16686   0.00000  Uiso   1.00
C659   C     0.84221   0.90614   0.16556   0.00000  Uiso   1.00
C660   C     0.56021   0.65896   0.03299   0.00000  Uiso   1.00
C661   C     0.56465   0.83980   0.30030   0.00000  Uiso   1.00
C662   C     0.97009   0.86382   0.05153   0.00000  Uiso   1.00
C663   C     0.95987   0.63927   0.28768   0.00000  Uiso   1.00
C664   C     0.80276   0.90346   0.03683   0.00000  Uiso   1.00
C665   C     0.81618   0.58672   0.29905   0.00000  Uiso   1.00
C666   C     0.72146   0.61432   0.05263   0.00000  Uiso   1.00
C667   C     0.70772   0.88970   0.28698   0.00000  Uiso   1.00
C668   C     0.96151   0.57313   0.08281   0.00000  Uiso   1.00
C669   C     0.80839   0.93944   0.16592   0.00000  Uiso   1.00
C670   C     0.52554   0.92639   0.16244   0.00000  Uiso   1.00
C671   C     0.62232   0.77056   0.08115   0.00000  Uiso   1.00
C672   C     0.86818   0.70878   0.26697   0.00000  Uiso   1.00
C673   C     0.62165   0.72301   0.25653   0.00000  Uiso   1.00
C674   C     0.86918   0.78402   0.07353   0.00000  Uiso   1.00
C675   C     0.92551   0.88549   0.27467   0.00000  Uiso   1.00
C676   C     0.51860   0.59345   0.18426   0.00000  Uiso   1.00
C677   C     0.70719   0.82273   0.07715   0.00000  Uiso   1.00
C678   C     0.77458   0.67516   0.17023   0.00000  Uiso   1.00
C679   C     0.86843   0.54189   0.06179   0.00000  Uiso   1.00
C680   C     0.69059   0.55932   0.16758   0.00000  Uiso   1.00
C681   C     0.61497   0.95930   0.26391   0.00000  Uiso   1.00
C682   C     0.87887   0.98129   0.24678   0.00000  Uiso   1.00
C683   C     0.61325   0.53967   0.06932   0.00000  Uiso   1.00
C684   C     0.67334   0.62849   0.27747   0.00000  Uiso   1.00
C685   C     0.77636   0.82500   0.18388   0.00000  Uiso   1.00
C686   C     0.69144   0.93969   0.16614   0.00000  Uiso   1.00
C687   C     0.80889   0.55982   0.16687   0.00000  Uiso   1.00
C688   C     0.50255   0.71025   0.02238   0.00000  Uiso   1.00
Cu689  Cu    0.50000   0.75000   0.21355   0.00000  Uiso   1.00
Cu690  Cu    0.50000   0.75000   0.11978   0.00000  Uiso   1.00
Cu691  Cu    0.75000   0.50000   0.21355   0.00000  Uiso   1.00
Cu692  Cu    0.75000   0.50000   0.11978   0.00000  Uiso   1.00
H693   H     0.99734   0.64294   0.03567   0.00000  Uiso   1.00
H694   H     0.98162   0.89442   0.03442   0.00000  Uiso   1.00
H695   H     0.95892   0.87470   0.08699   0.00000  Uiso   1.00
H696   H     0.94318   0.84899   0.03208   0.00000  Uiso   1.00
H697   H     0.52387   0.65156   0.27493   0.00000  Uiso   1.00
H698   H     0.97047   0.60680   0.30167   0.00000  Uiso   1.00
H699   H     0.94395   0.63103   0.25441   0.00000  Uiso   1.00
H700   H     0.93672   0.65572   0.31247   0.00000  Uiso   1.00
H701   H     0.73795   0.89512   0.03720   0.00000  Uiso   1.00
H702   H     0.80868   0.89187   0.00022   0.00000  Uiso   1.00
H703   H     0.80844   0.87415   0.05830   0.00000  Uiso   1.00
H704   H     0.56290   0.63156   0.00516   0.00000  Uiso   1.00
H705   H     0.82559   0.93068   0.04655   0.00000  Uiso   1.00
H706   H     0.75421   0.60751   0.29569   0.00000  Uiso   1.00
H707   H     0.82005   0.61533   0.32521   0.00000  Uiso   1.00
H708   H     0.83257   0.59592   0.26705   0.00000  Uiso   1.00
H709   H     0.83207   0.55591   0.31086   0.00000  Uiso   1.00
H710   H     0.78462   0.59498   0.05705   0.00000  Uiso   1.00
H711   H     0.73291   0.64470   0.03506   0.00000  Uiso   1.00
H712   H     0.71128   0.62542   0.08838   0.00000  Uiso   1.00
H713   H     0.69390   0.59992   0.03417   0.00000  Uiso   1.00
H714   H     0.77155   0.90237   0.27152   0.00000  Uiso   1.00
H715   H     0.57465   0.64645   0.06447   0.00000  Uiso   1.00
H716   H     0.71809   0.85759   0.30187   0.00000  Uiso   1.00
H717   H     0.69271   0.88070   0.25335   0.00000  Uiso   1.00
H718   H     0.68398   0.90670   0.31064   0.00000  Uiso   1.00
H719   H     0.93441   0.63642   0.07138   0.00000  Uiso   1.00
H720   H     0.96058   0.54786   0.11003   0.00000  Uiso   1.00
H721   H     0.94787   0.55910   0.05014   0.00000  Uiso   1.00
H722   H     0.99448   0.57988   0.07356   0.00000  Uiso   1.00
H723   H     0.54289   0.91824   0.23046   0.00000  Uiso   1.00
H724   H     0.99351   0.93726   0.17373   0.00000  Uiso   1.00
H725   H     0.52318   0.90457   0.13003   0.00000  Uiso   1.00
H726   H     0.57854   0.68890   0.02227   0.00000  Uiso   1.00
H727   H     0.54389   0.95741   0.15525   0.00000  Uiso   1.00
H728   H     0.66349   0.76754   0.13823   0.00000  Uiso   1.00
H729   H     0.60782   0.79959   0.06409   0.00000  Uiso   1.00
H730   H     0.64822   0.75637   0.05872   0.00000  Uiso   1.00
H731   H     0.59901   0.74317   0.08359   0.00000  Uiso   1.00
H732   H     0.87851   0.73704   0.20271   0.00000  Uiso   1.00
H733   H     0.89878   0.72325   0.27819   0.00000  Uiso   1.00
H734   H     0.86520   0.67392   0.27964   0.00000  Uiso   1.00
H735   H     0.84264   0.73014   0.28314   0.00000  Uiso   1.00
H736   H     0.66738   0.72270   0.20446   0.00000  Uiso   1.00
H737   H     0.50198   0.85674   0.29385   0.00000  Uiso   1.00
H738   H     0.64818   0.72488   0.28108   0.00000  Uiso   1.00
H739   H     0.59860   0.69772   0.26855   0.00000  Uiso   1.00
H740   H     0.60617   0.75675   0.25736   0.00000  Uiso   1.00
H741   H     0.84186   0.76683   0.13659   0.00000  Uiso   1.00
H742   H     0.89223   0.75718   0.06235   0.00000  Uiso   1.00
H743   H     0.87979   0.81676   0.05987   0.00000  Uiso   1.00
H744   H     0.83833   0.77518   0.05811   0.00000  Uiso   1.00
H745   H     0.96960   0.87788   0.22123   0.00000  Uiso   1.00
H746   H     0.89197   0.89518   0.27951   0.00000  Uiso   1.00
H747   H     0.94385   0.90662   0.29989   0.00000  Uiso   1.00
H748   H     0.58054   0.81233   0.31850   0.00000  Uiso   1.00
H749   H     0.92841   0.84897   0.28197   0.00000  Uiso   1.00
H750   H     0.54213   0.56471   0.12320   0.00000  Uiso   1.00
H751   H     0.53756   0.58057   0.21289   0.00000  Uiso   1.00
H752   H     0.99150   0.57028   0.17895   0.00000  Uiso   1.00
H753   H     0.50575   0.62741   0.19432   0.00000  Uiso   1.00
H754   H     0.72648   0.87623   0.12107   0.00000  Uiso   1.00
H755   H     0.70815   0.78653   0.08519   0.00000  Uiso   1.00
H756   H     0.68216   0.83099   0.05257   0.00000  Uiso   1.00
H757   H     0.73804   0.82728   0.05983   0.00000  Uiso   1.00
H758   H     0.79548   0.66676   0.23687   0.00000  Uiso   1.00
H759   H     0.56634   0.87184   0.32228   0.00000  Uiso   1.00
H760   H     0.74370   0.68722   0.18417   0.00000  Uiso   1.00
H761   H     0.76952   0.65304   0.13849   0.00000  Uiso   1.00
H762   H     0.79292   0.70555   0.16100   0.00000  Uiso   1.00
H763   H     0.87221   0.51342   0.12639   0.00000  Uiso   1.00
H764   H     0.87101   0.57632   0.04794   0.00000  Uiso   1.00
H765   H     0.88847   0.51786   0.04038   0.00000  Uiso   1.00
H766   H     0.83593   0.52934   0.05807   0.00000  Uiso   1.00
H767   H     0.62908   0.98747   0.20090   0.00000  Uiso   1.00
H768   H     0.64486   0.97422   0.27685   0.00000  Uiso   1.00
H769   H     0.61203   0.92432   0.27624   0.00000  Uiso   1.00
H770   H     0.58244   0.84479   0.26779   0.00000  Uiso   1.00
H771   H     0.58850   0.98009   0.27884   0.00000  Uiso   1.00
H772   H     0.91827   0.97530   0.18878   0.00000  Uiso   1.00
H773   H     0.90712   0.97997   0.26874   0.00000  Uiso   1.00
H774   H     0.85335   0.96129   0.26256   0.00000  Uiso   1.00
H775   H     0.86868   0.51722   0.24623   0.00000  Uiso   1.00
H776   H     0.63169   0.51164   0.12991   0.00000  Uiso   1.00
H777   H     0.64498   0.54757   0.05574   0.00000  Uiso   1.00
H778   H     0.59046   0.56535   0.05830   0.00000  Uiso   1.00
H779   H     0.60372   0.50593   0.05407   0.00000  Uiso   1.00
H780   H     0.71833   0.62559   0.22433   0.00000  Uiso   1.00
H781   H     0.53347   0.84544   0.05681   0.00000  Uiso   1.00
H782   H     0.63874   0.63257   0.28090   0.00000  Uiso   1.00
H783   H     0.68799   0.65206   0.30360   0.00000  Uiso   1.00
H784   H     0.68090   0.59277   0.28469   0.00000  Uiso   1.00
H785   H     0.79223   0.82102   0.11419   0.00000  Uiso   1.00
H786   H     0.79830   0.80080   0.19935   0.00000  Uiso   1.00
H787   H     0.74709   0.80622   0.17537   0.00000  Uiso   1.00
H788   H     0.76858   0.85290   0.20965   0.00000  Uiso   1.00
N789   N     0.50000   0.75000   0.28402   0.00000  Uiso   1.00
N790   N     0.77200   0.57857   0.29011   0.00000  Uiso   1.00
N791   N     0.75496   0.58131   0.05476   0.00000  Uiso   1.00
N792   N     0.74361   0.91874   0.27925   0.00000  Uiso   1.00
N793   N     0.94090   0.61543   0.09788   0.00000  Uiso   1.00
N794   N     0.54523   0.90144   0.19829   0.00000  Uiso   1.00
N795   N     0.63712   0.78386   0.12729   0.00000  Uiso   1.00
N796   N     0.86517   0.70900   0.21693   0.00000  Uiso   1.00
N797   N     0.63700   0.71179   0.20974   0.00000  Uiso   1.00
N798   N     0.86567   0.78646   0.12375   0.00000  Uiso   1.00
N799   N     0.94093   0.89299   0.22815   0.00000  Uiso   1.00
N800   N     0.50000   0.75000   0.04931   0.00000  Uiso   1.00
N801   N     0.54349   0.59537   0.14186   0.00000  Uiso   1.00
N802   N     0.70396   0.85139   0.11945   0.00000  Uiso   1.00
N803   N     0.79634   0.65010   0.20457   0.00000  Uiso   1.00
N804   N     0.88137   0.54200   0.10977   0.00000  Uiso   1.00
N805   N     0.61412   0.95977   0.21372   0.00000  Uiso   1.00
N806   N     0.88901   0.96489   0.19974   0.00000  Uiso   1.00
N807   N     0.61389   0.53822   0.11937   0.00000  Uiso   1.00
N808   N     0.68896   0.63878   0.23176   0.00000  Uiso   1.00
N809   N     0.79451   0.84356   0.14251   0.00000  Uiso   1.00
N810   N     0.75000   0.50000   0.28402   0.00000  Uiso   1.00
N811   N     0.75000   0.50000   0.04931   0.00000  Uiso   1.00
N812   N     0.51642   0.67023   0.04268   0.00000  Uiso   1.00
N813   N     0.52120   0.82882   0.28991   0.00000  Uiso   1.00
N814   N     0.50394   0.83136   0.05463   0.00000  Uiso   1.00
N815   N     0.99565   0.66842   0.27949   0.00000  Uiso   1.00
N816   N     0.75998   0.91954   0.04419   0.00000  Uiso   1.00
O817   O     0.54508   0.70491   0.20625   0.00000  Uiso   1.00
O818   O     0.70491   0.54509   0.12709   0.00000  Uiso   1.00
O819   O     0.70491   0.54509   0.20625   0.00000  Uiso   1.00
O820   O     0.79508   0.95491   0.12709   0.00000  Uiso   1.00
O821   O     0.70491   0.95491   0.12709   0.00000  Uiso   1.00
O822   O     0.79508   0.54509   0.20625   0.00000  Uiso   1.00
O823   O     0.79508   0.54509   0.12709   0.00000  Uiso   1.00
O824   O     0.70491   0.95491   0.20625   0.00000  Uiso   1.00
O825   O     0.95491   0.79509   0.12709   0.00000  Uiso   1.00
O826   O     0.95491   0.79509   0.20625   0.00000  Uiso   1.00
O827   O     0.54508   0.70491   0.12709   0.00000  Uiso   1.00
O828   O     0.95491   0.70491   0.12709   0.00000  Uiso   1.00
O829   O     0.54508   0.79509   0.20625   0.00000  Uiso   1.00
O830   O     0.54508   0.79509   0.12709   0.00000  Uiso   1.00
O831   O     0.95491   0.70491   0.20625   0.00000  Uiso   1.00
O832   O     0.79508   0.95491   0.20625   0.00000  Uiso   1.00
C833   C     0.05925   0.19050   0.49939   0.00000  Uiso   1.00
C834   C     0.00546   0.28959   0.64424   0.00000  Uiso   1.00
C835   C     0.00115   0.28997   0.36057   0.00000  Uiso   1.00
C836   C     0.49771   0.21016   0.63971   0.00000  Uiso   1.00
C837   C     0.25101   0.46026   0.35589   0.00000  Uiso   1.00
C838   C     0.25558   0.03959   0.64428   0.00000  Uiso   1.00
C839   C     0.25146   0.03999   0.36061   0.00000  Uiso   1.00
C840   C     0.24670   0.46023   0.63971   0.00000  Uiso   1.00
C841   C     0.40952   0.11751   0.46730   0.00000  Uiso   1.00
C842   C     0.08656   0.38645   0.51909   0.00000  Uiso   1.00
C843   C     0.13129   0.33008   0.47692   0.00000  Uiso   1.00
C844   C     0.44115   0.30992   0.50094   0.00000  Uiso   1.00
C845   C     0.37067   0.16625   0.52512   0.00000  Uiso   1.00
C846   C     0.12913   0.16681   0.52435   0.00000  Uiso   1.00
C847   C     0.36987   0.33069   0.47912   0.00000  Uiso   1.00
C848   C     0.41022   0.38489   0.52694   0.00000  Uiso   1.00
C849   C     0.08521   0.11173   0.48198   0.00000  Uiso   1.00
C850   C     0.16401   0.36253   0.47453   0.00000  Uiso   1.00
C851   C     0.33718   0.13564   0.52262   0.00000  Uiso   1.00
C852   C     0.37790   0.08416   0.46986   0.00000  Uiso   1.00
C853   C     0.12007   0.41688   0.52222   0.00000  Uiso   1.00
C854   C     0.38001   0.41841   0.52064   0.00000  Uiso   1.00
C855   C     0.44120   0.18987   0.49928   0.00000  Uiso   1.00
C856   C     0.11916   0.08121   0.47741   0.00000  Uiso   1.00
C857   C     0.15880   0.13258   0.52960   0.00000  Uiso   1.00
C858   C     0.33568   0.36072   0.48271   0.00000  Uiso   1.00
C859   C     0.09307   0.34251   0.49942   0.00000  Uiso   1.00
C860   C     0.40690   0.15699   0.49759   0.00000  Uiso   1.00
C861   C     0.40687   0.34249   0.50241   0.00000  Uiso   1.00
C862   C     0.09240   0.15655   0.49956   0.00000  Uiso   1.00
C863   C     0.34268   0.09293   0.49935   0.00000  Uiso   1.00
C864   C     0.15806   0.40576   0.49844   0.00000  Uiso   1.00
C865   C     0.15588   0.09148   0.50260   0.00000  Uiso   1.00
C866   C     0.05903   0.30967   0.50019   0.00000  Uiso   1.00
C867   C     0.34221   0.40614   0.49889   0.00000  Uiso   1.00
C868   C     0.06021   0.15896   0.36632   0.00000  Uiso   1.00
C869   C     0.06465   0.33980   0.63363   0.00000  Uiso   1.00
C870   C     0.47009   0.36382   0.38486   0.00000  Uiso   1.00
C871   C     0.45987   0.13927   0.62102   0.00000  Uiso   1.00
C872   C     0.30276   0.40346   0.37016   0.00000  Uiso   1.00
C873   C     0.31618   0.08672   0.63238   0.00000  Uiso   1.00
C874   C     0.22146   0.11432   0.38597   0.00000  Uiso   1.00
C875   C     0.20772   0.38970   0.62031   0.00000  Uiso   1.00
C876   C     0.46151   0.07313   0.41615   0.00000  Uiso   1.00
C877   C     0.30839   0.43944   0.49926   0.00000  Uiso   1.00
C878   C     0.02554   0.42639   0.49577   0.00000  Uiso   1.00
C879   C     0.12232   0.27056   0.41448   0.00000  Uiso   1.00
C880   C     0.36818   0.20878   0.60031   0.00000  Uiso   1.00
C881   C     0.12165   0.22301   0.58986   0.00000  Uiso   1.00
C882   C     0.36918   0.28402   0.40686   0.00000  Uiso   1.00
C883   C     0.42551   0.38549   0.60800   0.00000  Uiso   1.00
C884   C     0.01860   0.09345   0.51759   0.00000  Uiso   1.00
C885   C     0.20719   0.32273   0.41048   0.00000  Uiso   1.00
C886   C     0.27458   0.17516   0.50356   0.00000  Uiso   1.00
C887   C     0.36843   0.04189   0.39512   0.00000  Uiso   1.00
C888   C     0.19059   0.05932   0.50091   0.00000  Uiso   1.00
C889   C     0.11497   0.45930   0.59724   0.00000  Uiso   1.00
C890   C     0.37887   0.48129   0.58011   0.00000  Uiso   1.00
C891   C     0.11325   0.03967   0.40265   0.00000  Uiso   1.00
C892   C     0.17334   0.12849   0.61081   0.00000  Uiso   1.00
C893   C     0.27636   0.32500   0.51721   0.00000  Uiso   1.00
C894   C     0.19144   0.43969   0.49947   0.00000  Uiso   1.00
C895   C     0.30889   0.05982   0.50020   0.00000  Uiso   1.00
C896   C     0.00255   0.21025   0.35571   0.00000  Uiso   1.00
Cu897  Cu    0.00000   0.25000   0.54689   0.00000  Uiso   1.00
Cu898  Cu    0.00000   0.25000   0.45311   0.00000  Uiso   1.00
Cu899  Cu    0.25000  -0.00000   0.54689   0.00000  Uiso   1.00
Cu900  Cu    0.25000  -0.00000   0.45311   0.00000  Uiso   1.00
H901   H     0.49734   0.14294   0.36900   0.00000  Uiso   1.00
H902   H     0.48162   0.39442   0.36776   0.00000  Uiso   1.00
H903   H     0.45892   0.37470   0.42032   0.00000  Uiso   1.00
H904   H     0.44318   0.34899   0.36542   0.00000  Uiso   1.00
H905   H     0.02387   0.15156   0.60827   0.00000  Uiso   1.00
H906   H     0.47047   0.10680   0.63500   0.00000  Uiso   1.00
H907   H     0.44395   0.13103   0.58775   0.00000  Uiso   1.00
H908   H     0.43672   0.15572   0.64580   0.00000  Uiso   1.00
H909   H     0.23795   0.39512   0.37053   0.00000  Uiso   1.00
H910   H     0.30868   0.39187   0.33355   0.00000  Uiso   1.00
H911   H     0.30844   0.37415   0.39163   0.00000  Uiso   1.00
H912   H     0.06290   0.13156   0.33849   0.00000  Uiso   1.00
H913   H     0.32559   0.43068   0.37988   0.00000  Uiso   1.00
H914   H     0.25421   0.10751   0.62903   0.00000  Uiso   1.00
H915   H     0.32005   0.11533   0.65854   0.00000  Uiso   1.00
H916   H     0.33257   0.09592   0.60038   0.00000  Uiso   1.00
H917   H     0.33207   0.05591   0.64419   0.00000  Uiso   1.00
H918   H     0.28462   0.09498   0.39038   0.00000  Uiso   1.00
H919   H     0.23291   0.14470   0.36839   0.00000  Uiso   1.00
H920   H     0.21128   0.12542   0.42171   0.00000  Uiso   1.00
H921   H     0.19390   0.09992   0.36750   0.00000  Uiso   1.00
H922   H     0.27155   0.40237   0.60486   0.00000  Uiso   1.00
H923   H     0.07465   0.14645   0.39780   0.00000  Uiso   1.00
H924   H     0.21809   0.35759   0.63520   0.00000  Uiso   1.00
H925   H     0.19271   0.38070   0.58668   0.00000  Uiso   1.00
H926   H     0.18398   0.40670   0.64397   0.00000  Uiso   1.00
H927   H     0.43441   0.13642   0.40471   0.00000  Uiso   1.00
H928   H     0.46058   0.04786   0.44336   0.00000  Uiso   1.00
H929   H     0.44787   0.05910   0.38348   0.00000  Uiso   1.00
H930   H     0.49448   0.07988   0.40689   0.00000  Uiso   1.00
H931   H     0.04289   0.41824   0.56380   0.00000  Uiso   1.00
H932   H     0.49351   0.43726   0.50706   0.00000  Uiso   1.00
H933   H     0.02318   0.40457   0.46337   0.00000  Uiso   1.00
H934   H     0.07854   0.18890   0.35561   0.00000  Uiso   1.00
H935   H     0.04389   0.45741   0.48858   0.00000  Uiso   1.00
H936   H     0.16349   0.26754   0.47156   0.00000  Uiso   1.00
H937   H     0.10782   0.29959   0.39742   0.00000  Uiso   1.00
H938   H     0.14822   0.25637   0.39205   0.00000  Uiso   1.00
H939   H     0.09901   0.24317   0.41692   0.00000  Uiso   1.00
H940   H     0.37851   0.23704   0.53604   0.00000  Uiso   1.00
H941   H     0.39878   0.22325   0.61152   0.00000  Uiso   1.00
H942   H     0.36520   0.17392   0.61298   0.00000  Uiso   1.00
H943   H     0.34264   0.23014   0.61648   0.00000  Uiso   1.00
H944   H     0.16738   0.22270   0.53780   0.00000  Uiso   1.00
H945   H     0.00198   0.35674   0.62718   0.00000  Uiso   1.00
H946   H     0.14818   0.22488   0.61441   0.00000  Uiso   1.00
H947   H     0.09860   0.19772   0.60188   0.00000  Uiso   1.00
H948   H     0.10617   0.25675   0.59070   0.00000  Uiso   1.00
H949   H     0.34186   0.26683   0.46992   0.00000  Uiso   1.00
H950   H     0.39223   0.25718   0.39569   0.00000  Uiso   1.00
H951   H     0.37979   0.31676   0.39321   0.00000  Uiso   1.00
H952   H     0.33833   0.27518   0.39144   0.00000  Uiso   1.00
H953   H     0.46960   0.37788   0.55457   0.00000  Uiso   1.00
H954   H     0.39197   0.39518   0.61285   0.00000  Uiso   1.00
H955   H     0.44385   0.40662   0.63323   0.00000  Uiso   1.00
H956   H     0.08054   0.31233   0.65183   0.00000  Uiso   1.00
H957   H     0.42841   0.34897   0.61530   0.00000  Uiso   1.00
H958   H     0.04213   0.06471   0.45654   0.00000  Uiso   1.00
H959   H     0.03756   0.08057   0.54622   0.00000  Uiso   1.00
H960   H     0.49150   0.07028   0.51229   0.00000  Uiso   1.00
H961   H     0.00575   0.12741   0.52766   0.00000  Uiso   1.00
H962   H     0.22648   0.37623   0.45441   0.00000  Uiso   1.00
H963   H     0.20815   0.28653   0.41853   0.00000  Uiso   1.00
H964   H     0.18216   0.33099   0.38590   0.00000  Uiso   1.00
H965   H     0.23804   0.32728   0.39317   0.00000  Uiso   1.00
H966   H     0.29548   0.16676   0.57020   0.00000  Uiso   1.00
H967   H     0.06634   0.37184   0.65561   0.00000  Uiso   1.00
H968   H     0.24370   0.18722   0.51750   0.00000  Uiso   1.00
H969   H     0.26952   0.15304   0.47182   0.00000  Uiso   1.00
H970   H     0.29292   0.20555   0.49434   0.00000  Uiso   1.00
H971   H     0.37221   0.01342   0.45972   0.00000  Uiso   1.00
H972   H     0.37101   0.07632   0.38128   0.00000  Uiso   1.00
H973   H     0.38847   0.01786   0.37371   0.00000  Uiso   1.00
H974   H     0.33593   0.02934   0.39141   0.00000  Uiso   1.00
H975   H     0.12908   0.48747   0.53423   0.00000  Uiso   1.00
H976   H     0.14486   0.47422   0.61019   0.00000  Uiso   1.00
H977   H     0.11203   0.42432   0.60957   0.00000  Uiso   1.00
H978   H     0.08244   0.34479   0.60113   0.00000  Uiso   1.00
H979   H     0.08850   0.48009   0.61217   0.00000  Uiso   1.00
H980   H     0.41827   0.47530   0.52211   0.00000  Uiso   1.00
H981   H     0.40712   0.47997   0.60208   0.00000  Uiso   1.00
H982   H     0.35335   0.46129   0.59590   0.00000  Uiso   1.00
H983   H     0.36868   0.01722   0.57956   0.00000  Uiso   1.00
H984   H     0.13169   0.01164   0.46324   0.00000  Uiso   1.00
H985   H     0.14498   0.04757   0.38908   0.00000  Uiso   1.00
H986   H     0.09046   0.06535   0.39163   0.00000  Uiso   1.00
H987   H     0.10372   0.00593   0.38740   0.00000  Uiso   1.00
H988   H     0.21833   0.12559   0.55766   0.00000  Uiso   1.00
H989   H     0.03347   0.34544   0.39014   0.00000  Uiso   1.00
H990   H     0.13874   0.13257   0.61423   0.00000  Uiso   1.00
H991   H     0.18799   0.15206   0.63694   0.00000  Uiso   1.00
H992   H     0.18090   0.09277   0.61802   0.00000  Uiso   1.00
H993   H     0.29223   0.32102   0.44752   0.00000  Uiso   1.00
H994   H     0.29830   0.30080   0.53268   0.00000  Uiso   1.00
H995   H     0.24709   0.30622   0.50870   0.00000  Uiso   1.00
H996   H     0.26858   0.35290   0.54298   0.00000  Uiso   1.00
N997   N     0.00000   0.25000   0.61736   0.00000  Uiso   1.00
N998   N     0.27200   0.07857   0.62345   0.00000  Uiso   1.00
N999   N     0.25496   0.08131   0.38809   0.00000  Uiso   1.00
N1000  N     0.24361   0.41874   0.61258   0.00000  Uiso   1.00
N1001  N     0.44090   0.11543   0.43121   0.00000  Uiso   1.00
N1002  N     0.04523   0.40144   0.53162   0.00000  Uiso   1.00
N1003  N     0.13712   0.28386   0.46062   0.00000  Uiso   1.00
N1004  N     0.36517   0.20900   0.55027   0.00000  Uiso   1.00
N1005  N     0.13700   0.21179   0.54307   0.00000  Uiso   1.00
N1006  N     0.36567   0.28646   0.45709   0.00000  Uiso   1.00
N1007  N     0.44093   0.39299   0.56149   0.00000  Uiso   1.00
N1008  N     0.00000   0.25000   0.38264   0.00000  Uiso   1.00
N1009  N     0.04349   0.09537   0.47520   0.00000  Uiso   1.00
N1010  N     0.20396   0.35139   0.45279   0.00000  Uiso   1.00
N1011  N     0.29634   0.15010   0.53790   0.00000  Uiso   1.00
N1012  N     0.38137   0.04200   0.44310   0.00000  Uiso   1.00
N1013  N     0.11412   0.45977   0.54705   0.00000  Uiso   1.00
N1014  N     0.38901   0.46489   0.53308   0.00000  Uiso   1.00
N1015  N     0.11389   0.03822   0.45270   0.00000  Uiso   1.00
N1016  N     0.18896   0.13878   0.56509   0.00000  Uiso   1.00
N1017  N     0.29451   0.34356   0.47585   0.00000  Uiso   1.00
N1018  N     0.25000  -0.00000   0.61736   0.00000  Uiso   1.00
N1019  N     0.25000  -0.00000   0.38264   0.00000  Uiso   1.00
N1020  N     0.01642   0.17023   0.37601   0.00000  Uiso   1.00
N1021  N     0.02120   0.32882   0.62325   0.00000  Uiso   1.00
N1022  N     0.00394   0.33136   0.38797   0.00000  Uiso   1.00
N1023  N     0.49565   0.16842   0.61282   0.00000  Uiso   1.00
N1024  N     0.25998   0.41954   0.37752   0.00000  Uiso   1.00
O1025  O     0.04508   0.20491   0.53958   0.00000  Uiso   1.00
O1026  O     0.20491   0.04509   0.46042   0.00000  Uiso   1.00
O1027  O     0.20491   0.04509   0.53958   0.00000  Uiso   1.00
O1028  O     0.29508   0.45491   0.46042   0.00000  Uiso   1.00
O1029  O     0.20491   0.45491   0.46042   0.00000  Uiso   1.00
O1030  O     0.29508   0.04509   0.53958   0.00000  Uiso   1.00
O1031  O     0.29508   0.04509   0.46042   0.00000  Uiso   1.00
O1032  O     0.20491   0.45491   0.53958   0.00000  Uiso   1.00
O1033  O     0.45491   0.29509   0.46042   0.00000  Uiso   1.00
O1034  O     0.45491   0.29509   0.53958   0.00000  Uiso   1.00
O1035  O     0.04508   0.20491   0.46042   0.00000  Uiso   1.00
O1036  O     0.45491   0.20491   0.46042   0.00000  Uiso   1.00
O1037  O     0.04508   0.29509   0.53958   0.00000  Uiso   1.00
O1038  O     0.04508   0.29509   0.46042   0.00000  Uiso   1.00
O1039  O     0.45491   0.20491   0.53958   0.00000  Uiso   1.00
O1040  O     0.29508   0.45491   0.53958   0.00000  Uiso   1.00
C1041  C     0.55925   0.19050   0.49939   0.00000  Uiso   1.00
C1042  C     0.50546   0.28959   0.64424   0.00000  Uiso   1.00
C1043  C     0.50115   0.28997   0.36057   0.00000  Uiso   1.00
C1044  C     0.99771   0.21016   0.63971   0.00000  Uiso   1.00
C1045  C     0.75101   0.46026   0.35589   0.00000  Uiso   1.00
C1046  C     0.75558   0.03959   0.64428   0.00000  Uiso   1.00
C1047  C     0.75146   0.03999   0.36061   0.00000  Uiso   1.00
C1048  C     0.74670   0.46023   0.63971   0.00000  Uiso   1.00
C1049  C     0.90952   0.11751   0.46730   0.00000  Uiso   1.00
C1050  C     0.58656   0.38645   0.51909   0.00000  Uiso   1.00
C1051  C     0.63129   0.33008   0.47692   0.00000  Uiso   1.00
C1052  C     0.94115   0.30992   0.50094   0.00000  Uiso   1.00
C1053  C     0.87067   0.16625   0.52512   0.00000  Uiso   1.00
C1054  C     0.62913   0.16681   0.52435   0.00000  Uiso   1.00
C1055  C     0.86987   0.33069   0.47912   0.00000  Uiso   1.00
C1056  C     0.91022   0.38489   0.52694   0.00000  Uiso   1.00
C1057  C     0.58521   0.11173   0.48198   0.00000  Uiso   1.00
C1058  C     0.66401   0.36253   0.47453   0.00000  Uiso   1.00
C1059  C     0.83718   0.13564   0.52262   0.00000  Uiso   1.00
C1060  C     0.87790   0.08416   0.46986   0.00000  Uiso   1.00
C1061  C     0.62007   0.41688   0.52222   0.00000  Uiso   1.00
C1062  C     0.88001   0.41841   0.52064   0.00000  Uiso   1.00
C1063  C     0.94120   0.18987   0.49928   0.00000  Uiso   1.00
C1064  C     0.61916   0.08121   0.47741   0.00000  Uiso   1.00
C1065  C     0.65880   0.13258   0.52960   0.00000  Uiso   1.00
C1066  C     0.83568   0.36072   0.48271   0.00000  Uiso   1.00
C1067  C     0.59307   0.34251   0.49942   0.00000  Uiso   1.00
C1068  C     0.90690   0.15699   0.49759   0.00000  Uiso   1.00
C1069  C     0.90687   0.34249   0.50241   0.00000  Uiso   1.00
C1070  C     0.59240   0.15655   0.49956   0.00000  Uiso   1.00
C1071  C     0.84268   0.09293   0.49935   0.00000  Uiso   1.00
C1072  C     0.65806   0.40576   0.49844   0.00000  Uiso   1.00
C1073  C     0.65588   0.09148   0.50260   0.00000  Uiso   1.00
C1074  C     0.55903   0.30967   0.50019   0.00000  Uiso   1.00
C1075  C     0.84221   0.40614   0.49889   0.00000  Uiso   1.00
C1076  C     0.56021   0.15896   0.36632   0.00000  Uiso   1.00
C1077  C     0.56465   0.33980   0.63363   0.00000  Uiso   1.00
C1078  C     0.97009   0.36382   0.38486   0.00000  Uiso   1.00
C1079  C     0.95987   0.13927   0.62102   0.00000  Uiso   1.00
C1080  C     0.80276   0.40346   0.37016   0.00000  Uiso   1.00
C1081  C     0.81618   0.08672   0.63238   0.00000  Uiso   1.00
C1082  C     0.72146   0.11432   0.38597   0.00000  Uiso   1.00
C1083  C     0.70772   0.38970   0.62031   0.00000  Uiso   1.00
C1084  C     0.96151   0.07313   0.41615   0.00000  Uiso   1.00
C1085  C     0.80839   0.43944   0.49926   0.00000  Uiso   1.00
C1086  C     0.52554   0.42639   0.49577   0.00000  Uiso   1.00
C1087  C     0.62232   0.27056   0.41448   0.00000  Uiso   1.00
C1088  C     0.86818   0.20878   0.60031   0.00000  Uiso   1.00
C1089  C     0.62165   0.22301   0.58986   0.00000  Uiso   1.00
C1090  C     0.86918   0.28402   0.40686   0.00000  Uiso   1.00
C1091  C     0.92551   0.38549   0.60800   0.00000  Uiso   1.00
C1092  C     0.51860   0.09345   0.51759   0.00000  Uiso   1.00
C1093  C     0.70719   0.32273   0.41048   0.00000  Uiso   1.00
C1094  C     0.77458   0.17516   0.50356   0.00000  Uiso   1.00
C1095  C     0.86843   0.04189   0.39512   0.00000  Uiso   1.00
C1096  C     0.69059   0.05932   0.50091   0.00000  Uiso   1.00
C1097  C     0.61497   0.45930   0.59724   0.00000  Uiso   1.00
C1098  C     0.87887   0.48129   0.58011   0.00000  Uiso   1.00
C1099  C     0.61325   0.03967   0.40265   0.00000  Uiso   1.00
C1100  C     0.67334   0.12849   0.61081   0.00000  Uiso   1.00
C1101  C     0.77636   0.32500   0.51721   0.00000  Uiso   1.00
C1102  C     0.69144   0.43969   0.49947   0.00000  Uiso   1.00
C1103  C     0.80889   0.05982   0.50020   0.00000  Uiso   1.00
C1104  C     0.50255   0.21025   0.35571   0.00000  Uiso   1.00
Cu1105 Cu    0.50000   0.25000   0.54689   0.00000  Uiso   1.00
Cu1106 Cu    0.50000   0.25000   0.45311   0.00000  Uiso   1.00
Cu1107 Cu    0.75000  -0.00000   0.54689   0.00000  Uiso   1.00
Cu1108 Cu    0.75000  -0.00000   0.45311   0.00000  Uiso   1.00
H1109  H     0.99734   0.14294   0.36900   0.00000  Uiso   1.00
H1110  H     0.98162   0.39442   0.36776   0.00000  Uiso   1.00
H1111  H     0.95892   0.37470   0.42032   0.00000  Uiso   1.00
H1112  H     0.94318   0.34899   0.36542   0.00000  Uiso   1.00
H1113  H     0.52387   0.15156   0.60827   0.00000  Uiso   1.00
H1114  H     0.97047   0.10680   0.63500   0.00000  Uiso   1.00
H1115  H     0.94395   0.13103   0.58775   0.00000  Uiso   1.00
H1116  H     0.93672   0.15572   0.64580   0.00000  Uiso   1.00
H1117  H     0.73795   0.39512   0.37053   0.00000  Uiso   1.00
H1118  H     0.80868   0.39187   0.33355   0.00000  Uiso   1.00
H1119  H     0.80844   0.37415   0.39163   0.00000  Uiso   1.00
H1120  H     0.56290   0.13156   0.33849   0.00000  Uiso   1.00
H1121  H     0.82559   0.43068   0.37988   0.00000  Uiso   1.00
H1122  H     0.75421   0.10751   0.62903   0.00000  Uiso   1.00
H1123  H     0.82005   0.11533   0.65854   0.00000  Uiso   1.00
H1124  H     0.83257   0.09592   0.60038   0.00000  Uiso   1.00
H1125  H     0.83207   0.05591   0.64419   0.00000  Uiso   1.00
H1126  H     0.78462   0.09498   0.39038   0.00000  Uiso   1.00
H1127  H     0.73291   0.14470   0.36839   0.00000  Uiso   1.00
H1128  H     0.71128   0.12542   0.42171   0.00000  Uiso   1.00
H1129  H     0.69390   0.09992   0.36750   0.00000  Uiso   1.00
H1130  H     0.77155   0.40237   0.60486   0.00000  Uiso   1.00
H1131  H     0.57465   0.14645   0.39780   0.00000  Uiso   1.00
H1132  H     0.71809   0.35759   0.63520   0.00000  Uiso   1.00
H1133  H     0.69271   0.38070   0.58668   0.00000  Uiso   1.00
H1134  H     0.68398   0.40670   0.64397   0.00000  Uiso   1.00
H1135  H     0.93441   0.13642   0.40471   0.00000  Uiso   1.00
H1136  H     0.96058   0.04786   0.44336   0.00000  Uiso   1.00
H1137  H     0.94787   0.05910   0.38348   0.00000  Uiso   1.00
H1138  H     0.99448   0.07988   0.40689   0.00000  Uiso   1.00
H1139  H     0.54289   0.41824   0.56380   0.00000  Uiso   1.00
H1140  H     0.99351   0.43726   0.50706   0.00000  Uiso   1.00
H1141  H     0.52318   0.40457   0.46337   0.00000  Uiso   1.00
H1142  H     0.57854   0.18890   0.35561   0.00000  Uiso   1.00
H1143  H     0.54389   0.45741   0.48858   0.00000  Uiso   1.00
H1144  H     0.66349   0.26754   0.47156   0.00000  Uiso   1.00
H1145  H     0.60782   0.29959   0.39742   0.00000  Uiso   1.00
H1146  H     0.64822   0.25637   0.39205   0.00000  Uiso   1.00
H1147  H     0.59901   0.24317   0.41692   0.00000  Uiso   1.00
H1148  H     0.87851   0.23704   0.53604   0.00000  Uiso   1.00
H1149  H     0.89878   0.22325   0.61152   0.00000  Uiso   1.00
H1150  H     0.86520   0.17392   0.61298   0.00000  Uiso   1.00
H1151  H     0.84264   0.23014   0.61648   0.00000  Uiso   1.00
H1152  H     0.66738   0.22270   0.53780   0.00000  Uiso   1.00
H1153  H     0.50198   0.35674   0.62718   0.00000  Uiso   1.00
H1154  H     0.64818   0.22488   0.61441   0.00000  Uiso   1.00
H1155  H     0.59860   0.19772   0.60188   0.00000  Uiso   1.00
H1156  H     0.60617   0.25675   0.59070   0.00000  Uiso   1.00
H1157  H     0.84186   0.26683   0.46992   0.00000  Uiso   1.00
H1158  H     0.89223   0.25718   0.39569   0.00000  Uiso   1.00
H1159  H     0.87979   0.31676   0.39321   0.00000  Uiso   1.00
H1160  H     0.83833   0.27518   0.39144   0.00000  Uiso   1.00
H1161  H     0.96960   0.37788   0.55457   0.00000  Uiso   1.00
H1162  H     0.89197   0.39518   0.61285   0.00000  Uiso   1.00
H1163  H     0.94385   0.40662   0.63323   0.00000  Uiso   1.00
H1164  H     0.58054   0.31233   0.65183   0.00000  Uiso   1.00
H1165  H     0.92841   0.34897   0.61530   0.00000  Uiso   1.00
H1166  H     0.54213   0.06471   0.45654   0.00000  Uiso   1.00
H1167  H     0.53756   0.08057   0.54622   0.00000  Uiso   1.00
H1168  H     0.99150   0.07028   0.51229   0.00000  Uiso   1.00
H1169  H     0.50575   0.12741   0.52766   0.00000  Uiso   1.00
H1170  H     0.72648   0.37623   0.45441   0.00000  Uiso   1.00
H1171  H     0.70815   0.28653   0.41853   0.00000  Uiso   1.00
H1172  H     0.68216   0.33099   0.38590   0.00000  Uiso   1.00
H1173  H     0.73804   0.32728   0.39317   0.00000  Uiso   1.00
H1174  H     0.79548   0.16676   0.57020   0.00000  Uiso   1.00
H1175  H     0.56634   0.37184   0.65561   0.00000  Uiso   1.00
H1176  H     0.74370   0.18722   0.51750   0.00000  Uiso   1.00
H1177  H     0.76952   0.15304   0.47182   0.00000  Uiso   1.00
H1178  H     0.79292   0.20555   0.49434   0.00000  Uiso   1.00
H1179  H     0.87221   0.01342   0.45972   0.00000  Uiso   1.00
H1180  H     0.87101   0.07632   0.38128   0.00000  Uiso   1.00
H1181  H     0.88847   0.01786   0.37371   0.00000  Uiso   1.00
H1182  H     0.83593   0.02934   0.39141   0.00000  Uiso   1.00
H1183  H     0.62908   0.48747   0.53423   0.00000  Uiso   1.00
H1184  H     0.64486   0.47422   0.61019   0.00000  Uiso   1.00
H1185  H     0.61203   0.42432   0.60957   0.00000  Uiso   1.00
H1186  H     0.58244   0.34479   0.60113   0.00000  Uiso   1.00
H1187  H     0.58850   0.48009   0.61217   0.00000  Uiso   1.00
H1188  H     0.91827   0.47530   0.52211   0.00000  Uiso   1.00
H1189  H     0.90712   0.47997   0.60208   0.00000  Uiso   1.00
H1190  H     0.85335   0.46129   0.59590   0.00000  Uiso   1.00
H1191  H     0.86868   0.01722   0.57956   0.00000  Uiso   1.00
H1192  H     0.63169   0.01164   0.46324   0.00000  Uiso   1.00
H1193  H     0.64498   0.04757   0.38908   0.00000  Uiso   1.00
H1194  H     0.59046   0.06535   0.39163   0.00000  Uiso   1.00
H1195  H     0.60372   0.00593   0.38740   0.00000  Uiso   1.00
H1196  H     0.71833   0.12559   0.55766   0.00000  Uiso   1.00
H1197  H     0.53347   0.34544   0.39014   0.00000  Uiso   1.00
H1198  H     0.63874   0.13257   0.61423   0.00000  Uiso   1.00
H1199  H     0.68799   0.15206   0.63694   0.00000  Uiso   1.00
H1200  H     0.68090   0.09277   0.61802   0.00000  Uiso   1.00
H1201  H     0.79223   0.32102   0.44752   0.00000  Uiso   1.00
H1202  H     0.79830   0.30080   0.53268   0.00000  Uiso   1.00
H1203  H     0.74709   0.30622   0.50870   0.00000  Uiso   1.00
H1204  H     0.76858   0.35290   0.54298   0.00000  Uiso   1.00
N1205  N     0.50000   0.25000   0.61736   0.00000  Uiso   1.00
N1206  N     0.77200   0.07857   0.62345   0.00000  Uiso   1.00
N1207  N     0.75496   0.08131   0.38809   0.00000  Uiso   1.00
N1208  N     0.74361   0.41874   0.61258   0.00000  Uiso   1.00
N1209  N     0.94090   0.11543   0.43121   0.00000  Uiso   1.00
N1210  N     0.54523   0.40144   0.53162   0.00000  Uiso   1.00
N1211  N     0.63712   0.28386   0.46062   0.00000  Uiso   1.00
N1212  N     0.86517   0.20900   0.55027   0.00000  Uiso   1.00
N1213  N     0.63700   0.21179   0.54307   0.00000  Uiso   1.00
N1214  N     0.86567   0.28646   0.45709   0.00000  Uiso   1.00
N1215  N     0.94093   0.39299   0.56149   0.00000  Uiso   1.00
N1216  N     0.50000   0.25000   0.38264   0.00000  Uiso   1.00
N1217  N     0.54349   0.09537   0.47520   0.00000  Uiso   1.00
N1218  N     0.70396   0.35139   0.45279   0.00000  Uiso   1.00
N1219  N     0.79634   0.15010   0.53790   0.00000  Uiso   1.00
N1220  N     0.88137   0.04200   0.44310   0.00000  Uiso   1.00
N1221  N     0.61412   0.45977   0.54705   0.00000  Uiso   1.00
N1222  N     0.88901   0.46489   0.53308   0.00000  Uiso   1.00
N1223  N     0.61389   0.03822   0.45270   0.00000  Uiso   1.00
N1224  N     0.68896   0.13878   0.56509   0.00000  Uiso   1.00
N1225  N     0.79451   0.34356   0.47585   0.00000  Uiso   1.00
N1226  N     0.75000  -0.00000   0.61736   0.00000  Uiso   1.00
N1227  N     0.75000  -0.00000   0.38264   0.00000  Uiso   1.00
N1228  N     0.51642   0.17023   0.37601   0.00000  Uiso   1.00
N1229  N     0.52120   0.32882   0.62325   0.00000  Uiso   1.00
N1230  N     0.50394   0.33136   0.38797   0.00000  Uiso   1.00
N1231  N     0.99565   0.16842   0.61282   0.00000  Uiso   1.00
N1232  N     0.75998   0.41954   0.37752   0.00000  Uiso   1.00
O1233  O     0.54508   0.20491   0.53958   0.00000  Uiso   1.00
O1234  O     0.70491   0.04509   0.46042   0.00000  Uiso   1.00
O1235  O     0.70491   0.04509   0.53958   0.00000  Uiso   1.00
O1236  O     0.79508   0.45491   0.46042   0.00000  Uiso   1.00
O1237  O     0.70491   0.45491   0.46042   0.00000  Uiso   1.00
O1238  O     0.79508   0.04509   0.53958   0.00000  Uiso   1.00
O1239  O     0.79508   0.04509   0.46042   0.00000  Uiso   1.00
O1240  O     0.70491   0.45491   0.53958   0.00000  Uiso   1.00
O1241  O     0.95491   0.29509   0.46042   0.00000  Uiso   1.00
O1242  O     0.95491   0.29509   0.53958   0.00000  Uiso   1.00
O1243  O     0.54508   0.20491   0.46042   0.00000  Uiso   1.00
O1244  O     0.95491   0.20491   0.46042   0.00000  Uiso   1.00
O1245  O     0.54508   0.29509   0.53958   0.00000  Uiso   1.00
O1246  O     0.54508   0.29509   0.46042   0.00000  Uiso   1.00
O1247  O     0.95491   0.20491   0.53958   0.00000  Uiso   1.00
O1248  O     0.79508   0.45491   0.53958   0.00000  Uiso   1.00
C1249  C     0.05925   0.69050   0.49939   0.00000  Uiso   1.00
C1250  C     0.00546   0.78959   0.64424   0.00000  Uiso   1.00
C1251  C     0.00115   0.78997   0.36057   0.00000  Uiso   1.00
C1252  C     0.49771   0.71016   0.63971   0.00000  Uiso   1.00
C1253  C     0.25101   0.96026   0.35589   0.00000  Uiso   1.00
C1254  C     0.25558   0.53959   0.64428   0.00000  Uiso   1.00
C1255  C     0.25146   0.53999   0.36061   0.00000  Uiso   1.00
C1256  C     0.24670   0.96023   0.63971   0.00000  Uiso   1.00
C1257  C     0.40952   0.61751   0.46730   0.00000  Uiso   1.00
C1258  C     0.08656   0.88645   0.51909   0.00000  Uiso   1.00
C1259  C     0.13129   0.83008   0.47692   0.00000  Uiso   1.00
C1260  C     0.44115   0.80992   0.50094   0.00000  Uiso   1.00
C1261  C     0.37067   0.66625   0.52512   0.00000  Uiso   1.00
C1262  C     0.12913   0.66681   0.52435   0.00000  Uiso   1.00
C1263  C     0.36987   0.83069   0.47912   0.00000  Uiso   1.00
C1264  C     0.41022   0.88489   0.52694   0.00000  Uiso   1.00
C1265  C     0.08521   0.61173   0.48198   0.00000  Uiso   1.00
C1266  C     0.16401   0.86253   0.47453   0.00000  Uiso   1.00
C1267  C     0.33718   0.63564   0.52262   0.00000  Uiso   1.00
C1268  C     0.37790   0.58416   0.46986   0.00000  Uiso   1.00
C1269  C     0.12007   0.91688   0.52222   0.00000  Uiso   1.00
C1270  C     0.38001   0.91841   0.52064   0.00000  Uiso   1.00
C1271  C     0.44120   0.68987   0.49928   0.00000  Uiso   1.00
C1272  C     0.11916   0.58121   0.47741   0.00000  Uiso   1.00
C1273  C     0.15880   0.63258   0.52960   0.00000  Uiso   1.00
C1274  C     0.33568   0.86072   0.48271   0.00000  Uiso   1.00
C1275  C     0.09307   0.84251   0.49942   0.00000  Uiso   1.00
C1276  C     0.40690   0.65699   0.49759   0.00000  Uiso   1.00
C1277  C     0.40687   0.84249   0.50241   0.00000  Uiso   1.00
C1278  C     0.09240   0.65655   0.49956   0.00000  Uiso   1.00
C1279  C     0.34268   0.59293   0.49935   0.00000  Uiso   1.00
C1280  C     0.15806   0.90576   0.49844   0.00000  Uiso   1.00
C1281  C     0.15588   0.59148   0.50260   0.00000  Uiso   1.00
C1282  C     0.05903   0.80967   0.50019   0.00000  Uiso   1.00
C1283  C     0.34221   0.90614   0.49889   0.00000  Uiso   1.00
C1284  C     0.06021   0.65896   0.36632   0.00000  Uiso   1.00
C1285  C     0.06465   0.83980   0.63363   0.00000  Uiso   1.00
C1286  C     0.47009   0.86382   0.38486   0.00000  Uiso   1.00
C1287  C     0.45987   0.63927   0.62102   0.00000  Uiso   1.00
C1288  C     0.30276   0.90346   0.37016   0.00000  Uiso   1.00
C1289  C     0.31618   0.58672   0.63238   0.00000  Uiso   1.00
C1290  C     0.22146   0.61432   0.38597   0.00000  Uiso   1.00
C1291  C     0.20772   0.88970   0.62031   0.00000  Uiso   1.00
C1292  C     0.46151   0.57313   0.41615   0.00000  Uiso   1.00
C1293  C     0.30839   0.93944   0.49926   0.00000  Uiso   1.00
C1294  C     0.02554   0.92639   0.49577   0.00000  Uiso   1.00
C1295  C     0.12232   0.77056   0.41448   0.00000  Uiso   1.00
C1296  C     0.36818   0.70878   0.60031   0.00000  Uiso   1.00
C1297  C     0.12165   0.72301   0.58986   0.00000  Uiso   1.00
C1298  C     0.36918   0.78402   0.40686   0.00000  Uiso   1.00
C1299  C     0.42551   0.88549   0.60800   0.00000  Uiso   1.00
C1300  C     0.01860   0.59345   0.51759   0.00000  Uiso   1.00
C1301  C     0.20719   0.82273   0.41048   0.00000  Uiso   1.00
C1302  C     0.27458   0.67516   0.50356   0.00000  Uiso   1.00
C1303  C     0.36843   0.54189   0.39512   0.00000  Uiso   1.00
C1304  C     0.19059   0.55932   0.50091   0.00000  Uiso   1.00
C1305  C     0.11497   0.95930   0.59724   0.00000  Uiso   1.00
C1306  C     0.37887   0.98129   0.58011   0.00000  Uiso   1.00
C1307  C     0.11325   0.53967   0.40265   0.00000  Uiso   1.00
C1308  C     0.17334   0.62849   0.61081   0.00000  Uiso   1.00
C1309  C     0.27636   0.82500   0.51721   0.00000  Uiso   1.00
C1310  C     0.19144   0.93969   0.49947   0.00000  Uiso   1.00
C1311  C     0.30889   0.55982   0.50020   0.00000  Uiso   1.00
C1312  C     0.00255   0.71025   0.35571   0.00000  Uiso   1.00
Cu1313 Cu    0.00000   0.75000   0.54689   0.00000  Uiso   1.00
Cu1314 Cu    0.00000   0.75000   0.45311   0.00000  Uiso   1.00
Cu1315 Cu    0.25000   0.50000   0.54689   0.00000  Uiso   1.00
Cu1316 Cu    0.25000   0.50000   0.45311   0.00000  Uiso   1.00
H1317  H     0.49734   0.64294   0.36900   0.00000  Uiso   1.00
H1318  H     0.48162   0.89442   0.36776   0.00000  Uiso   1.00
H1319  H     0.45892   0.87470   0.42032   0.00000  Uiso   1.00
H1320  H     0.44318   0.84899   0.36542   0.00000  Uiso   1.00
H1321  H     0.02387   0.65156   0.60827   0.00000  Uiso   1.00
H1322  H     0.47047   0.60680   0.63500   0.00000  Uiso   1.00
H1323  H     0.44395   0.63103   0.58775   0.00000  Uiso   1.00
H1324  H     0.43672   0.65572   0.64580   0.00000  Uiso   1.00
H1325  H     0.23795   0.89512   0.37053   0.00000  Uiso   1.00
H1326  H     0.30868   0.89187   0.33355   0.00000  Uiso   1.00
H1327  H     0.30844   0.87415   0.39163   0.00000  Uiso   1.00
H1328  H     0.06290   0.63156   0.33849   0.00000  Uiso   1.00
H1329  H     0.32559   0.93068   0.37988   0.00000  Uiso   1.00
H1330  H     0.25421   0.60751   0.62903   0.00000  Uiso   1.00
H1331  H     0.32005   0.61533   0.65854   0.00000  Uiso   1.00
H1332  H     0.33257   0.59592   0.60038   0.00000  Uiso   1.00
H1333  H     0.33207   0.55591   0.64419   0.00000  Uiso   1.00
H1334  H     0.28462   0.59498   0.39038   0.00000  Uiso   1.00
H1335  H     0.23291   0.64470   0.36839   0.00000  Uiso   1.00
H1336  H     0.21128   0.62542   0.42171   0.00000  Uiso   1.00
H1337  H     0.19390   0.59992   0.36750   0.00000  Uiso   1.00
H1338  H     0.27155   0.90237   0.60486   0.00000  Uiso   1.00
H1339  H     0.07465   0.64645   0.39780   0.00000  Uiso   1.00
H1340  H     0.21809   0.85759   0.63520   0.00000  Uiso   1.00
H1341  H     0.19271   0.88070   0.58668   0.00000  Uiso   1.00
H1342  H     0.18398   0.90670   0.64397   0.00000  Uiso   1.00
H1343  H     0.43441   0.63642   0.40471   0.00000  Uiso   1.00
H1344  H     0.46058   0.54786   0.44336   0.00000  Uiso   1.00
H1345  H     0.44787   0.55910   0.38348   0.00000  Uiso   1.00
H1346  H     0.49448   0.57988   0.40689   0.00000  Uiso   1.00
H1347  H     0.04289   0.91824   0.56380   0.00000  Uiso   1.00
H1348  H     0.49351   0.93726   0.50706   0.00000  Uiso   1.00
H1349  H     0.02318   0.90457   0.46337   0.00000  Uiso   1.00
H1350  H     0.07854   0.68890   0.35561   0.00000  Uiso   1.00
H1351  H     0.04389   0.95741   0.48858   0.00000  Uiso   1.00
H1352  H     0.16349   0.76754   0.47156   0.00000  Uiso   1.00
H1353  H     0.10782   0.79959   0.39742   0.00000  Uiso   1.00
H1354  H     0.14822   0.75637   0.39205   0.00000  Uiso   1.00
H1355  H     0.09901   0.74317   0.41692   0.00000  Uiso   1.00
H1356  H     0.37851   0.73704   0.53604   0.00000  Uiso   1.00
H1357  H     0.39878   0.72325   0.61152   0.00000  Uiso   1.00
H1358  H     0.36520   0.67392   0.61298   0.00000  Uiso   1.00
H1359  H     0.34264   0.73014   0.61648   0.00000  Uiso   1.00
H1360  H     0.16738   0.72270   0.53780   0.00000  Uiso   1.00
H1361  H     0.00198   0.85674   0.62718   0.00000  Uiso   1.00
H1362  H     0.14818   0.72488   0.61441   0.00000  Uiso   1.00
H1363  H     0.09860   0.69772   0.60188   0.00000  Uiso   1.00
H1364  H     0.10617   0.75675   0.59070   0.00000  Uiso   1.00
H1365  H     0.34186   0.76683   0.46992   0.00000  Uiso   1.00
H1366  H     0.39223   0.75718   0.39569   0.00000  Uiso   1.00
H1367  H     0.37979   0.81676   0.39321   0.00000  Uiso   1.00
H1368  H     0.33833   0.77518   0.39144   0.00000  Uiso   1.00
H1369  H     0.46960   0.87788   0.55457   0.00000  Uiso   1.00
H1370  H     0.39197   0.89518   0.61285   0.00000  Uiso   1.00
H1371  H     0.44385   0.90662   0.63323   0.00000  Uiso   1.00
H1372  H     0.08054   0.81233   0.65183   0.00000  Uiso   1.00
H1373  H     0.42841   0.84897   0.61530   0.00000  Uiso   1.00
H1374  H     0.04213   0.56471   0.45654   0.00000  Uiso   1.00
H1375  H     0.03756   0.58057   0.54622   0.00000  Uiso   1.00
H1376  H     0.49150   0.57028   0.51229   0.00000  Uiso   1.00
H1377  H     0.00575   0.62741   0.52766   0.00000  Uiso   1.00
H1378  H     0.22648   0.87623   0.45441   0.00000  Uiso   1.00
H1379  H     0.20815   0.78653   0.41853   0.00000  Uiso   1.00
H1380  H     0.18216   0.83099   0.38590   0.00000  Uiso   1.00
H1381  H     0.23804   0.82728   0.39317   0.00000  Uiso   1.00
H1382  H     0.29548   0.66676   0.57020   0.00000  Uiso   1.00
H1383  H     0.06634   0.87184   0.65561   0.00000  Uiso   1.00
H1384  H     0.24370   0.68722   0.51750   0.00000  Uiso   1.00
H1385  H     0.26952   0.65304   0.47182   0.00000  Uiso   1.00
H1386  H     0.29292   0.70555   0.49434   0.00000  Uiso   1.00
H1387  H     0.37221   0.51342   0.45972   0.00000  Uiso   1.00
H1388  H     0.37101   0.57632   0.38128   0.00000  Uiso   1.00
H1389  H     0.38847   0.51786   0.37371   0.00000  Uiso   1.00
H1390  H     0.33593   0.52934   0.39141   0.00000  Uiso   1.00
H1391  H     0.12908   0.98747   0.53423   0.00000  Uiso   1.00
H1392  H     0.14486   0.97422   0.61019   0.00000  Uiso   1.00
H1393  H     0.11203   0.92432   0.60957   0.00000  Uiso   1.00
H1394  H     0.08244   0.84479   0.60113   0.00000  Uiso   1.00
H1395  H     0.08850   0.98009   0.61217   0.00000  Uiso   1.00
H1396  H     0.41827   0.97530   0.52211   0.00000  Uiso   1.00
H1397  H     0.40712   0.97997   0.60208   0.00000  Uiso   1.00
H1398  H     0.35335   0.96129   0.59590   0.00000  Uiso   1.00
H1399  H     0.36868   0.51722   0.57956   0.00000  Uiso   1.00
H1400  H     0.13169   0.51164   0.46324   0.00000  Uiso   1.00
H1401  H     0.14498   0.54757   0.38908   0.00000  Uiso   1.00
H1402  H     0.09046   0.56535   0.39163   0.00000  Uiso   1.00
H1403  H     0.10372   0.50593   0.38740   0.00000  Uiso   1.00
H1404  H     0.21833   0.62559   0.55766   0.00000  Uiso   1.00
H1405  H     0.03347   0.84544   0.39014   0.00000  Uiso   1.00
H1406  H     0.13874   0.63257   0.61423   0.00000  Uiso   1.00
H1407  H     0.18799   0.65206   0.63694   0.00000  Uiso   1.00
H1408  H     0.18090   0.59277   0.61802   0.00000  Uiso   1.00
H1409  H     0.29223   0.82102   0.44752   0.00000  Uiso   1.00
H1410  H     0.29830   0.80080   0.53268   0.00000  Uiso   1.00
H1411  H     0.24709   0.80622   0.50870   0.00000  Uiso   1.00
H1412  H     0.26858   0.85290   0.54298   0.00000  Uiso   1.00
N1413  N     0.00000   0.75000   0.61736   0.00000  Uiso   1.00
N1414  N     0.27200   0.57857   0.62345   0.00000  Uiso   1.00
N1415  N     0.25496   0.58131   0.38809   0.00000  Uiso   1.00
N1416  N     0.24361   0.91874   0.61258   0.00000  Uiso   1.00
N1417  N     0.44090   0.61543   0.43121   0.00000  Uiso   1.00
N1418  N     0.04523   0.90144   0.53162   0.00000  Uiso   1.00
N1419  N     0.13712   0.78386   0.46062   0.00000  Uiso   1.00
N1420  N     0.36517   0.70900   0.55027   0.00000  Uiso   1.00
N1421  N     0.13700   0.71179   0.54307   0.00000  Uiso   1.00
N1422  N     0.36567   0.78646   0.45709   0.00000  Uiso   1.00
N1423  N     0.44093   0.89299   0.56149   0.00000  Uiso   1.00
N1424  N     0.00000   0.75000   0.38264   0.00000  Uiso   1.00
N1425  N     0.04349   0.59537   0.47520   0.00000  Uiso   1.00
N1426  N     0.20396   0.85139   0.45279   0.00000  Uiso   1.00
N1427  N     0.29634   0.65010   0.53790   0.00000  Uiso   1.00
N1428  N     0.38137   0.54200   0.44310   0.00000  Uiso   1.00
N1429  N     0.11412   0.95977   0.54705   0.00000  Uiso   1.00
N1430  N     0.38901   0.96489   0.53308   0.00000  Uiso   1.00
N1431  N     0.11389   0.53822   0.45270   0.00000  Uiso   1.00
N1432  N     0.18896   0.63878   0.56509   0.00000  Uiso   1.00
N1433  N     0.29451   0.84356   0.47585   0.00000  Uiso   1.00
N1434  N     0.25000   0.50000   0.61736   0.00000  Uiso   1.00
N1435  N     0.25000   0.50000   0.38264   0.00000  Uiso   1.00
N1436  N     0.01642   0.67023   0.37601   0.00000  Uiso   1.00
N1437  N     0.02120   0.82882   0.62325   0.00000  Uiso   1.00
N1438  N     0.00394   0.83136   0.38797   0.00000  Uiso   1.00
N1439  N     0.49565   0.66842   0.61282   0.00000  Uiso   1.00
N1440  N     0.25998   0.91954   0.37752   0.00000  Uiso   1.00
O1441  O     0.04508   0.70491   0.53958   0.00000  Uiso   1.00
O1442  O     0.20491   0.54509   0.46042   0.00000  Uiso   1.00
O1443  O     0.20491   0.54509   0.53958   0.00000  Uiso   1.00
O1444  O     0.29508   0.95491   0.46042   0.00000  Uiso   1.00
O1445  O     0.20491   0.95491   0.46042   0.00000  Uiso   1.00
O1446  O     0.29508   0.54509   0.53958   0.00000  Uiso   1.00
O1447  O     0.29508   0.54509   0.46042   0.00000  Uiso   1.00
O1448  O     0.20491   0.95491   0.53958   0.00000  Uiso   1.00
O1449  O     0.45491   0.79509   0.46042   0.00000  Uiso   1.00
O1450  O     0.45491   0.79509   0.53958   0.00000  Uiso   1.00
O1451  O     0.04508   0.70491   0.46042   0.00000  Uiso   1.00
O1452  O     0.45491   0.70491   0.46042   0.00000  Uiso   1.00
O1453  O     0.04508   0.79509   0.53958   0.00000  Uiso   1.00
O1454  O     0.04508   0.79509   0.46042   0.00000  Uiso   1.00
O1455  O     0.45491   0.70491   0.53958   0.00000  Uiso   1.00
O1456  O     0.29508   0.95491   0.53958   0.00000  Uiso   1.00
C1457  C     0.55925   0.69050   0.49939   0.00000  Uiso   1.00
C1458  C     0.50546   0.78959   0.64424   0.00000  Uiso   1.00
C1459  C     0.50115   0.78997   0.36057   0.00000  Uiso   1.00
C1460  C     0.99771   0.71016   0.63971   0.00000  Uiso   1.00
C1461  C     0.75101   0.96026   0.35589   0.00000  Uiso   1.00
C1462  C     0.75558   0.53959   0.64428   0.00000  Uiso   1.00
C1463  C     0.75146   0.53999   0.36061   0.00000  Uiso   1.00
C1464  C     0.74670   0.96023   0.63971   0.00000  Uiso   1.00
C1465  C     0.90952   0.61751   0.46730   0.00000  Uiso   1.00
C1466  C     0.58656   0.88645   0.51909   0.00000  Uiso   1.00
C1467  C     0.63129   0.83008   0.47692   0.00000  Uiso   1.00
C1468  C     0.94115   0.80992   0.50094   0.00000  Uiso   1.00
C1469  C     0.87067   0.66625   0.52512   0.00000  Uiso   1.00
C1470  C     0.62913   0.66681   0.52435   0.00000  Uiso   1.00
C1471  C     0.86987   0.83069   0.47912   0.00000  Uiso   1.00
C1472  C     0.91022   0.88489   0.52694   0.00000  Uiso   1.00
C1473  C     0.58521   0.61173   0.48198   0.00000  Uiso   1.00
C1474  C     0.66401   0.86253   0.47453   0.00000  Uiso   1.00
C1475  C     0.83718   0.63564   0.52262   0.00000  Uiso   1.00
C1476  C     0.87790   0.58416   0.46986   0.00000  Uiso   1.00
C1477  C     0.62007   0.91688   0.52222   0.00000  Uiso   1.00
C1478  C     0.88001   0.91841   0.52064   0.00000  Uiso   1.00
C1479  C     0.94120   0.68987   0.49928   0.00000  Uiso   1.00
C1480  C     0.61916   0.58121   0.47741   0.00000  Uiso   1.00
C1481  C     0.65880   0.63258   0.52960   0.00000  Uiso   1.00
C1482  C     0.83568   0.86072   0.48271   0.00000  Uiso   1.00
C1483  C     0.59307   0.84251   0.49942   0.00000  Uiso   1.00
C1484  C     0.90690   0.65699   0.49759   0.00000  Uiso   1.00
C1485  C     0.90687   0.84249   0.50241   0.00000  Uiso   1.00
C1486  C     0.59240   0.65655   0.49956   0.00000  Uiso   1.00
C1487  C     0.84268   0.59293   0.49935   0.00000  Uiso   1.00
C1488  C     0.65806   0.90576   0.49844   0.00000  Uiso   1.00
C1489  C     0.65588   0.59148   0.50260   0.00000  Uiso   1.00
C1490  C     0.55903   0.80967   0.50019   0.00000  Uiso   1.00
C1491  C     0.84221   0.90614   0.49889   0.00000  Uiso   1.00
C1492  C     0.56021   0.65896   0.36632   0.00000  Uiso   1.00
C1493  C     0.56465   0.83980   0.63363   0.00000  Uiso   1.00
C1494  C     0.97009   0.86382   0.38486   0.00000  Uiso   1.00
C1495  C     0.95987   0.63927   0.62102   0.00000  Uiso   1.00
C1496  C     0.80276   0.90346   0.37016   0.00000  Uiso   1.00
C1497  C     0.81618   0.58672   0.63238   0.00000  Uiso   1.00
C1498  C     0.72146   0.61432   0.38597   0.00000  Uiso   1.00
C1499  C     0.70772   0.88970   0.62031   0.00000  Uiso   1.00
C1500  C     0.96151   0.57313   0.41615   0.00000  Uiso   1.00
C1501  C     0.80839   0.93944   0.49926   0.00000  Uiso   1.00
C1502  C     0.52554   0.92639   0.49577   0.00000  Uiso   1.00
C1503  C     0.62232   0.77056   0.41448   0.00000  Uiso   1.00
C1504  C     0.86818   0.70878   0.60031   0.00000  Uiso   1.00
C1505  C     0.62165   0.72301   0.58986   0.00000  Uiso   1.00
C1506  C     0.86918   0.78402   0.40686   0.00000  Uiso   1.00
C1507  C     0.92551   0.88549   0.60800   0.00000  Uiso   1.00
C1508  C     0.51860   0.59345   0.51759   0.00000  Uiso   1.00
C1509  C     0.70719   0.82273   0.41048   0.00000  Uiso   1.00
C1510  C     0.77458   0.67516   0.50356   0.00000  Uiso   1.00
C1511  C     0.86843   0.54189   0.39512   0.00000  Uiso   1.00
C1512  C     0.69059   0.55932   0.50091   0.00000  Uiso   1.00
C1513  C     0.61497   0.95930   0.59724   0.00000  Uiso   1.00
C1514  C     0.87887   0.98129   0.58011   0.00000  Uiso   1.00
C1515  C     0.61325   0.53967   0.40265   0.00000  Uiso   1.00
C1516  C     0.67334   0.62849   0.61081   0.00000  Uiso   1.00
C1517  C     0.77636   0.82500   0.51721   0.00000  Uiso   1.00
C1518  C     0.69144   0.93969   0.49947   0.00000  Uiso   1.00
C1519  C     0.80889   0.55982   0.50020   0.00000  Uiso   1.00
C1520  C     0.50255   0.71025   0.35571   0.00000  Uiso   1.00
Cu1521 Cu    0.50000   0.75000   0.54689   0.00000  Uiso   1.00
Cu1522 Cu    0.50000   0.75000   0.45311   0.00000  Uiso   1.00
Cu1523 Cu    0.75000   0.50000   0.54689   0.00000  Uiso   1.00
Cu1524 Cu    0.75000   0.50000   0.45311   0.00000  Uiso   1.00
H1525  H     0.99734   0.64294   0.36900   0.00000  Uiso   1.00
H1526  H     0.98162   0.89442   0.36776   0.00000  Uiso   1.00
H1527  H     0.95892   0.87470   0.42032   0.00000  Uiso   1.00
H1528  H     0.94318   0.84899   0.36542   0.00000  Uiso   1.00
H1529  H     0.52387   0.65156   0.60827   0.00000  Uiso   1.00
H1530  H     0.97047   0.60680   0.63500   0.00000  Uiso   1.00
H1531  H     0.94395   0.63103   0.58775   0.00000  Uiso   1.00
H1532  H     0.93672   0.65572   0.64580   0.00000  Uiso   1.00
H1533  H     0.73795   0.89512   0.37053   0.00000  Uiso   1.00
H1534  H     0.80868   0.89187   0.33355   0.00000  Uiso   1.00
H1535  H     0.80844   0.87415   0.39163   0.00000  Uiso   1.00
H1536  H     0.56290   0.63156   0.33849   0.00000  Uiso   1.00
H1537  H     0.82559   0.93068   0.37988   0.00000  Uiso   1.00
H1538  H     0.75421   0.60751   0.62903   0.00000  Uiso   1.00
H1539  H     0.82005   0.61533   0.65854   0.00000  Uiso   1.00
H1540  H     0.83257   0.59592   0.60038   0.00000  Uiso   1.00
H1541  H     0.83207   0.55591   0.64419   0.00000  Uiso   1.00
H1542  H     0.78462   0.59498   0.39038   0.00000  Uiso   1.00
H1543  H     0.73291   0.64470   0.36839   0.00000  Uiso   1.00
H1544  H     0.71128   0.62542   0.42171   0.00000  Uiso   1.00
H1545  H     0.69390   0.59992   0.36750   0.00000  Uiso   1.00
H1546  H     0.77155   0.90237   0.60486   0.00000  Uiso   1.00
H1547  H     0.57465   0.64645   0.39780   0.00000  Uiso   1.00
H1548  H     0.71809   0.85759   0.63520   0.00000  Uiso   1.00
H1549  H     0.69271   0.88070   0.58668   0.00000  Uiso   1.00
H1550  H     0.68398   0.90670   0.64397   0.00000  Uiso   1.00
H1551  H     0.93441   0.63642   0.40471   0.00000  Uiso   1.00
H1552  H     0.96058   0.54786   0.44336   0.00000  Uiso   1.00
H1553  H     0.94787   0.55910   0.38348   0.00000  Uiso   1.00
H1554  H     0.99448   0.57988   0.40689   0.00000  Uiso   1.00
H1555  H     0.54289   0.91824   0.56380   0.00000  Uiso   1.00
H1556  H     0.99351   0.93726   0.50706   0.00000  Uiso   1.00
H1557  H     0.52318   0.90457   0.46337   0.00000  Uiso   1.00
H1558  H     0.57854   0.68890   0.35561   0.00000  Uiso   1.00
H1559  H     0.54389   0.95741   0.48858   0.00000  Uiso   1.00
H1560  H     0.66349   0.76754   0.47156   0.00000  Uiso   1.00
H1561  H     0.60782   0.79959   0.39742   0.00000  Uiso   1.00
H1562  H     0.64822   0.75637   0.39205   0.00000  Uiso   1.00
H1563  H     0.59901   0.74317   0.41692   0.00000  Uiso   1.00
H1564  H     0.87851   0.73704   0.53604   0.00000  Uiso   1.00
H1565  H     0.89878   0.72325   0.61152   0.00000  Uiso   1.00
H1566  H     0.86520   0.67392   0.61298   0.00000  Uiso   1.00
H1567  H     0.84264   0.73014   0.61648   0.00000  Uiso   1.00
H1568  H     0.66738   0.72270   0.53780   0.00000  Uiso   1.00
H1569  H     0.50198   0.85674   0.62718   0.00000  Uiso   1.00
H1570  H     0.64818   0.72488   0.61441   0.00000  Uiso   1.00
H1571  H     0.59860   0.69772   0.60188   0.00000  Uiso   1.00
H1572  H     0.60617   0.75675   0.59070   0.00000  Uiso   1.00
H1573  H     0.84186   0.76683   0.46992   0.00000  Uiso   1.00
H1574  H     0.89223   0.75718   0.39569   0.00000  Uiso   1.00
H1575  H     0.87979   0.81676   0.39321   0.00000  Uiso   1.00
H1576  H     0.83833   0.77518   0.39144   0.00000  Uiso   1.00
H1577  H     0.96960   0.87788   0.55457   0.00000  Uiso   1.00
H1578  H     0.89197   0.89518   0.61285   0.00000  Uiso   1.00
H1579  H     0.94385   0.90662   0.63323   0.00000  Uiso   1.00
H1580  H     0.58054   0.81233   0.65183   0.00000  Uiso   1.00
H1581  H     0.92841   0.84897   0.61530   0.00000  Uiso   1.00
H1582  H     0.54213   0.56471   0.45654   0.00000  Uiso   1.00
H1583  H     0.53756   0.58057   0.54622   0.00000  Uiso   1.00
H1584  H     0.99150   0.57028   0.51229   0.00000  Uiso   1.00
H1585  H     0.50575   0.62741   0.52766   0.00000  Uiso   1.00
H1586  H     0.72648   0.87623   0.45441   0.00000  Uiso   1.00
H1587  H     0.70815   0.78653   0.41853   0.00000  Uiso   1.00
H1588  H     0.68216   0.83099   0.38590   0.00000  Uiso   1.00
H1589  H     0.73804   0.82728   0.39317   0.00000  Uiso   1.00
H1590  H     0.79548   0.66676   0.57020   0.00000  Uiso   1.00
H1591  H     0.56634   0.87184   0.65561   0.00000  Uiso   1.00
H1592  H     0.74370   0.68722   0.51750   0.00000  Uiso   1.00
H1593  H     0.76952   0.65304   0.47182   0.00000  Uiso   1.00
H1594  H     0.79292   0.70555   0.49434   0.00000  Uiso   1.00
H1595  H     0.87221   0.51342   0.45972   0.00000  Uiso   1.00
H1596  H     0.87101   0.57632   0.38128   0.00000  Uiso   1.00
H1597  H     0.88847   0.51786   0.37371   0.00000  Uiso   1.00
H1598  H     0.83593   0.52934   0.39141   0.00000  Uiso   1.00
H1599  H     0.62908   0.98747   0.53423   0.00000  Uiso   1.00
H1600  H     0.64486   0.97422   0.61019   0.00000  Uiso   1.00
H1601  H     0.61203   0.92432   0.60957   0.00000  Uiso   1.00
H1602  H     0.58244   0.84479   0.60113   0.00000  Uiso   1.00
H1603  H     0.58850   0.98009   0.61217   0.00000  Uiso   1.00
H1604  H     0.91827   0.97530   0.52211   0.00000  Uiso   1.00
H1605  H     0.90712   0.97997   0.60208   0.00000  Uiso   1.00
H1606  H     0.85335   0.96129   0.59590   0.00000  Uiso   1.00
H1607  H     0.86868   0.51722   0.57956   0.00000  Uiso   1.00
H1608  H     0.63169   0.51164   0.46324   0.00000  Uiso   1.00
H1609  H     0.64498   0.54757   0.38908   0.00000  Uiso   1.00
H1610  H     0.59046   0.56535   0.39163   0.00000  Uiso   1.00
H1611  H     0.60372   0.50593   0.38740   0.00000  Uiso   1.00
H1612  H     0.71833   0.62559   0.55766   0.00000  Uiso   1.00
H1613  H     0.53347   0.84544   0.39014   0.00000  Uiso   1.00
H1614  H     0.63874   0.63257   0.61423   0.00000  Uiso   1.00
H1615  H     0.68799   0.65206   0.63694   0.00000  Uiso   1.00
H1616  H     0.68090   0.59277   0.61802   0.00000  Uiso   1.00
H1617  H     0.79223   0.82102   0.44752   0.00000  Uiso   1.00
H1618  H     0.79830   0.80080   0.53268   0.00000  Uiso   1.00
H1619  H     0.74709   0.80622   0.50870   0.00000  Uiso   1.00
H1620  H     0.76858   0.85290   0.54298   0.00000  Uiso   1.00
N1621  N     0.50000   0.75000   0.61736   0.00000  Uiso   1.00
N1622  N     0.77200   0.57857   0.62345   0.00000  Uiso   1.00
N1623  N     0.75496   0.58131   0.38809   0.00000  Uiso   1.00
N1624  N     0.74361   0.91874   0.61258   0.00000  Uiso   1.00
N1625  N     0.94090   0.61543   0.43121   0.00000  Uiso   1.00
N1626  N     0.54523   0.90144   0.53162   0.00000  Uiso   1.00
N1627  N     0.63712   0.78386   0.46062   0.00000  Uiso   1.00
N1628  N     0.86517   0.70900   0.55027   0.00000  Uiso   1.00
N1629  N     0.63700   0.71179   0.54307   0.00000  Uiso   1.00
N1630  N     0.86567   0.78646   0.45709   0.00000  Uiso   1.00
N1631  N     0.94093   0.89299   0.56149   0.00000  Uiso   1.00
N1632  N     0.50000   0.75000   0.38264   0.00000  Uiso   1.00
N1633  N     0.54349   0.59537   0.47520   0.00000  Uiso   1.00
N1634  N     0.70396   0.85139   0.45279   0.00000  Uiso   1.00
N1635  N     0.79634   0.65010   0.53790   0.00000  Uiso   1.00
N1636  N     0.88137   0.54200   0.44310   0.00000  Uiso   1.00
N1637  N     0.61412   0.95977   0.54705   0.00000  Uiso   1.00
N1638  N     0.88901   0.96489   0.53308   0.00000  Uiso   1.00
N1639  N     0.61389   0.53822   0.45270   0.00000  Uiso   1.00
N1640  N     0.68896   0.63878   0.56509   0.00000  Uiso   1.00
N1641  N     0.79451   0.84356   0.47585   0.00000  Uiso   1.00
N1642  N     0.75000   0.50000   0.61736   0.00000  Uiso   1.00
N1643  N     0.75000   0.50000   0.38264   0.00000  Uiso   1.00
N1644  N     0.51642   0.67023   0.37601   0.00000  Uiso   1.00
N1645  N     0.52120   0.82882   0.62325   0.00000  Uiso   1.00
N1646  N     0.50394   0.83136   0.38797   0.00000  Uiso   1.00
N1647  N     0.99565   0.66842   0.61282   0.00000  Uiso   1.00
N1648  N     0.75998   0.91954   0.37752   0.00000  Uiso   1.00
O1649  O     0.54508   0.70491   0.53958   0.00000  Uiso   1.00
O1650  O     0.70491   0.54509   0.46042   0.00000  Uiso   1.00
O1651  O     0.70491   0.54509   0.53958   0.00000  Uiso   1.00
O1652  O     0.79508   0.95491   0.46042   0.00000  Uiso   1.00
O1653  O     0.70491   0.95491   0.46042   0.00000  Uiso   1.00
O1654  O     0.79508   0.54509   0.53958   0.00000  Uiso   1.00
O1655  O     0.79508   0.54509   0.46042   0.00000  Uiso   1.00
O1656  O     0.70491   0.95491   0.53958   0.00000  Uiso   1.00
O1657  O     0.95491   0.79509   0.46042   0.00000  Uiso   1.00
O1658  O     0.95491   0.79509   0.53958   0.00000  Uiso   1.00
O1659  O     0.54508   0.70491   0.46042   0.00000  Uiso   1.00
O1660  O     0.95491   0.70491   0.46042   0.00000  Uiso   1.00
O1661  O     0.54508   0.79509   0.53958   0.00000  Uiso   1.00
O1662  O     0.54508   0.79509   0.46042   0.00000  Uiso   1.00
O1663  O     0.95491   0.70491   0.53958   0.00000  Uiso   1.00
O1664  O     0.79508   0.95491   0.53958   0.00000  Uiso   1.00
C1665  C     0.05925   0.19050   0.83272   0.00000  Uiso   1.00
C1666  C     0.00546   0.28959   0.97757   0.00000  Uiso   1.00
C1667  C     0.00115   0.28997   0.69390   0.00000  Uiso   1.00
C1668  C     0.49771   0.21016   0.97304   0.00000  Uiso   1.00
C1669  C     0.25101   0.46026   0.68922   0.00000  Uiso   1.00
C1670  C     0.25558   0.03959   0.97761   0.00000  Uiso   1.00
C1671  C     0.25146   0.03999   0.69395   0.00000  Uiso   1.00
C1672  C     0.24670   0.46023   0.97304   0.00000  Uiso   1.00
C1673  C     0.40952   0.11751   0.80063   0.00000  Uiso   1.00
C1674  C     0.08656   0.38645   0.85243   0.00000  Uiso   1.00
C1675  C     0.13129   0.33008   0.81026   0.00000  Uiso   1.00
C1676  C     0.44115   0.30992   0.83428   0.00000  Uiso   1.00
C1677  C     0.37067   0.16625   0.85845   0.00000  Uiso   1.00
C1678  C     0.12913   0.16681   0.85769   0.00000  Uiso   1.00
C1679  C     0.36987   0.33069   0.81245   0.00000  Uiso   1.00
C1680  C     0.41022   0.38489   0.86027   0.00000  Uiso   1.00
C1681  C     0.08521   0.11173   0.81531   0.00000  Uiso   1.00
C1682  C     0.16401   0.36253   0.80786   0.00000  Uiso   1.00
C1683  C     0.33718   0.13564   0.85595   0.00000  Uiso   1.00
C1684  C     0.37790   0.08416   0.80319   0.00000  Uiso   1.00
C1685  C     0.12007   0.41688   0.85555   0.00000  Uiso   1.00
C1686  C     0.38001   0.41841   0.85397   0.00000  Uiso   1.00
C1687  C     0.44120   0.18987   0.83261   0.00000  Uiso   1.00
C1688  C     0.11916   0.08121   0.81074   0.00000  Uiso   1.00
C1689  C     0.15880   0.13258   0.86293   0.00000  Uiso   1.00
C1690  C     0.33568   0.36072   0.81604   0.00000  Uiso   1.00
C1691  C     0.09307   0.34251   0.83275   0.00000  Uiso   1.00
C1692  C     0.40690   0.15699   0.83093   0.00000  Uiso   1.00
C1693  C     0.40687   0.34249   0.83574   0.00000  Uiso   1.00
C1694  C     0.09240   0.15655   0.83289   0.00000  Uiso   1.00
C1695  C     0.34268   0.09293   0.83269   0.00000  Uiso   1.00
C1696  C     0.15806   0.40576   0.83178   0.00000  Uiso   1.00
C1697  C     0.15588   0.09148   0.83594   0.00000  Uiso   1.00
C1698  C     0.05903   0.30967   0.83353   0.00000  Uiso   1.00
C1699  C     0.34221   0.40614   0.83223   0.00000  Uiso   1.00
C1700  C     0.06021   0.15896   0.69966   0.00000  Uiso   1.00
C1701  C     0.06465   0.33980   0.96697   0.00000  Uiso   1.00
C1702  C     0.47009   0.36382   0.71819   0.00000  Uiso   1.00
C1703  C     0.45987   0.13927   0.95435   0.00000  Uiso   1.00
C1704  C     0.30276   0.40346   0.70350   0.00000  Uiso   1.00
C1705  C     0.31618   0.08672   0.96571   0.00000  Uiso   1.00
C1706  C     0.22146   0.11432   0.71930   0.00000  Uiso   1.00
C1707  C     0.20772   0.38970   0.95364   0.00000  Uiso   1.00
C1708  C     0.46151   0.07313   0.74948   0.00000  Uiso   1.00
C1709  C     0.30839   0.43944   0.83259   0.00000  Uiso   1.00
C1710  C     0.02554   0.42639   0.82910   0.00000  Uiso   1.00
C1711  C     0.12232   0.27056   0.74781   0.00000  Uiso   1.00
C1712  C     0.36818   0.20878   0.93364   0.00000  Uiso   1.00
C1713  C     0.12165   0.22301   0.92320   0.00000  Uiso   1.00
C1714  C     0.36918   0.28402   0.74019   0.00000  Uiso   1.00
C1715  C     0.42551   0.38549   0.94134   0.00000  Uiso   1.00
C1716  C     0.01860   0.09345   0.85093   0.00000  Uiso   1.00
C1717  C     0.20719   0.32273   0.74381   0.00000  Uiso   1.00
C1718  C     0.27458   0.17516   0.83690   0.00000  Uiso   1.00
C1719  C     0.36843   0.04189   0.72845   0.00000  Uiso   1.00
C1720  C     0.19059   0.05932   0.83425   0.00000  Uiso   1.00
C1721  C     0.11497   0.45930   0.93057   0.00000  Uiso   1.00
C1722  C     0.37887   0.48129   0.91344   0.00000  Uiso   1.00
C1723  C     0.11325   0.03967   0.73599   0.00000  Uiso   1.00
C1724  C     0.17334   0.12849   0.94414   0.00000  Uiso   1.00
C1725  C     0.27636   0.32500   0.85054   0.00000  Uiso   1.00
C1726  C     0.19144   0.43969   0.83281   0.00000  Uiso   1.00
C1727  C     0.30889   0.05982   0.83353   0.00000  Uiso   1.00
C1728  C     0.00255   0.21025   0.68905   0.00000  Uiso   1.00
Cu1729 Cu    0.00000   0.25000   0.88022   0.00000  Uiso   1.00
Cu1730 Cu    0.00000   0.25000   0.78645   0.00000  Uiso   1.00
Cu1731 Cu    0.25000  -0.00000   0.88022   0.00000  Uiso   1.00
Cu1732 Cu    0.25000  -0.00000   0.78645   0.00000  Uiso   1.00
H1733  H     0.49734   0.14294   0.70233   0.00000  Uiso   1.00
H1734  H     0.48162   0.39442   0.70109   0.00000  Uiso   1.00
H1735  H     0.45892   0.37470   0.75365   0.00000  Uiso   1.00
H1736  H     0.44318   0.34899   0.69875   0.00000  Uiso   1.00
H1737  H     0.02387   0.15156   0.94160   0.00000  Uiso   1.00
H1738  H     0.47047   0.10680   0.96833   0.00000  Uiso   1.00
H1739  H     0.44395   0.13103   0.92108   0.00000  Uiso   1.00
H1740  H     0.43672   0.15572   0.97913   0.00000  Uiso   1.00
H1741  H     0.23795   0.39512   0.70387   0.00000  Uiso   1.00
H1742  H     0.30868   0.39187   0.66689   0.00000  Uiso   1.00
H1743  H     0.30844   0.37415   0.72497   0.00000  Uiso   1.00
H1744  H     0.06290   0.13156   0.67183   0.00000  Uiso   1.00
H1745  H     0.32559   0.43068   0.71322   0.00000  Uiso   1.00
H1746  H     0.25421   0.10751   0.96236   0.00000  Uiso   1.00
H1747  H     0.32005   0.11533   0.99188   0.00000  Uiso   1.00
H1748  H     0.33257   0.09592   0.93371   0.00000  Uiso   1.00
H1749  H     0.33207   0.05591   0.97752   0.00000  Uiso   1.00
H1750  H     0.28462   0.09498   0.72371   0.00000  Uiso   1.00
H1751  H     0.23291   0.14470   0.70173   0.00000  Uiso   1.00
H1752  H     0.21128   0.12542   0.75505   0.00000  Uiso   1.00
H1753  H     0.19390   0.09992   0.70084   0.00000  Uiso   1.00
H1754  H     0.27155   0.40237   0.93819   0.00000  Uiso   1.00
H1755  H     0.07465   0.14645   0.73113   0.00000  Uiso   1.00
H1756  H     0.21809   0.35759   0.96854   0.00000  Uiso   1.00
H1757  H     0.19271   0.38070   0.92001   0.00000  Uiso   1.00
H1758  H     0.18398   0.40670   0.97731   0.00000  Uiso   1.00
H1759  H     0.43441   0.13642   0.73805   0.00000  Uiso   1.00
H1760  H     0.46058   0.04786   0.77670   0.00000  Uiso   1.00
H1761  H     0.44787   0.05910   0.71681   0.00000  Uiso   1.00
H1762  H     0.49448   0.07988   0.74023   0.00000  Uiso   1.00
H1763  H     0.04289   0.41824   0.89713   0.00000  Uiso   1.00
H1764  H     0.49351   0.43726   0.84039   0.00000  Uiso   1.00
H1765  H     0.02318   0.40457   0.79670   0.00000  Uiso   1.00
H1766  H     0.07854   0.18890   0.68894   0.00000  Uiso   1.00
H1767  H     0.04389   0.45741   0.82191   0.00000  Uiso   1.00
H1768  H     0.16349   0.26754   0.80489   0.00000  Uiso   1.00
H1769  H     0.10782   0.29959   0.73075   0.00000  Uiso   1.00
H1770  H     0.14822   0.25637   0.72538   0.00000  Uiso   1.00
H1771  H     0.09901   0.24317   0.75025   0.00000  Uiso   1.00
H1772  H     0.37851   0.23704   0.86938   0.00000  Uiso   1.00
H1773  H     0.39878   0.22325   0.94486   0.00000  Uiso   1.00
H1774  H     0.36520   0.17392   0.94631   0.00000  Uiso   1.00
H1775  H     0.34264   0.23014   0.94981   0.00000  Uiso   1.00
H1776  H     0.16738   0.22270   0.87113   0.00000  Uiso   1.00
H1777  H     0.00198   0.35674   0.96051   0.00000  Uiso   1.00
H1778  H     0.14818   0.22488   0.94774   0.00000  Uiso   1.00
H1779  H     0.09860   0.19772   0.93522   0.00000  Uiso   1.00
H1780  H     0.10617   0.25675   0.92403   0.00000  Uiso   1.00
H1781  H     0.34186   0.26683   0.80326   0.00000  Uiso   1.00
H1782  H     0.39223   0.25718   0.72902   0.00000  Uiso   1.00
H1783  H     0.37979   0.31676   0.72654   0.00000  Uiso   1.00
H1784  H     0.33833   0.27518   0.72477   0.00000  Uiso   1.00
H1785  H     0.46960   0.37788   0.88790   0.00000  Uiso   1.00
H1786  H     0.39197   0.39518   0.94618   0.00000  Uiso   1.00
H1787  H     0.44385   0.40662   0.96656   0.00000  Uiso   1.00
H1788  H     0.08054   0.31233   0.98517   0.00000  Uiso   1.00
H1789  H     0.42841   0.34897   0.94863   0.00000  Uiso   1.00
H1790  H     0.04213   0.06471   0.78987   0.00000  Uiso   1.00
H1791  H     0.03756   0.08057   0.87956   0.00000  Uiso   1.00
H1792  H     0.49150   0.07028   0.84562   0.00000  Uiso   1.00
H1793  H     0.00575   0.12741   0.86099   0.00000  Uiso   1.00
H1794  H     0.22648   0.37623   0.78774   0.00000  Uiso   1.00
H1795  H     0.20815   0.28653   0.75186   0.00000  Uiso   1.00
H1796  H     0.18216   0.33099   0.71923   0.00000  Uiso   1.00
H1797  H     0.23804   0.32728   0.72650   0.00000  Uiso   1.00
H1798  H     0.29548   0.16676   0.90354   0.00000  Uiso   1.00
H1799  H     0.06634   0.37184   0.98894   0.00000  Uiso   1.00
H1800  H     0.24370   0.18722   0.85084   0.00000  Uiso   1.00
H1801  H     0.26952   0.15304   0.80515   0.00000  Uiso   1.00
H1802  H     0.29292   0.20555   0.82767   0.00000  Uiso   1.00
H1803  H     0.37221   0.01342   0.79305   0.00000  Uiso   1.00
H1804  H     0.37101   0.07632   0.71461   0.00000  Uiso   1.00
H1805  H     0.38847   0.01786   0.70705   0.00000  Uiso   1.00
H1806  H     0.33593   0.02934   0.72474   0.00000  Uiso   1.00
H1807  H     0.12908   0.48747   0.86757   0.00000  Uiso   1.00
H1808  H     0.14486   0.47422   0.94352   0.00000  Uiso   1.00
H1809  H     0.11203   0.42432   0.94291   0.00000  Uiso   1.00
H1810  H     0.08244   0.34479   0.93446   0.00000  Uiso   1.00
H1811  H     0.08850   0.48009   0.94551   0.00000  Uiso   1.00
H1812  H     0.41827   0.47530   0.85544   0.00000  Uiso   1.00
H1813  H     0.40712   0.47997   0.93541   0.00000  Uiso   1.00
H1814  H     0.35335   0.46129   0.92923   0.00000  Uiso   1.00
H1815  H     0.36868   0.01722   0.91289   0.00000  Uiso   1.00
H1816  H     0.13169   0.01164   0.79657   0.00000  Uiso   1.00
H1817  H     0.14498   0.04757   0.72241   0.00000  Uiso   1.00
H1818  H     0.09046   0.06535   0.72497   0.00000  Uiso   1.00
H1819  H     0.10372   0.00593   0.72073   0.00000  Uiso   1.00
H1820  H     0.21833   0.12559   0.89099   0.00000  Uiso   1.00
H1821  H     0.03347   0.34544   0.72348   0.00000  Uiso   1.00
H1822  H     0.13874   0.13257   0.94756   0.00000  Uiso   1.00
H1823  H     0.18799   0.15206   0.97027   0.00000  Uiso   1.00
H1824  H     0.18090   0.09277   0.95136   0.00000  Uiso   1.00
H1825  H     0.29223   0.32102   0.78086   0.00000  Uiso   1.00
H1826  H     0.29830   0.30080   0.86601   0.00000  Uiso   1.00
H1827  H     0.24709   0.30622   0.84203   0.00000  Uiso   1.00
H1828  H     0.26858   0.35290   0.87632   0.00000  Uiso   1.00
N1829  N     0.00000   0.25000   0.95069   0.00000  Uiso   1.00
N1830  N     0.27200   0.07857   0.95678   0.00000  Uiso   1.00
N1831  N     0.25496   0.08131   0.72143   0.00000  Uiso   1.00
N1832  N     0.24361   0.41874   0.94592   0.00000  Uiso   1.00
N1833  N     0.44090   0.11543   0.76454   0.00000  Uiso   1.00
N1834  N     0.04523   0.40144   0.86496   0.00000  Uiso   1.00
N1835  N     0.13712   0.28386   0.79395   0.00000  Uiso   1.00
N1836  N     0.36517   0.20900   0.88360   0.00000  Uiso   1.00
N1837  N     0.13700   0.21179   0.87641   0.00000  Uiso   1.00
N1838  N     0.36567   0.28646   0.79042   0.00000  Uiso   1.00
N1839  N     0.44093   0.39299   0.89482   0.00000  Uiso   1.00
N1840  N     0.00000   0.25000   0.71598   0.00000  Uiso   1.00
N1841  N     0.04349   0.09537   0.80853   0.00000  Uiso   1.00
N1842  N     0.20396   0.35139   0.78612   0.00000  Uiso   1.00
N1843  N     0.29634   0.15010   0.87123   0.00000  Uiso   1.00
N1844  N     0.38137   0.04200   0.77644   0.00000  Uiso   1.00
N1845  N     0.11412   0.45977   0.88039   0.00000  Uiso   1.00
N1846  N     0.38901   0.46489   0.86641   0.00000  Uiso   1.00
N1847  N     0.11389   0.03822   0.78603   0.00000  Uiso   1.00
N1848  N     0.18896   0.13878   0.89842   0.00000  Uiso   1.00
N1849  N     0.29451   0.34356   0.80918   0.00000  Uiso   1.00
N1850  N     0.25000  -0.00000   0.95069   0.00000  Uiso   1.00
N1851  N     0.25000  -0.00000   0.71598   0.00000  Uiso   1.00
N1852  N     0.01642   0.17023   0.70935   0.00000  Uiso   1.00
N1853  N     0.02120   0.32882   0.95658   0.00000  Uiso   1.00
N1854  N     0.00394   0.33136   0.72130   0.00000  Uiso   1.00
N1855  N     0.49565   0.16842   0.94616   0.00000  Uiso   1.00
N1856  N     0.25998   0.41954   0.71085   0.00000  Uiso   1.00
O1857  O     0.04508   0.20491   0.87291   0.00000  Uiso   1.00
O1858  O     0.20491   0.04509   0.79375   0.00000  Uiso   1.00
O1859  O     0.20491   0.04509   0.87291   0.00000  Uiso   1.00
O1860  O     0.29508   0.45491   0.79375   0.00000  Uiso   1.00
O1861  O     0.20491   0.45491   0.79375   0.00000  Uiso   1.00
O1862  O     0.29508   0.04509   0.87291   0.00000  Uiso   1.00
O1863  O     0.29508   0.04509   0.79375   0.00000  Uiso   1.00
O1864  O     0.20491   0.45491   0.87291   0.00000  Uiso   1.00
O1865  O     0.45491   0.29509   0.79375   0.00000  Uiso   1.00
O1866  O     0.45491   0.29509   0.87291   0.00000  Uiso   1.00
O1867  O     0.04508   0.20491   0.79375   0.00000  Uiso   1.00
O1868  O     0.45491   0.20491   0.79375   0.00000  Uiso   1.00
O1869  O     0.04508   0.29509   0.87291   0.00000  Uiso   1.00
O1870  O     0.04508   0.29509   0.79375   0.00000  Uiso   1.00
O1871  O     0.45491   0.20491   0.87291   0.00000  Uiso   1.00
O1872  O     0.29508   0.45491   0.87291   0.00000  Uiso   1.00
C1873  C     0.55925   0.19050   0.83272   0.00000  Uiso   1.00
C1874  C     0.50546   0.28959   0.97757   0.00000  Uiso   1.00
C1875  C     0.50115   0.28997   0.69390   0.00000  Uiso   1.00
C1876  C     0.99771   0.21016   0.97304   0.00000  Uiso   1.00
C1877  C     0.75101   0.46026   0.68922   0.00000  Uiso   1.00
C1878  C     0.75558   0.03959   0.97761   0.00000  Uiso   1.00
C1879  C     0.75146   0.03999   0.69395   0.00000  Uiso   1.00
C1880  C     0.74670   0.46023   0.97304   0.00000  Uiso   1.00
C1881  C     0.90952   0.11751   0.80063   0.00000  Uiso   1.00
C1882  C     0.58656   0.38645   0.85243   0.00000  Uiso   1.00
C1883  C     0.63129   0.33008   0.81026   0.00000  Uiso   1.00
C1884  C     0.94115   0.30992   0.83428   0.00000  Uiso   1.00
C1885  C     0.87067   0.16625   0.85845   0.00000  Uiso   1.00
C1886  C     0.62913   0.16681   0.85769   0.00000  Uiso   1.00
C1887  C     0.86987   0.33069   0.81245   0.00000  Uiso   1.00
C1888  C     0.91022   0.38489   0.86027   0.00000  Uiso   1.00
C1889  C     0.58521   0.11173   0.81531   0.00000  Uiso   1.00
C1890  C     0.66401   0.36253   0.80786   0.00000  Uiso   1.00
C1891  C     0.83718   0.13564   0.85595   0.00000  Uiso   1.00
C1892  C     0.87790   0.08416   0.80319   0.00000  Uiso   1.00
C1893  C     0.62007   0.41688   0.85555   0.00000  Uiso   1.00
C1894  C     0.88001   0.41841   0.85397   0.00000  Uiso   1.00
C1895  C     0.94120   0.18987   0.83261   0.00000  Uiso   1.00
C1896  C     0.61916   0.08121   0.81074   0.00000  Uiso   1.00
C1897  C     0.65880   0.13258   0.86293   0.00000  Uiso   1.00
C1898  C     0.83568   0.36072   0.81604   0.00000  Uiso   1.00
C1899  C     0.59307   0.34251   0.83275   0.00000  Uiso   1.00
C1900  C     0.90690   0.15699   0.83093   0.00000  Uiso   1.00
C1901  C     0.90687   0.34249   0.83574   0.00000  Uiso   1.00
C1902  C     0.59240   0.15655   0.83289   0.00000  Uiso   1.00
C1903  C     0.84268   0.09293   0.83269   0.00000  Uiso   1.00
C1904  C     0.65806   0.40576   0.83178   0.00000  Uiso   1.00
C1905  C     0.65588   0.09148   0.83594   0.00000  Uiso   1.00
C1906  C     0.55903   0.30967   0.83353   0.00000  Uiso   1.00
C1907  C     0.84221   0.40614   0.83223   0.00000  Uiso   1.00
C1908  C     0.56021   0.15896   0.69966   0.00000  Uiso   1.00
C1909  C     0.56465   0.33980   0.96697   0.00000  Uiso   1.00
C1910  C     0.97009   0.36382   0.71819   0.00000  Uiso   1.00
C1911  C     0.95987   0.13927   0.95435   0.00000  Uiso   1.00
C1912  C     0.80276   0.40346   0.70350   0.00000  Uiso   1.00
C1913  C     0.81618   0.08672   0.96571   0.00000  Uiso   1.00
C1914  C     0.72146   0.11432   0.71930   0.00000  Uiso   1.00
C1915  C     0.70772   0.38970   0.95364   0.00000  Uiso   1.00
C1916  C     0.96151   0.07313   0.74948   0.00000  Uiso   1.00
C1917  C     0.80839   0.43944   0.83259   0.00000  Uiso   1.00
C1918  C     0.52554   0.42639   0.82910   0.00000  Uiso   1.00
C1919  C     0.62232   0.27056   0.74781   0.00000  Uiso   1.00
C1920  C     0.86818   0.20878   0.93364   0.00000  Uiso   1.00
C1921  C     0.62165   0.22301   0.92320   0.00000  Uiso   1.00
C1922  C     0.86918   0.28402   0.74019   0.00000  Uiso   1.00
C1923  C     0.92551   0.38549   0.94134   0.00000  Uiso   1.00
C1924  C     0.51860   0.09345   0.85093   0.00000  Uiso   1.00
C1925  C     0.70719   0.32273   0.74381   0.00000  Uiso   1.00
C1926  C     0.77458   0.17516   0.83690   0.00000  Uiso   1.00
C1927  C     0.86843   0.04189   0.72845   0.00000  Uiso   1.00
C1928  C     0.69059   0.05932   0.83425   0.00000  Uiso   1.00
C1929  C     0.61497   0.45930   0.93057   0.00000  Uiso   1.00
C1930  C     0.87887   0.48129   0.91344   0.00000  Uiso   1.00
C1931  C     0.61325   0.03967   0.73599   0.00000  Uiso   1.00
C1932  C     0.67334   0.12849   0.94414   0.00000  Uiso   1.00
C1933  C     0.77636   0.32500   0.85054   0.00000  Uiso   1.00
C1934  C     0.69144   0.43969   0.83281   0.00000  Uiso   1.00
C1935  C     0.80889   0.05982   0.83353   0.00000  Uiso   1.00
C1936  C     0.50255   0.21025   0.68905   0.00000  Uiso   1.00
Cu1937 Cu    0.50000   0.25000   0.88022   0.00000  Uiso   1.00
Cu1938 Cu    0.50000   0.25000   0.78645   0.00000  Uiso   1.00
Cu1939 Cu    0.75000  -0.00000   0.88022   0.00000  Uiso   1.00
Cu1940 Cu    0.75000  -0.00000   0.78645   0.00000  Uiso   1.00
H1941  H     0.99734   0.14294   0.70233   0.00000  Uiso   1.00
H1942  H     0.98162   0.39442   0.70109   0.00000  Uiso   1.00
H1943  H     0.95892   0.37470   0.75365   0.00000  Uiso   1.00
H1944  H     0.94318   0.34899   0.69875   0.00000  Uiso   1.00
H1945  H     0.52387   0.15156   0.94160   0.00000  Uiso   1.00
H1946  H     0.97047   0.10680   0.96833   0.00000  Uiso   1.00
H1947  H     0.94395   0.13103   0.92108   0.00000  Uiso   1.00
H1948  H     0.93672   0.15572   0.97913   0.00000  Uiso   1.00
H1949  H     0.73795   0.39512   0.70387   0.00000  Uiso   1.00
H1950  H     0.80868   0.39187   0.66689   0.00000  Uiso   1.00
H1951  H     0.80844   0.37415   0.72497   0.00000  Uiso   1.00
H1952  H     0.56290   0.13156   0.67183   0.00000  Uiso   1.00
H1953  H     0.82559   0.43068   0.71322   0.00000  Uiso   1.00
H1954  H     0.75421   0.10751   0.96236   0.00000  Uiso   1.00
H1955  H     0.82005   0.11533   0.99188   0.00000  Uiso   1.00
H1956  H     0.83257   0.09592   0.93371   0.00000  Uiso   1.00
H1957  H     0.83207   0.05591   0.97752   0.00000  Uiso   1.00
H1958  H     0.78462   0.09498   0.72371   0.00000  Uiso   1.00
H1959  H     0.73291   0.14470   0.70173   0.00000  Uiso   1.00
H1960  H     0.71128   0.12542   0.75505   0.00000  Uiso   1.00
H1961  H     0.69390   0.09992   0.70084   0.00000  Uiso   1.00
H1962  H     0.77155   0.40237   0.93819   0.00000  Uiso   1.00
H1963  H     0.57465   0.14645   0.73113   0.00000  Uiso   1.00
H1964  H     0.71809   0.35759   0.96854   0.00000  Uiso   1.00
H1965  H     0.69271   0.38070   0.92001   0.00000  Uiso   1.00
H1966  H     0.68398   0.40670   0.97731   0.00000  Uiso   1.00
H1967  H     0.93441   0.13642   0.73805   0.00000  Uiso   1.00
H1968  H     0.96058   0.04786   0.77670   0.00000  Uiso   1.00
H1969  H     0.94787   0.05910   0.71681   0.00000  Uiso   1.00
H1970  H     0.99448   0.07988   0.74023   0.00000  Uiso   1.00
H1971  H     0.54289   0.41824   0.89713   0.00000  Uiso   1.00
H1972  H     0.99351   0.43726   0.84039   0.00000  Uiso   1.00
H1973  H     0.52318   0.40457   0.79670   0.00000  Uiso   1.00
H1974  H     0.57854   0.18890   0.68894   0.00000  Uiso   1.00
H1975  H     0.54389   0.45741   0.82191   0.00000  Uiso   1.00
H1976  H     0.66349   0.26754   0.80489   0.00000  Uiso   1.00
H1977  H     0.60782   0.29959   0.73075   0.00000  Uiso   1.00
H1978  H     0.64822   0.25637   0.72538   0.00000  Uiso   1.00
H1979  H     0.59901   0.24317   0.75025   0.00000  Uiso   1.00
H1980  H     0.87851   0.23704   0.86938   0.00000  Uiso   1.00
H1981  H     0.89878   0.22325   0.94486   0.00000  Uiso   1.00
H1982  H     0.86520   0.17392   0.94631   0.00000  Uiso   1.00
H1983  H     0.84264   0.23014   0.94981   0.00000  Uiso   1.00
H1984  H     0.66738   0.22270   0.87113   0.00000  Uiso   1.00
H1985  H     0.50198   0.35674   0.96051   0.00000  Uiso   1.00
H1986  H     0.64818   0.22488   0.94774   0.00000  Uiso   1.00
H1987  H     0.59860   0.19772   0.93522   0.00000  Uiso   1.00
H1988  H     0.60617   0.25675   0.92403   0.00000  Uiso   1.00
H1989  H     0.84186   0.26683   0.80326   0.00000  Uiso   1.00
H1990  H     0.89223   0.25718   0.72902   0.00000  Uiso   1.00
H1991  H     0.87979   0.31676   0.72654   0.00000  Uiso   1.00
H1992  H     0.83833   0.27518   0.72477   0.00000  Uiso   1.00
H1993  H     0.96960   0.37788   0.88790   0.00000  Uiso   1.00
H1994  H     0.89197   0.39518   0.94618   0.00000  Uiso   1.00
H1995  H     0.94385   0.40662   0.96656   0.00000  Uiso   1.00
H1996  H     0.58054   0.31233   0.98517   0.00000  Uiso   1.00
H1997  H     0.92841   0.34897   0.94863   0.00000  Uiso   1.00
H1998  H     0.54213   0.06471   0.78987   0.00000  Uiso   1.00
H1999  H     0.53756   0.08057   0.87956   0.00000  Uiso   1.00
H2000  H     0.99150   0.07028   0.84562   0.00000  Uiso   1.00
H2001  H     0.50575   0.12741   0.86099   0.00000  Uiso   1.00
H2002  H     0.72648   0.37623   0.78774   0.00000  Uiso   1.00
H2003  H     0.70815   0.28653   0.75186   0.00000  Uiso   1.00
H2004  H     0.68216   0.33099   0.71923   0.00000  Uiso   1.00
H2005  H     0.73804   0.32728   0.72650   0.00000  Uiso   1.00
H2006  H     0.79548   0.16676   0.90354   0.00000  Uiso   1.00
H2007  H     0.56634   0.37184   0.98894   0.00000  Uiso   1.00
H2008  H     0.74370   0.18722   0.85084   0.00000  Uiso   1.00
H2009  H     0.76952   0.15304   0.80515   0.00000  Uiso   1.00
H2010  H     0.79292   0.20555   0.82767   0.00000  Uiso   1.00
H2011  H     0.87221   0.01342   0.79305   0.00000  Uiso   1.00
H2012  H     0.87101   0.07632   0.71461   0.00000  Uiso   1.00
H2013  H     0.88847   0.01786   0.70705   0.00000  Uiso   1.00
H2014  H     0.83593   0.02934   0.72474   0.00000  Uiso   1.00
H2015  H     0.62908   0.48747   0.86757   0.00000  Uiso   1.00
H2016  H     0.64486   0.47422   0.94352   0.00000  Uiso   1.00
H2017  H     0.61203   0.42432   0.94291   0.00000  Uiso   1.00
H2018  H     0.58244   0.34479   0.93446   0.00000  Uiso   1.00
H2019  H     0.58850   0.48009   0.94551   0.00000  Uiso   1.00
H2020  H     0.91827   0.47530   0.85544   0.00000  Uiso   1.00
H2021  H     0.90712   0.47997   0.93541   0.00000  Uiso   1.00
H2022  H     0.85335   0.46129   0.92923   0.00000  Uiso   1.00
H2023  H     0.86868   0.01722   0.91289   0.00000  Uiso   1.00
H2024  H     0.63169   0.01164   0.79657   0.00000  Uiso   1.00
H2025  H     0.64498   0.04757   0.72241   0.00000  Uiso   1.00
H2026  H     0.59046   0.06535   0.72497   0.00000  Uiso   1.00
H2027  H     0.60372   0.00593   0.72073   0.00000  Uiso   1.00
H2028  H     0.71833   0.12559   0.89099   0.00000  Uiso   1.00
H2029  H     0.53347   0.34544   0.72348   0.00000  Uiso   1.00
H2030  H     0.63874   0.13257   0.94756   0.00000  Uiso   1.00
H2031  H     0.68799   0.15206   0.97027   0.00000  Uiso   1.00
H2032  H     0.68090   0.09277   0.95136   0.00000  Uiso   1.00
H2033  H     0.79223   0.32102   0.78086   0.00000  Uiso   1.00
H2034  H     0.79830   0.30080   0.86601   0.00000  Uiso   1.00
H2035  H     0.74709   0.30622   0.84203   0.00000  Uiso   1.00
H2036  H     0.76858   0.35290   0.87632   0.00000  Uiso   1.00
N2037  N     0.50000   0.25000   0.95069   0.00000  Uiso   1.00
N2038  N     0.77200   0.07857   0.95678   0.00000  Uiso   1.00
N2039  N     0.75496   0.08131   0.72143   0.00000  Uiso   1.00
N2040  N     0.74361   0.41874   0.94592   0.00000  Uiso   1.00
N2041  N     0.94090   0.11543   0.76454   0.00000  Uiso   1.00
N2042  N     0.54523   0.40144   0.86496   0.00000  Uiso   1.00
N2043  N     0.63712   0.28386   0.79395   0.00000  Uiso   1.00
N2044  N     0.86517   0.20900   0.88360   0.00000  Uiso   1.00
N2045  N     0.63700   0.21179   0.87641   0.00000  Uiso   1.00
N2046  N     0.86567   0.28646   0.79042   0.00000  Uiso   1.00
N2047  N     0.94093   0.39299   0.89482   0.00000  Uiso   1.00
N2048  N     0.50000   0.25000   0.71598   0.00000  Uiso   1.00
N2049  N     0.54349   0.09537   0.80853   0.00000  Uiso   1.00
N2050  N     0.70396   0.35139   0.78612   0.00000  Uiso   1.00
N2051  N     0.79634   0.15010   0.87123   0.00000  Uiso   1.00
N2052  N     0.88137   0.04200   0.77644   0.00000  Uiso   1.00
N2053  N     0.61412   0.45977   0.88039   0.00000  Uiso   1.00
N2054  N     0.88901   0.46489   0.86641   0.00000  Uiso   1.00
N2055  N     0.61389   0.03822   0.78603   0.00000  Uiso   1.00
N2056  N     0.68896   0.13878   0.89842   0.00000  Uiso   1.00
N2057  N     0.79451   0.34356   0.80918   0.00000  Uiso   1.00
N2058  N     0.75000  -0.00000   0.95069   0.00000  Uiso   1.00
N2059  N     0.75000  -0.00000   0.71598   0.00000  Uiso   1.00
N2060  N     0.51642   0.17023   0.70935   0.00000  Uiso   1.00
N2061  N     0.52120   0.32882   0.95658   0.00000  Uiso   1.00
N2062  N     0.50394   0.33136   0.72130   0.00000  Uiso   1.00
N2063  N     0.99565   0.16842   0.94616   0.00000  Uiso   1.00
N2064  N     0.75998   0.41954   0.71085   0.00000  Uiso   1.00
O2065  O     0.54508   0.20491   0.87291   0.00000  Uiso   1.00
O2066  O     0.70491   0.04509   0.79375   0.00000  Uiso   1.00
O2067  O     0.70491   0.04509   0.87291   0.00000  Uiso   1.00
O2068  O     0.79508   0.45491   0.79375   0.00000  Uiso   1.00
O2069  O     0.70491   0.45491   0.79375   0.00000  Uiso   1.00
O2070  O     0.79508   0.04509   0.87291   0.00000  Uiso   1.00
O2071  O     0.79508   0.04509   0.79375   0.00000  Uiso   1.00
O2072  O     0.70491   0.45491   0.87291   0.00000  Uiso   1.00
O2073  O     0.95491   0.29509   0.79375   0.00000  Uiso   1.00
O2074  O     0.95491   0.29509   0.87291   0.00000  Uiso   1.00
O2075  O     0.54508   0.20491   0.79375   0.00000  Uiso   1.00
O2076  O     0.95491   0.20491   0.79375   0.00000  Uiso   1.00
O2077  O     0.54508   0.29509   0.87291   0.00000  Uiso   1.00
O2078  O     0.54508   0.29509   0.79375   0.00000  Uiso   1.00
O2079  O     0.95491   0.20491   0.87291   0.00000  Uiso   1.00
O2080  O     0.79508   0.45491   0.87291   0.00000  Uiso   1.00
C2081  C     0.05925   0.69050   0.83272   0.00000  Uiso   1.00
C2082  C     0.00546   0.78959   0.97757   0.00000  Uiso   1.00
C2083  C     0.00115   0.78997   0.69390   0.00000  Uiso   1.00
C2084  C     0.49771   0.71016   0.97304   0.00000  Uiso   1.00
C2085  C     0.25101   0.96026   0.68922   0.00000  Uiso   1.00
C2086  C     0.25558   0.53959   0.97761   0.00000  Uiso   1.00
C2087  C     0.25146   0.53999   0.69395   0.00000  Uiso   1.00
C2088  C     0.24670   0.96023   0.97304   0.00000  Uiso   1.00
C2089  C     0.40952   0.61751   0.80063   0.00000  Uiso   1.00
C2090  C     0.08656   0.88645   0.85243   0.00000  Uiso   1.00
C2091  C     0.13129   0.83008   0.81026   0.00000  Uiso   1.00
C2092  C     0.44115   0.80992   0.83428   0.00000  Uiso   1.00
C2093  C     0.37067   0.66625   0.85845   0.00000  Uiso   1.00
C2094  C     0.12913   0.66681   0.85769   0.00000  Uiso   1.00
C2095  C     0.36987   0.83069   0.81245   0.00000  Uiso   1.00
C2096  C     0.41022   0.88489   0.86027   0.00000  Uiso   1.00
C2097  C     0.08521   0.61173   0.81531   0.00000  Uiso   1.00
C2098  C     0.16401   0.86253   0.80786   0.00000  Uiso   1.00
C2099  C     0.33718   0.63564   0.85595   0.00000  Uiso   1.00
C2100  C     0.37790   0.58416   0.80319   0.00000  Uiso   1.00
C2101  C     0.12007   0.91688   0.85555   0.00000  Uiso   1.00
C2102  C     0.38001   0.91841   0.85397   0.00000  Uiso   1.00
C2103  C     0.44120   0.68987   0.83261   0.00000  Uiso   1.00
C2104  C     0.11916   0.58121   0.81074   0.00000  Uiso   1.00
C2105  C     0.15880   0.63258   0.86293   0.00000  Uiso   1.00
C2106  C     0.33568   0.86072   0.81604   0.00000  Uiso   1.00
C2107  C     0.09307   0.84251   0.83275   0.00000  Uiso   1.00
C2108  C     0.40690   0.65699   0.83093   0.00000  Uiso   1.00
C2109  C     0.40687   0.84249   0.83574   0.00000  Uiso   1.00
C2110  C     0.09240   0.65655   0.83289   0.00000  Uiso   1.00
C2111  C     0.34268   0.59293   0.83269   0.00000  Uiso   1.00
C2112  C     0.15806   0.90576   0.83178   0.00000  Uiso   1.00
C2113  C     0.15588   0.59148   0.83594   0.00000  Uiso   1.00
C2114  C     0.05903   0.80967   0.83353   0.00000  Uiso   1.00
C2115  C     0.34221   0.90614   0.83223   0.00000  Uiso   1.00
C2116  C     0.06021   0.65896   0.69966   0.00000  Uiso   1.00
C2117  C     0.06465   0.83980   0.96697   0.00000  Uiso   1.00
C2118  C     0.47009   0.86382   0.71819   0.00000  Uiso   1.00
C2119  C     0.45987   0.63927   0.95435   0.00000  Uiso   1.00
C2120  C     0.30276   0.90346   0.70350   0.00000  Uiso   1.00
C2121  C     0.31618   0.58672   0.96571   0.00000  Uiso   1.00
C2122  C     0.22146   0.61432   0.71930   0.00000  Uiso   1.00
C2123  C     0.20772   0.88970   0.95364   0.00000  Uiso   1.00
C2124  C     0.46151   0.57313   0.74948   0.00000  Uiso   1.00
C2125  C     0.30839   0.93944   0.83259   0.00000  Uiso   1.00
C2126  C     0.02554   0.92639   0.82910   0.00000  Uiso   1.00
C2127  C     0.12232   0.77056   0.74781   0.00000  Uiso   1.00
C2128  C     0.36818   0.70878   0.93364   0.00000  Uiso   1.00
C2129  C     0.12165   0.72301   0.92320   0.00000  Uiso   1.00
C2130  C     0.36918   0.78402   0.74019   0.00000  Uiso   1.00
C2131  C     0.42551   0.88549   0.94134   0.00000  Uiso   1.00
C2132  C     0.01860   0.59345   0.85093   0.00000  Uiso   1.00
C2133  C     0.20719   0.82273   0.74381   0.00000  Uiso   1.00
C2134  C     0.27458   0.67516   0.83690   0.00000  Uiso   1.00
C2135  C     0.36843   0.54189   0.72845   0.00000  Uiso   1.00
C2136  C     0.19059   0.55932   0.83425   0.00000  Uiso   1.00
C2137  C     0.11497   0.95930   0.93057   0.00000  Uiso   1.00
C2138  C     0.37887   0.98129   0.91344   0.00000  Uiso   1.00
C2139  C     0.11325   0.53967   0.73599   0.00000  Uiso   1.00
C2140  C     0.17334   0.62849   0.94414   0.00000  Uiso   1.00
C2141  C     0.27636   0.82500   0.85054   0.00000  Uiso   1.00
C2142  C     0.19144   0.93969   0.83281   0.00000  Uiso   1.00
C2143  C     0.30889   0.55982   0.83353   0.00000  Uiso   1.00
C2144  C     0.00255   0.71025   0.68905   0.00000  Uiso   1.00
Cu2145 Cu    0.00000   0.75000   0.88022   0.00000  Uiso   1.00
Cu2146 Cu    0.00000   0.75000   0.78645   0.00000  Uiso   1.00
Cu2147 Cu    0.25000   0.50000   0.88022   0.00000  Uiso   1.00
Cu2148 Cu    0.25000   0.50000   0.78645   0.00000  Uiso   1.00
H2149  H     0.49734   0.64294   0.70233   0.00000  Uiso   1.00
H2150  H     0.48162   0.89442   0.70109   0.00000  Uiso   1.00
H2151  H     0.45892   0.87470   0.75365   0.00000  Uiso   1.00
H2152  H     0.44318   0.84899   0.69875   0.00000  Uiso   1.00
H2153  H     0.02387   0.65156   0.94160   0.00000  Uiso   1.00
H2154  H     0.47047   0.60680   0.96833   0.00000  Uiso   1.00
H2155  H     0.44395   0.63103   0.92108   0.00000  Uiso   1.00
H2156  H     0.43672   0.65572   0.97913   0.00000  Uiso   1.00
H2157  H     0.23795   0.89512   0.70387   0.00000  Uiso   1.00
H2158  H     0.30868   0.89187   0.66689   0.00000  Uiso   1.00
H2159  H     0.30844   0.87415   0.72497   0.00000  Uiso   1.00
H2160  H     0.06290   0.63156   0.67183   0.00000  Uiso   1.00
H2161  H     0.32559   0.93068   0.71322   0.00000  Uiso   1.00
H2162  H     0.25421   0.60751   0.96236   0.00000  Uiso   1.00
H2163  H     0.32005   0.61533   0.99188   0.00000  Uiso   1.00
H2164  H     0.33257   0.59592   0.93371   0.00000  Uiso   1.00
H2165  H     0.33207   0.55591   0.97752   0.00000  Uiso   1.00
H2166  H     0.28462   0.59498   0.72371   0.00000  Uiso   1.00
H2167  H     0.23291   0.64470   0.70173   0.00000  Uiso   1.00
H2168  H     0.21128   0.62542   0.75505   0.00000  Uiso   1.00
H2169  H     0.19390   0.59992   0.70084   0.00000  Uiso   1.00
H2170  H     0.27155   0.90237   0.93819   0.00000  Uiso   1.00
H2171  H     0.07465   0.64645   0.73113   0.00000  Uiso   1.00
H2172  H     0.21809   0.85759   0.96854   0.00000  Uiso   1.00
H2173  H     0.19271   0.88070   0.92001   0.00000  Uiso   1.00
H2174  H     0.18398   0.90670   0.97731   0.00000  Uiso   1.00
H2175  H     0.43441   0.63642   0.73805   0.00000  Uiso   1.00
H2176  H     0.46058   0.54786   0.77670   0.00000  Uiso   1.00
H2177  H     0.44787   0.55910   0.71681   0.00000  Uiso   1.00
H2178  H     0.49448   0.57988   0.74023   0.00000  Uiso   1.00
H2179  H     0.04289   0.91824   0.89713   0.00000  Uiso   1.00
H2180  H     0.49351   0.93726   0.84039   0.00000  Uiso   1.00
H2181  H     0.02318   0.90457   0.79670   0.00000  Uiso   1.00
H2182  H     0.07854   0.68890   0.68894   0.00000  Uiso   1.00
H2183  H     0.04389   0.95741   0.82191   0.00000  Uiso   1.00
H2184  H     0.16349   0.76754   0.80489   0.00000  Uiso   1.00
H2185  H     0.10782   0.79959   0.73075   0.00000  Uiso   1.00
H2186  H     0.14822   0.75637   0.72538   0.00000  Uiso   1.00
H2187  H     0.09901   0.74317   0.75025   0.00000  Uiso   1.00
H2188  H     0.37851   0.73704   0.86938   0.00000  Uiso   1.00
H2189  H     0.39878   0.72325   0.94486   0.00000  Uiso   1.00
H2190  H     0.36520   0.67392   0.94631   0.00000  Uiso   1.00
H2191  H     0.34264   0.73014   0.94981   0.00000  Uiso   1.00
H2192  H     0.16738   0.72270   0.87113   0.00000  Uiso   1.00
H2193  H     0.00198   0.85674   0.96051   0.00000  Uiso   1.00
H2194  H     0.14818   0.72488   0.94774   0.00000  Uiso   1.00
H2195  H     0.09860   0.69772   0.93522   0.00000  Uiso   1.00
H2196  H     0.10617   0.75675   0.92403   0.00000  Uiso   1.00
H2197  H     0.34186   0.76683   0.80326   0.00000  Uiso   1.00
H2198  H     0.39223   0.75718   0.72902   0.00000  Uiso   1.00
H2199  H     0.37979   0.81676   0.72654   0.00000  Uiso   1.00
H2200  H     0.33833   0.77518   0.72477   0.00000  Uiso   1.00
H2201  H     0.46960   0.87788   0.88790   0.00000  Uiso   1.00
H2202  H     0.39197   0.89518   0.94618   0.00000  Uiso   1.00
H2203  H     0.44385   0.90662   0.96656   0.00000  Uiso   1.00
H2204  H     0.08054   0.81233   0.98517   0.00000  Uiso   1.00
H2205  H     0.42841   0.84897   0.94863   0.00000  Uiso   1.00
H2206  H     0.04213   0.56471   0.78987   0.00000  Uiso   1.00
H2207  H     0.03756   0.58057   0.87956   0.00000  Uiso   1.00
H2208  H     0.49150   0.57028   0.84562   0.00000  Uiso   1.00
H2209  H     0.00575   0.62741   0.86099   0.00000  Uiso   1.00
H2210  H     0.22648   0.87623   0.78774   0.00000  Uiso   1.00
H2211  H     0.20815   0.78653   0.75186   0.00000  Uiso   1.00
H2212  H     0.18216   0.83099   0.71923   0.00000  Uiso   1.00
H2213  H     0.23804   0.82728   0.72650   0.00000  Uiso   1.00
H2214  H     0.29548   0.66676   0.90354   0.00000  Uiso   1.00
H2215  H     0.06634   0.87184   0.98894   0.00000  Uiso   1.00
H2216  H     0.24370   0.68722   0.85084   0.00000  Uiso   1.00
H2217  H     0.26952   0.65304   0.80515   0.00000  Uiso   1.00
H2218  H     0.29292   0.70555   0.82767   0.00000  Uiso   1.00
H2219  H     0.37221   0.51342   0.79305   0.00000  Uiso   1.00
H2220  H     0.37101   0.57632   0.71461   0.00000  Uiso   1.00
H2221  H     0.38847   0.51786   0.70705   0.00000  Uiso   1.00
H2222  H     0.33593   0.52934   0.72474   0.00000  Uiso   1.00
H2223  H     0.12908   0.98747   0.86757   0.00000  Uiso   1.00
H2224  H     0.14486   0.97422   0.94352   0.00000  Uiso   1.00
H2225  H     0.11203   0.92432   0.94291   0.00000  Uiso   1.00
H2226  H     0.08244   0.84479   0.93446   0.00000  Uiso   1.00
H2227  H     0.08850   0.98009   0.94551   0.00000  Uiso   1.00
H2228  H     0.41827   0.97530   0.85544   0.00000  Uiso   1.00
H2229  H     0.40712   0.97997   0.93541   0.00000  Uiso   1.00
H2230  H     0.35335   0.96129   0.92923   0.00000  Uiso   1.00
H2231  H     0.36868   0.51722   0.91289   0.00000  Uiso   1.00
H2232  H     0.13169   0.51164   0.79657   0.00000  Uiso   1.00
H2233  H     0.14498   0.54757   0.72241   0.00000  Uiso   1.00
H2234  H     0.09046   0.56535   0.72497   0.00000  Uiso   1.00
H2235  H     0.10372   0.50593   0.72073   0.00000  Uiso   1.00
H2236  H     0.21833   0.62559   0.89099   0.00000  Uiso   1.00
H2237  H     0.03347   0.84544   0.72348   0.00000  Uiso   1.00
H2238  H     0.13874   0.63257   0.94756   0.00000  Uiso   1.00
H2239  H     0.18799   0.65206   0.97027   0.00000  Uiso   1.00
H2240  H     0.18090   0.59277   0.95136   0.00000  Uiso   1.00
H2241  H     0.29223   0.82102   0.78086   0.00000  Uiso   1.00
H2242  H     0.29830   0.80080   0.86601   0.00000  Uiso   1.00
H2243  H     0.24709   0.80622   0.84203   0.00000  Uiso   1.00
H2244  H     0.26858   0.85290   0.87632   0.00000  Uiso   1.00
N2245  N     0.00000   0.75000   0.95069   0.00000  Uiso   1.00
N2246  N     0.27200   0.57857   0.95678   0.00000  Uiso   1.00
N2247  N     0.25496   0.58131   0.72143   0.00000  Uiso   1.00
N2248  N     0.24361   0.91874   0.94592   0.00000  Uiso   1.00
N2249  N     0.44090   0.61543   0.76454   0.00000  Uiso   1.00
N2250  N     0.04523   0.90144   0.86496   0.00000  Uiso   1.00
N2251  N     0.13712   0.78386   0.79395   0.00000  Uiso   1.00
N2252  N     0.36517   0.70900   0.88360   0.00000  Uiso   1.00
N2253  N     0.13700   0.71179   0.87641   0.00000  Uiso   1.00
N2254  N     0.36567   0.78646   0.79042   0.00000  Uiso   1.00
N2255  N     0.44093   0.89299   0.89482   0.00000  Uiso   1.00
N2256  N     0.00000   0.75000   0.71598   0.00000  Uiso   1.00
N2257  N     0.04349   0.59537   0.80853   0.00000  Uiso   1.00
N2258  N     0.20396   0.85139   0.78612   0.00000  Uiso   1.00
N2259  N     0.29634   0.65010   0.87123   0.00000  Uiso   1.00
N2260  N     0.38137   0.54200   0.77644   0.00000  Uiso   1.00
N2261  N     0.11412   0.95977   0.88039   0.00000  Uiso   1.00
N2262  N     0.38901   0.96489   0.86641   0.00000  Uiso   1.00
N2263  N     0.11389   0.53822   0.78603   0.00000  Uiso   1.00
N2264  N     0.18896   0.63878   0.89842   0.00000  Uiso   1.00
N2265  N     0.29451   0.84356   0.80918   0.00000  Uiso   1.00
N2266  N     0.25000   0.50000   0.95069   0.00000  Uiso   1.00
N2267  N     0.25000   0.50000   0.71598   0.00000  Uiso   1.00
N2268  N     0.01642   0.67023   0.70935   0.00000  Uiso   1.00
N2269  N     0.02120   0.82882   0.95658   0.00000  Uiso   1.00
N2270  N     0.00394   0.83136   0.72130   0.00000  Uiso   1.00
N2271  N     0.49565   0.66842   0.94616   0.00000  Uiso   1.00
N2272  N     0.25998   0.91954   0.71085   0.00000  Uiso   1.00
O2273  O     0.04508   0.70491   0.87291   0.00000  Uiso   1.00
O2274  O     0.20491   0.54509   0.79375   0.00000  Uiso   1.00
O2275  O     0.20491   0.54509   0.87291   0.00000  Uiso   1.00
O2276  O     0.29508   0.95491   0.79375   0.00000  Uiso   1.00
O2277  O     0.20491   0.95491   0.79375   0.00000  Uiso   1.00
O2278  O     0.29508   0.54509   0.87291   0.00000  Uiso   1.00
O2279  O     0.29508   0.54509   0.79375   0.00000  Uiso   1.00
O2280  O     0.20491   0.95491   0.87291   0.00000  Uiso   1.00
O2281  O     0.45491   0.79509   0.79375   0.00000  Uiso   1.00
O2282  O     0.45491   0.79509   0.87291   0.00000  Uiso   1.00
O2283  O     0.04508   0.70491   0.79375   0.00000  Uiso   1.00
O2284  O     0.45491   0.70491   0.79375   0.00000  Uiso   1.00
O2285  O     0.04508   0.79509   0.87291   0.00000  Uiso   1.00
O2286  O     0.04508   0.79509   0.79375   0.00000  Uiso   1.00
O2287  O     0.45491   0.70491   0.87291   0.00000  Uiso   1.00
O2288  O     0.29508   0.95491   0.87291   0.00000  Uiso   1.00
C2289  C     0.55925   0.69050   0.83272   0.00000  Uiso   1.00
C2290  C     0.50546   0.78959   0.97757   0.00000  Uiso   1.00
C2291  C     0.50115   0.78997   0.69390   0.00000  Uiso   1.00
C2292  C     0.99771   0.71016   0.97304   0.00000  Uiso   1.00
C2293  C     0.75101   0.96026   0.68922   0.00000  Uiso   1.00
C2294  C     0.75558   0.53959   0.97761   0.00000  Uiso   1.00
C2295  C     0.75146   0.53999   0.69395   0.00000  Uiso   1.00
C2296  C     0.74670   0.96023   0.97304   0.00000  Uiso   1.00
C2297  C     0.90952   0.61751   0.80063   0.00000  Uiso   1.00
C2298  C     0.58656   0.88645   0.85243   0.00000  Uiso   1.00
C2299  C     0.63129   0.83008   0.81026   0.00000  Uiso   1.00
C2300  C     0.94115   0.80992   0.83428   0.00000  Uiso   1.00
C2301  C     0.87067   0.66625   0.85845   0.00000  Uiso   1.00
C2302  C     0.62913   0.66681   0.85769   0.00000  Uiso   1.00
C2303  C     0.86987   0.83069   0.81245   0.00000  Uiso   1.00
C2304  C     0.91022   0.88489   0.86027   0.00000  Uiso   1.00
C2305  C     0.58521   0.61173   0.81531   0.00000  Uiso   1.00
C2306  C     0.66401   0.86253   0.80786   0.00000  Uiso   1.00
C2307  C     0.83718   0.63564   0.85595   0.00000  Uiso   1.00
C2308  C     0.87790   0.58416   0.80319   0.00000  Uiso   1.00
C2309  C     0.62007   0.91688   0.85555   0.00000  Uiso   1.00
C2310  C     0.88001   0.91841   0.85397   0.00000  Uiso   1.00
C2311  C     0.94120   0.68987   0.83261   0.00000  Uiso   1.00
C2312  C     0.61916   0.58121   0.81074   0.00000  Uiso   1.00
C2313  C     0.65880   0.63258   0.86293   0.00000  Uiso   1.00
C2314  C     0.83568   0.86072   0.81604   0.00000  Uiso   1.00
C2315  C     0.59307   0.84251   0.83275   0.00000  Uiso   1.00
C2316  C     0.90690   0.65699   0.83093   0.00000  Uiso   1.00
C2317  C     0.90687   0.84249   0.83574   0.00000  Uiso   1.00
C2318  C     0.59240   0.65655   0.83289   0.00000  Uiso   1.00
C2319  C     0.84268   0.59293   0.83269   0.00000  Uiso   1.00
C2320  C     0.65806   0.90576   0.83178   0.00000  Uiso   1.00
C2321  C     0.65588   0.59148   0.83594   0.00000  Uiso   1.00
C2322  C     0.55903   0.80967   0.83353   0.00000  Uiso   1.00
C2323  C     0.84221   0.90614   0.83223   0.00000  Uiso   1.00
C2324  C     0.56021   0.65896   0.69966   0.00000  Uiso   1.00
C2325  C     0.56465   0.83980   0.96697   0.00000  Uiso   1.00
C2326  C     0.97009   0.86382   0.71819   0.00000  Uiso   1.00
C2327  C     0.95987   0.63927   0.95435   0.00000  Uiso   1.00
C2328  C     0.80276   0.90346   0.70350   0.00000  Uiso   1.00
C2329  C     0.81618   0.58672   0.96571   0.00000  Uiso   1.00
C2330  C     0.72146   0.61432   0.71930   0.00000  Uiso   1.00
C2331  C     0.70772   0.88970   0.95364   0.00000  Uiso   1.00
C2332  C     0.96151   0.57313   0.74948   0.00000  Uiso   1.00
C2333  C     0.80839   0.93944   0.83259   0.00000  Uiso   1.00
C2334  C     0.52554   0.92639   0.82910   0.00000  Uiso   1.00
C2335  C     0.62232   0.77056   0.74781   0.00000  Uiso   1.00
C2336  C     0.86818   0.70878   0.93364   0.00000  Uiso   1.00
C2337  C     0.62165   0.72301   0.92320   0.00000  Uiso   1.00
C2338  C     0.86918   0.78402   0.74019   0.00000  Uiso   1.00
C2339  C     0.92551   0.88549   0.94134   0.00000  Uiso   1.00
C2340  C     0.51860   0.59345   0.85093   0.00000  Uiso   1.00
C2341  C     0.70719   0.82273   0.74381   0.00000  Uiso   1.00
C2342  C     0.77458   0.67516   0.83690   0.00000  Uiso   1.00
C2343  C     0.86843   0.54189   0.72845   0.00000  Uiso   1.00
C2344  C     0.69059   0.55932   0.83425   0.00000  Uiso   1.00
C2345  C     0.61497   0.95930   0.93057   0.00000  Uiso   1.00
C2346  C     0.87887   0.98129   0.91344   0.00000  Uiso   1.00
C2347  C     0.61325   0.53967   0.73599   0.00000  Uiso   1.00
C2348  C     0.67334   0.62849   0.94414   0.00000  Uiso   1.00
C2349  C     0.77636   0.82500   0.85054   0.00000  Uiso   1.00
C2350  C     0.69144   0.93969   0.83281   0.00000  Uiso   1.00
C2351  C     0.80889   0.55982   0.83353   0.00000  Uiso   1.00
C2352  C     0.50255   0.71025   0.68905   0.00000  Uiso   1.00
Cu2353 Cu    0.50000   0.75000   0.88022   0.00000  Uiso   1.00
Cu2354 Cu    0.50000   0.75000   0.78645   0.00000  Uiso   1.00
Cu2355 Cu    0.75000   0.50000   0.88022   0.00000  Uiso   1.00
Cu2356 Cu    0.75000   0.50000   0.78645   0.00000  Uiso   1.00
H2357  H     0.99734   0.64294   0.70233   0.00000  Uiso   1.00
H2358  H     0.98162   0.89442   0.70109   0.00000  Uiso   1.00
H2359  H     0.95892   0.87470   0.75365   0.00000  Uiso   1.00
H2360  H     0.94318   0.84899   0.69875   0.00000  Uiso   1.00
H2361  H     0.52387   0.65156   0.94160   0.00000  Uiso   1.00
H2362  H     0.97047   0.60680   0.96833   0.00000  Uiso   1.00
H2363  H     0.94395   0.63103   0.92108   0.00000  Uiso   1.00
H2364  H     0.93672   0.65572   0.97913   0.00000  Uiso   1.00
H2365  H     0.73795   0.89512   0.70387   0.00000  Uiso   1.00
H2366  H     0.80868   0.89187   0.66689   0.00000  Uiso   1.00
H2367  H     0.80844   0.87415   0.72497   0.00000  Uiso   1.00
H2368  H     0.56290   0.63156   0.67183   0.00000  Uiso   1.00
H2369  H     0.82559   0.93068   0.71322   0.00000  Uiso   1.00
H2370  H     0.75421   0.60751   0.96236   0.00000  Uiso   1.00
H2371  H     0.82005   0.61533   0.99188   0.00000  Uiso   1.00
H2372  H     0.83257   0.59592   0.93371   0.00000  Uiso   1.00
H2373  H     0.83207   0.55591   0.97752   0.00000  Uiso   1.00
H2374  H     0.78462   0.59498   0.72371   0.00000  Uiso   1.00
H2375  H     0.73291   0.64470   0.70173   0.00000  Uiso   1.00
H2376  H     0.71128   0.62542   0.75505   0.00000  Uiso   1.00
H2377  H     0.69390   0.59992   0.70084   0.00000  Uiso   1.00
H2378  H     0.77155   0.90237   0.93819   0.00000  Uiso   1.00
H2379  H     0.57465   0.64645   0.73113   0.00000  Uiso   1.00
H2380  H     0.71809   0.85759   0.96854   0.00000  Uiso   1.00
H2381  H     0.69271   0.88070   0.92001   0.00000  Uiso   1.00
H2382  H     0.68398   0.90670   0.97731   0.00000  Uiso   1.00
H2383  H     0.93441   0.63642   0.73805   0.00000  Uiso   1.00
H2384  H     0.96058   0.54786   0.77670   0.00000  Uiso   1.00
H2385  H     0.94787   0.55910   0.71681   0.00000  Uiso   1.00
H2386  H     0.99448   0.57988   0.74023   0.00000  Uiso   1.00
H2387  H     0.54289   0.91824   0.89713   0.00000  Uiso   1.00
H2388  H     0.99351   0.93726   0.84039   0.00000  Uiso   1.00
H2389  H     0.52318   0.90457   0.79670   0.00000  Uiso   1.00
H2390  H     0.57854   0.68890   0.68894   0.00000  Uiso   1.00
H2391  H     0.54389   0.95741   0.82191   0.00000  Uiso   1.00
H2392  H     0.66349   0.76754   0.80489   0.00000  Uiso   1.00
H2393  H     0.60782   0.79959   0.73075   0.00000  Uiso   1.00
H2394  H     0.64822   0.75637   0.72538   0.00000  Uiso   1.00
H2395  H     0.59901   0.74317   0.75025   0.00000  Uiso   1.00
H2396  H     0.87851   0.73704   0.86938   0.00000  Uiso   1.00
H2397  H     0.89878   0.72325   0.94486   0.00000  Uiso   1.00
H2398  H     0.86520   0.67392   0.94631   0.00000  Uiso   1.00
H2399  H     0.84264   0.73014   0.94981   0.00000  Uiso   1.00
H2400  H     0.66738   0.72270   0.87113   0.00000  Uiso   1.00
H2401  H     0.50198   0.85674   0.96051   0.00000  Uiso   1.00
H2402  H     0.64818   0.72488   0.94774   0.00000  Uiso   1.00
H2403  H     0.59860   0.69772   0.93522   0.00000  Uiso   1.00
H2404  H     0.60617   0.75675   0.92403   0.00000  Uiso   1.00
H2405  H     0.84186   0.76683   0.80326   0.00000  Uiso   1.00
H2406  H     0.89223   0.75718   0.72902   0.00000  Uiso   1.00
H2407  H     0.87979   0.81676   0.72654   0.00000  Uiso   1.00
H2408  H     0.83833   0.77518   0.72477   0.00000  Uiso   1.00
H2409  H     0.96960   0.87788   0.88790   0.00000  Uiso   1.00
H2410  H     0.89197   0.89518   0.94618   0.00000  Uiso   1.00
H2411  H     0.94385   0.90662   0.96656   0.00000  Uiso   1.00
H2412  H     0.58054   0.81233   0.98517   0.00000  Uiso   1.00
H2413  H     0.92841   0.84897   0.94863   0.00000  Uiso   1.00
H2414  H     0.54213   0.56471   0.78987   0.00000  Uiso   1.00
H2415  H     0.53756   0.58057   0.87956   0.00000  Uiso   1.00
H2416  H     0.99150   0.57028   0.84562   0.00000  Uiso   1.00
H2417  H     0.50575   0.62741   0.86099   0.00000  Uiso   1.00
H2418  H     0.72648   0.87623   0.78774   0.00000  Uiso   1.00
H2419  H     0.70815   0.78653   0.75186   0.00000  Uiso   1.00
H2420  H     0.68216   0.83099   0.71923   0.00000  Uiso   1.00
H2421  H     0.73804   0.82728   0.72650   0.00000  Uiso   1.00
H2422  H     0.79548   0.66676   0.90354   0.00000  Uiso   1.00
H2423  H     0.56634   0.87184   0.98894   0.00000  Uiso   1.00
H2424  H     0.74370   0.68722   0.85084   0.00000  Uiso   1.00
H2425  H     0.76952   0.65304   0.80515   0.00000  Uiso   1.00
H2426  H     0.79292   0.70555   0.82767   0.00000  Uiso   1.00
H2427  H     0.87221   0.51342   0.79305   0.00000  Uiso   1.00
H2428  H     0.87101   0.57632   0.71461   0.00000  Uiso   1.00
H2429  H     0.88847   0.51786   0.70705   0.00000  Uiso   1.00
H2430  H     0.83593   0.52934   0.72474   0.00000  Uiso   1.00
H2431  H     0.62908   0.98747   0.86757   0.00000  Uiso   1.00
H2432  H     0.64486   0.97422   0.94352   0.00000  Uiso   1.00
H2433  H     0.61203   0.92432   0.94291   0.00000  Uiso   1.00
H2434  H     0.58244   0.84479   0.93446   0.00000  Uiso   1.00
H2435  H     0.58850   0.98009   0.94551   0.00000  Uiso   1.00
H2436  H     0.91827   0.97530   0.85544   0.00000  Uiso   1.00
H2437  H     0.90712   0.97997   0.93541   0.00000  Uiso   1.00
H2438  H     0.85335   0.96129   0.92923   0.00000  Uiso   1.00
H2439  H     0.86868   0.51722   0.91289   0.00000  Uiso   1.00
H2440  H     0.63169   0.51164   0.79657   0.00000  Uiso   1.00
H2441  H     0.64498   0.54757   0.72241   0.00000  Uiso   1.00
H2442  H     0.59046   0.56535   0.72497   0.00000  Uiso   1.00
H2443  H     0.60372   0.50593   0.72073   0.00000  Uiso   1.00
H2444  H     0.71833   0.62559   0.89099   0.00000  Uiso   1.00
H2445  H     0.53347   0.84544   0.72348   0.00000  Uiso   1.00
H2446  H     0.63874   0.63257   0.94756   0.00000  Uiso   1.00
H2447  H     0.68799   0.65206   0.97027   0.00000  Uiso   1.00
H2448  H     0.68090   0.59277   0.95136   0.00000  Uiso   1.00
H2449  H     0.79223   0.82102   0.78086   0.00000  Uiso   1.00
H2450  H     0.79830   0.80080   0.86601   0.00000  Uiso   1.00
H2451  H     0.74709   0.80622   0.84203   0.00000  Uiso   1.00
H2452  H     0.76858   0.85290   0.87632   0.00000  Uiso   1.00
N2453  N     0.50000   0.75000   0.95069   0.00000  Uiso   1.00
N2454  N     0.77200   0.57857   0.95678   0.00000  Uiso   1.00
N2455  N     0.75496   0.58131   0.72143   0.00000  Uiso   1.00
N2456  N     0.74361   0.91874   0.94592   0.00000  Uiso   1.00
N2457  N     0.94090   0.61543   0.76454   0.00000  Uiso   1.00
N2458  N     0.54523   0.90144   0.86496   0.00000  Uiso   1.00
N2459  N     0.63712   0.78386   0.79395   0.00000  Uiso   1.00
N2460  N     0.86517   0.70900   0.88360   0.00000  Uiso   1.00
N2461  N     0.63700   0.71179   0.87641   0.00000  Uiso   1.00
N2462  N     0.86567   0.78646   0.79042   0.00000  Uiso   1.00
N2463  N     0.94093   0.89299   0.89482   0.00000  Uiso   1.00
N2464  N     0.50000   0.75000   0.71598   0.00000  Uiso   1.00
N2465  N     0.54349   0.59537   0.80853   0.00000  Uiso   1.00
N2466  N     0.70396   0.85139   0.78612   0.00000  Uiso   1.00
N2467  N     0.79634   0.65010   0.87123   0.00000  Uiso   1.00
N2468  N     0.88137   0.54200   0.77644   0.00000  Uiso   1.00
N2469  N     0.61412   0.95977   0.88039   0.00000  Uiso   1.00
N2470  N     0.88901   0.96489   0.86641   0.00000  Uiso   1.00
N2471  N     0.61389   0.53822   0.78603   0.00000  Uiso   1.00
N2472  N     0.68896   0.63878   0.89842   0.00000  Uiso   1.00
N2473  N     0.79451   0.84356   0.80918   0.00000  Uiso   1.00
N2474  N     0.75000   0.50000   0.95069   0.00000  Uiso   1.00
N2475  N     0.75000   0.50000   0.71598   0.00000  Uiso   1.00
N2476  N     0.51642   0.67023   0.70935   0.00000  Uiso   1.00
N2477  N     0.52120   0.82882   0.95658   0.00000  Uiso   1.00
N2478  N     0.50394   0.83136   0.72130   0.00000  Uiso   1.00
N2479  N     0.99565   0.66842   0.94616   0.00000  Uiso   1.00
N2480  N     0.75998   0.91954   0.71085   0.00000  Uiso   1.00
O2481  O     0.54508   0.70491   0.87291   0.00000  Uiso   1.00
O2482  O     0.70491   0.54509   0.79375   0.00000  Uiso   1.00
O2483  O     0.70491   0.54509   0.87291   0.00000  Uiso   1.00
O2484  O     0.79508   0.95491   0.79375   0.00000  Uiso   1.00
O2485  O     0.70491   0.95491   0.79375   0.00000  Uiso   1.00
O2486  O     0.79508   0.54509   0.87291   0.00000  Uiso   1.00
O2487  O     0.79508   0.54509   0.79375   0.00000  Uiso   1.00
O2488  O     0.70491   0.95491   0.87291   0.00000  Uiso   1.00
O2489  O     0.95491   0.79509   0.79375   0.00000  Uiso   1.00
O2490  O     0.95491   0.79509   0.87291   0.00000  Uiso   1.00
O2491  O     0.54508   0.70491   0.79375   0.00000  Uiso   1.00
O2492  O     0.95491   0.70491   0.79375   0.00000  Uiso   1.00
O2493  O     0.54508   0.79509   0.87291   0.00000  Uiso   1.00
O2494  O     0.54508   0.79509   0.79375   0.00000  Uiso   1.00
O2495  O     0.95491   0.70491   0.87291   0.00000  Uiso   1.00
O2496  O     0.79508   0.95491   0.87291   0.00000  Uiso   1.00
loop_
_geom_bond_atom_site_label_1
_geom_bond_atom_site_label_2
_geom_bond_distance
_geom_bond_site_symmetry_2
_ccdc_geom_bond_type
C1     O193    1.288   .     A
C1     O203    1.308   .     A
C1     C30     1.453   .     S
C2     N189    1.420   .     S
C2     N165    1.379   .     A
C2     C835    1.436   .     S
C3     N190    1.422   .     S
C3     N176    1.367   .     A
C3     C1666   1.436   1_554 S
C4     N191    1.421   .     S
C4     C1104   1.433   .     S
C4     N373    1.369   .     S
C5     N192    1.411   .     S
C5     C1672   1.436   1_554 S
C5     N603    1.368   .     S
C6     N166    1.419   .     S
C6     N186    1.380   .     A
C6     C839    1.436   .     S
C7     N187    1.367   .     A
C7     N167    1.423   .     S
C7     C1670   1.436   1_554 S
C8     N168    1.421   .     S
C8     C837    1.436   .     S
C8     N602    1.369   .     S
C9     N169    1.431   .     S
C9     C20     1.412   .     A
C9     C28     1.420   .     A
C10    C27     1.400   .     A
C10    C21     1.396   .     A
C10    N170    1.423   .     S
C11    C18     1.418   .     A
C11    N171    1.428   .     S
C11    C27     1.410   .     A
C12    C29     1.451   .     S
C12    O201    1.296   .     A
C12    O202    1.300   .     A
C13    N172    1.429   .     S
C13    C28     1.409   .     A
C13    C19     1.398   .     A
C14    N173    1.429   .     S
C14    C30     1.406   .     A
C14    C25     1.396   .     A
C15    C29     1.401   .     A
C15    C26     1.402   .     A
C15    N174    1.427   .     S
C16    C29     1.408   .     A
C16    N175    1.419   .     S
C16    C22     1.398   .     A
C17    C30     1.410   .     A
C17    C24     1.406   .     A
C17    N177    1.427   .     S
C18    C32     1.427   .     A
C18    N178    1.440   .     S
C19    C31     1.404   .     A
C19    N179    1.424   .     S
C20    N180    1.431   .     S
C20    C31     1.412   .     A
C21    N181    1.430   .     S
C21    C32     1.411   .     A
C22    C35     1.406   .     A
C22    N182    1.428   .     S
C23    C28     1.461   .     S
C23    O207    1.305   .     A
C23    O204    1.296   .     A
C24    N183    1.432   .     S
C24    C33     1.412   .     A
C25    N184    1.420   .     S
C25    C33     1.409   .     A
C26    N185    1.419   .     S
C26    C35     1.411   .     A
C27    C34     1.455   .     S
C31    C63     1.454   .     S
C32    C62     1.460   .     S
C33    C56     1.453   .     S
C34    O206    1.290   .     A
C34    O205    1.306   .     A
C35    C45     1.456   .     S
C36    H102    1.112   .     S
C36    H80     1.111   .     S
C36    N188    1.453   .     S
C36    H91     1.104   .     S
C37    H135    1.111   .     S
C37    N189    1.454   .     S
C37    H146    1.104   .     S
C37    H124    1.112   .     S
C38    H70     1.110   .     S
C38    H72     1.110   .     S
C38    H71     1.109   .     S
C38    N398    1.447   .     S
C39    H74     1.111   .     S
C39    H75     1.108   .     S
C39    N191    1.452   .     S
C39    H76     1.112   .     S
C40    N192    1.451   .     S
C40    H79     1.104   .     S
C40    H78     1.106   .     S
C40    H81     1.111   .     S
C41    H83     1.110   .     S
C41    H84     1.099   .     S
C41    N166    1.453   .     S
C41    H85     1.110   .     S
C42    N167    1.447   .     S
C42    H89     1.108   .     S
C42    H88     1.109   .     S
C42    H87     1.110   .     S
C43    N168    1.450   .     S
C43    H94     1.112   .     S
C43    H92     1.111   .     S
C43    H93     1.108   .     S
C44    N169    1.451   .     S
C44    H98     1.101   .     S
C44    H96     1.109   .     S
C44    H97     1.105   .     S
C45    O196    1.307   .     A
C45    O208    1.292   .     A
C46    H101    1.110   .     S
C46    H103    1.112   .     S
C46    N170    1.449   .     S
C46    H308    1.108   1_455 S
C47    H106    1.108   .     S
C47    H107    1.101   .     S
C47    N171    1.454   .     S
C47    H105    1.112   .     S
C48    H110    1.111   .     S
C48    H109    1.111   .     S
C48    N172    1.448   .     S
C48    H111    1.110   .     S
C49    N173    1.450   .     S
C49    H115    1.111   .     S
C49    H114    1.111   .     S
C49    H116    1.107   .     S
C50    H120    1.111   .     S
C50    H119    1.111   .     S
C50    H118    1.110   .     S
C50    N174    1.449   .     S
C51    H123    1.107   .     S
C51    N175    1.449   .     S
C51    H125    1.111   .     S
C51    H122    1.110   .     S
C52    H129    1.103   .     S
C52    H127    1.113   .     S
C52    N177    1.450   .     S
C52    H336    1.109   1_455 S
C53    N178    1.450   .     S
C53    H131    1.103   .     S
C53    H133    1.107   .     S
C53    H132    1.110   .     S
C54    H138    1.111   .     S
C54    H137    1.110   .     S
C54    N179    1.450   .     S
C54    H136    1.108   .     S
C55    H141    1.109   .     S
C55    N180    1.450   .     S
C55    H142    1.105   .     S
C55    H140    1.111   .     S
C56    O195    1.300   .     A
C56    O194    1.296   .     A
C57    H145    1.110   .     S
C57    H144    1.111   .     S
C57    N181    1.449   .     S
C57    H147    1.110   .     S
C58    H149    1.110   .     S
C58    N182    1.448   .     S
C58    H150    1.110   .     S
C58    H567    1.107   .     S
C59    H153    1.108   .     S
C59    H154    1.109   .     S
C59    H155    1.110   .     S
C59    N183    1.447   .     S
C60    N184    1.449   .     S
C60    H158    1.111   .     S
C60    H159    1.107   .     S
C60    H160    1.110   .     S
C61    H164    1.104   .     S
C61    H162    1.112   .     S
C61    N185    1.450   .     S
C61    H163    1.109   .     S
C62    O197    1.300   .     A
C62    O200    1.298   .     A
C63    O198    1.307   .     A
C63    O199    1.290   .     A
C64    N176    1.373   .     A
C64    N188    1.416   .     S
C64    C1876   1.433   1_454 S
Cu65   O205    1.974   .     S
Cu65   N165    2.032   .     S
Cu65   O193    1.956   .     S
Cu65   Cu66    2.704   .     S
Cu65   O410    1.976   1_455 S
Cu65   O415    1.964   1_455 S
Cu66   O206    1.964   .     S
Cu66   N176    2.032   .     S
Cu66   O203    1.976   .     S
Cu66   O409    1.956   1_455 S
Cu66   O412    1.974   1_455 S
Cu67   O198    1.974   .     S
Cu67   O195    1.976   .     S
Cu67   N186    2.032   .     S
Cu67   Cu68    2.704   .     S
Cu67   O616    1.964   1_545 S
Cu67   O624    1.956   1_545 S
Cu68   O613    1.974   1_545 S
Cu68   O612    1.976   1_545 S
Cu68   N187    2.032   .     S
Cu68   O194    1.956   .     S
Cu68   O199    1.964   .     S
H69    N396    1.022   .     S
H73    N399    1.030   1_455 S
H77    N192    1.021   .     S
H82    N166    1.027   .     S
H86    N167    1.029   .     S
H90    N168    1.028   .     S
H95    N169    1.031   .     S
H99    N170    1.030   .     S
H100   C254    1.108   .     S
H104   N171    1.029   .     S
H108   N172    1.030   .     S
H112   N173    1.031   .     S
H113   N189    1.025   .     S
H117   N174    1.030   .     S
H121   N175    1.028   .     S
H126   N177    1.028   .     S
H128   C260    1.109   .     S
H130   N178    1.025   .     S
H134   N179    1.030   .     S
H139   N180    1.030   .     S
H143   N181    1.027   .     S
H148   N182    1.032   .     S
H151   C474    1.107   1_545 S
H152   N183    1.027   .     S
H156   N184    1.028   .     S
H157   N190    1.030   .     S
H161   N185    1.029   .     S
N165   C212    1.369   1_455 S
N186   C424    1.369   1_545 S
N187   C421    1.368   1_545 S
N188   H277    1.022   1_455 S
N190   C246    1.447   1_455 S
N191   H281    1.030   .     S
O196   Cu484   1.976   .     S
O197   Cu484   1.974   .     S
O200   Cu483   1.964   .     S
O201   Cu274   1.956   .     S
O202   Cu273   1.976   .     S
O204   Cu274   1.974   .     S
O207   Cu273   1.964   .     S
O208   Cu483   1.956   .     S
C209   O401    1.288   .     A
C209   O411    1.308   .     A
C209   C238    1.453   .     S
C210   N397    1.420   .     S
C210   N373    1.379   .     A
C210   C1043   1.436   .     S
C211   N398    1.422   .     S
C211   N384    1.367   .     A
C211   C1874   1.436   1_554 S
C212   N399    1.421   .     S
C212   C896    1.433   1_655 S
C212   N165    1.369   1_655 S
C213   N400    1.411   .     S
C213   C1880   1.436   1_554 S
C213   N811    1.368   .     S
C214   N374    1.419   .     S
C214   N394    1.380   .     A
C214   C1047   1.436   .     S
C215   N395    1.367   .     A
C215   N375    1.423   .     S
C215   C1878   1.436   1_554 S
C216   N376    1.421   .     S
C216   C1045   1.436   .     S
C216   N810    1.369   .     S
C217   N377    1.431   .     S
C217   C228    1.412   .     A
C217   C236    1.420   .     A
C218   C235    1.400   .     A
C218   C229    1.396   .     A
C218   N378    1.423   .     S
C219   C226    1.418   .     A
C219   N379    1.428   .     S
C219   C235    1.410   .     A
C220   C237    1.451   .     S
C220   O409    1.296   .     A
C220   O410    1.300   .     A
C221   N380    1.429   .     S
C221   C236    1.409   .     A
C221   C227    1.398   .     A
C222   N381    1.429   .     S
C222   C238    1.406   .     A
C222   C233    1.396   .     A
C223   C237    1.401   .     A
C223   C234    1.402   .     A
C223   N382    1.427   .     S
C224   C237    1.408   .     A
C224   N383    1.419   .     S
C224   C230    1.398   .     A
C225   C238    1.410   .     A
C225   C232    1.406   .     A
C225   N385    1.427   .     S
C226   C240    1.427   .     A
C226   N386    1.440   .     S
C227   C239    1.404   .     A
C227   N387    1.424   .     S
C228   N388    1.431   .     S
C228   C239    1.412   .     A
C229   N389    1.430   .     S
C229   C240    1.411   .     A
C230   C243    1.406   .     A
C230   N390    1.428   .     S
C231   C236    1.461   .     S
C231   O415    1.305   .     A
C231   O412    1.296   .     A
C232   N391    1.432   .     S
C232   C241    1.412   .     A
C233   N392    1.420   .     S
C233   C241    1.409   .     A
C234   N393    1.419   .     S
C234   C243    1.411   .     A
C235   C242    1.455   .     S
C239   C271    1.454   .     S
C240   C270    1.460   .     S
C241   C264    1.453   .     S
C242   O414    1.290   .     A
C242   O413    1.306   .     A
C243   C253    1.456   .     S
C244   H310    1.112   .     S
C244   H288    1.111   .     S
C244   N396    1.453   .     S
C244   H299    1.104   .     S
C245   H343    1.111   .     S
C245   N397    1.454   .     S
C245   H354    1.104   .     S
C245   H332    1.112   .     S
C246   H278    1.110   .     S
C246   H280    1.110   .     S
C246   H279    1.109   .     S
C246   N190    1.447   1_655 S
C247   H282    1.111   .     S
C247   H283    1.108   .     S
C247   N399    1.452   .     S
C247   H284    1.112   .     S
C248   N400    1.451   .     S
C248   H287    1.104   .     S
C248   H286    1.106   .     S
C248   H289    1.111   .     S
C249   H291    1.110   .     S
C249   H292    1.099   .     S
C249   N374    1.453   .     S
C249   H293    1.110   .     S
C250   N375    1.447   .     S
C250   H297    1.108   .     S
C250   H296    1.109   .     S
C250   H295    1.110   .     S
C251   N376    1.450   .     S
C251   H302    1.112   .     S
C251   H300    1.111   .     S
C251   H301    1.108   .     S
C252   N377    1.451   .     S
C252   H306    1.101   .     S
C252   H304    1.109   .     S
C252   H305    1.105   .     S
C253   O404    1.307   .     A
C253   O416    1.292   .     A
C254   H309    1.110   .     S
C254   H311    1.112   .     S
C254   N378    1.449   .     S
C255   H314    1.108   .     S
C255   H315    1.101   .     S
C255   N379    1.454   .     S
C255   H313    1.112   .     S
C256   H318    1.111   .     S
C256   H317    1.111   .     S
C256   N380    1.448   .     S
C256   H319    1.110   .     S
C257   N381    1.450   .     S
C257   H323    1.111   .     S
C257   H322    1.111   .     S
C257   H324    1.107   .     S
C258   H328    1.111   .     S
C258   H327    1.111   .     S
C258   H326    1.110   .     S
C258   N382    1.449   .     S
C259   H331    1.107   .     S
C259   N383    1.449   .     S
C259   H333    1.111   .     S
C259   H330    1.110   .     S
C260   H337    1.103   .     S
C260   H335    1.113   .     S
C260   N385    1.450   .     S
C261   N386    1.450   .     S
C261   H339    1.103   .     S
C261   H341    1.107   .     S
C261   H340    1.110   .     S
C262   H346    1.111   .     S
C262   H345    1.110   .     S
C262   N387    1.450   .     S
C262   H344    1.108   .     S
C263   H349    1.109   .     S
C263   N388    1.450   .     S
C263   H350    1.105   .     S
C263   H348    1.111   .     S
C264   O403    1.300   .     A
C264   O402    1.296   .     A
C265   H353    1.110   .     S
C265   H352    1.111   .     S
C265   N389    1.449   .     S
C265   H355    1.110   .     S
C266   H357    1.110   .     S
C266   N390    1.448   .     S
C266   H358    1.110   .     S
C266   H775    1.107   .     S
C267   H361    1.108   .     S
C267   H362    1.109   .     S
C267   H363    1.110   .     S
C267   N391    1.447   .     S
C268   N392    1.449   .     S
C268   H366    1.111   .     S
C268   H367    1.107   .     S
C268   H368    1.110   .     S
C269   H372    1.104   .     S
C269   H370    1.112   .     S
C269   N393    1.450   .     S
C269   H371    1.109   .     S
C270   O405    1.300   .     A
C270   O408    1.298   .     A
C271   O406    1.307   .     A
C271   O407    1.290   .     A
C272   N384    1.373   .     A
C272   N396    1.416   .     S
C272   C1668   1.433   1_554 S
Cu273  O413    1.974   .     S
Cu273  N373    2.032   .     S
Cu273  O401    1.956   .     S
Cu273  Cu274   2.704   .     S
Cu274  O414    1.964   .     S
Cu274  N384    2.032   .     S
Cu274  O411    1.976   .     S
Cu275  O406    1.974   .     S
Cu275  O403    1.976   .     S
Cu275  N394    2.032   .     S
Cu275  Cu276   2.704   .     S
Cu275  O824    1.964   1_545 S
Cu275  O832    1.956   1_545 S
Cu276  O821    1.974   1_545 S
Cu276  O820    1.976   1_545 S
Cu276  N395    2.032   .     S
Cu276  O402    1.956   .     S
Cu276  O407    1.964   .     S
H277   N188    1.022   1_655 S
H285   N400    1.021   .     S
H290   N374    1.027   .     S
H294   N375    1.029   .     S
H298   N376    1.028   .     S
H303   N377    1.031   .     S
H307   N378    1.030   .     S
H308   C46     1.108   1_655 S
H312   N379    1.029   .     S
H316   N380    1.030   .     S
H320   N381    1.031   .     S
H321   N397    1.025   .     S
H325   N382    1.030   .     S
H329   N383    1.028   .     S
H334   N385    1.028   .     S
H336   C52     1.109   1_655 S
H338   N386    1.025   .     S
H342   N387    1.030   .     S
H347   N388    1.030   .     S
H351   N389    1.027   .     S
H356   N390    1.032   .     S
H359   C682    1.107   1_545 S
H360   N391    1.027   .     S
H364   N392    1.028   .     S
H365   N398    1.030   .     S
H369   N393    1.029   .     S
N394   C632    1.369   1_545 S
N395   C629    1.368   1_545 S
N399   H73     1.030   1_655 S
O404   Cu692   1.976   .     S
O405   Cu692   1.974   .     S
O408   Cu691   1.964   .     S
O409   Cu66    1.956   1_655 S
O410   Cu65    1.976   1_655 S
O412   Cu66    1.974   1_655 S
O415   Cu65    1.964   1_655 S
O416   Cu691   1.956   .     S
C417   O609    1.288   .     A
C417   O619    1.308   .     A
C417   C446    1.453   .     S
C418   N605    1.420   .     S
C418   N581    1.379   .     A
C418   C1251   1.436   .     S
C419   N606    1.422   .     S
C419   N592    1.367   .     A
C419   C2082   1.436   1_554 S
C420   N607    1.421   .     S
C420   C1520   1.433   .     S
C420   N789    1.369   .     S
C421   N608    1.411   .     S
C421   C2088   1.436   1_554 S
C421   N187    1.368   1_565 S
C422   N582    1.419   .     S
C422   N602    1.380   .     A
C422   C1255   1.436   .     S
C423   N603    1.367   .     A
C423   N583    1.423   .     S
C423   C2086   1.436   1_554 S
C424   N584    1.421   .     S
C424   C1253   1.436   .     S
C424   N186    1.369   1_565 S
C425   N585    1.431   .     S
C425   C436    1.412   .     A
C425   C444    1.420   .     A
C426   C443    1.400   .     A
C426   C437    1.396   .     A
C426   N586    1.423   .     S
C427   C434    1.418   .     A
C427   N587    1.428   .     S
C427   C443    1.410   .     A
C428   C445    1.451   .     S
C428   O617    1.296   .     A
C428   O618    1.300   .     A
C429   N588    1.429   .     S
C429   C444    1.409   .     A
C429   C435    1.398   .     A
C430   N589    1.429   .     S
C430   C446    1.406   .     A
C430   C441    1.396   .     A
C431   C445    1.401   .     A
C431   C442    1.402   .     A
C431   N590    1.427   .     S
C432   C445    1.408   .     A
C432   N591    1.419   .     S
C432   C438    1.398   .     A
C433   C446    1.410   .     A
C433   C440    1.406   .     A
C433   N593    1.427   .     S
C434   C448    1.427   .     A
C434   N594    1.440   .     S
C435   C447    1.404   .     A
C435   N595    1.424   .     S
C436   N596    1.431   .     S
C436   C447    1.412   .     A
C437   N597    1.430   .     S
C437   C448    1.411   .     A
C438   C451    1.406   .     A
C438   N598    1.428   .     S
C439   C444    1.461   .     S
C439   O623    1.305   .     A
C439   O620    1.296   .     A
C440   N599    1.432   .     S
C440   C449    1.412   .     A
C441   N600    1.420   .     S
C441   C449    1.409   .     A
C442   N601    1.419   .     S
C442   C451    1.411   .     A
C443   C450    1.455   .     S
C447   C479    1.454   .     S
C448   C478    1.460   .     S
C449   C472    1.453   .     S
C450   O622    1.290   .     A
C450   O621    1.306   .     A
C451   C461    1.456   .     S
C452   H518    1.112   .     S
C452   H496    1.111   .     S
C452   N604    1.453   .     S
C452   H507    1.104   .     S
C453   H551    1.111   .     S
C453   N605    1.454   .     S
C453   H562    1.104   .     S
C453   H540    1.112   .     S
C454   H486    1.110   .     S
C454   H488    1.110   .     S
C454   H487    1.109   .     S
C454   N814    1.447   .     S
C455   H490    1.111   .     S
C455   H491    1.108   .     S
C455   N607    1.452   .     S
C455   H492    1.112   .     S
C456   N608    1.451   .     S
C456   H495    1.104   .     S
C456   H494    1.106   .     S
C456   H497    1.111   .     S
C457   H499    1.110   .     S
C457   H500    1.099   .     S
C457   N582    1.453   .     S
C457   H501    1.110   .     S
C458   N583    1.447   .     S
C458   H505    1.108   .     S
C458   H504    1.109   .     S
C458   H503    1.110   .     S
C459   N584    1.450   .     S
C459   H510    1.112   .     S
C459   H508    1.111   .     S
C459   H509    1.108   .     S
C460   N585    1.451   .     S
C460   H514    1.101   .     S
C460   H512    1.109   .     S
C460   H513    1.105   .     S
C461   O612    1.307   .     A
C461   O624    1.292   .     A
C462   H517    1.110   .     S
C462   H519    1.112   .     S
C462   N586    1.449   .     S
C462   H724    1.108   1_455 S
C463   H522    1.108   .     S
C463   H523    1.101   .     S
C463   N587    1.454   .     S
C463   H521    1.112   .     S
C464   H526    1.111   .     S
C464   H525    1.111   .     S
C464   N588    1.448   .     S
C464   H527    1.110   .     S
C465   N589    1.450   .     S
C465   H531    1.111   .     S
C465   H530    1.111   .     S
C465   H532    1.107   .     S
C466   H536    1.111   .     S
C466   H535    1.111   .     S
C466   H534    1.110   .     S
C466   N590    1.449   .     S
C467   H539    1.107   .     S
C467   N591    1.449   .     S
C467   H541    1.111   .     S
C467   H538    1.110   .     S
C468   H545    1.103   .     S
C468   H543    1.113   .     S
C468   N593    1.450   .     S
C468   H752    1.109   1_455 S
C469   N594    1.450   .     S
C469   H547    1.103   .     S
C469   H549    1.107   .     S
C469   H548    1.110   .     S
C470   H554    1.111   .     S
C470   H553    1.110   .     S
C470   N595    1.450   .     S
C470   H552    1.108   .     S
C471   H557    1.109   .     S
C471   N596    1.450   .     S
C471   H558    1.105   .     S
C471   H556    1.111   .     S
C472   O611    1.300   .     A
C472   O610    1.296   .     A
C473   H561    1.110   .     S
C473   H560    1.111   .     S
C473   N597    1.449   .     S
C473   H563    1.110   .     S
C474   H565    1.110   .     S
C474   N598    1.448   .     S
C474   H566    1.110   .     S
C474   H151    1.107   1_565 S
C475   H569    1.108   .     S
C475   H570    1.109   .     S
C475   H571    1.110   .     S
C475   N599    1.447   .     S
C476   N600    1.449   .     S
C476   H574    1.111   .     S
C476   H575    1.107   .     S
C476   H576    1.110   .     S
C477   H580    1.104   .     S
C477   H578    1.112   .     S
C477   N601    1.450   .     S
C477   H579    1.109   .     S
C478   O613    1.300   .     A
C478   O616    1.298   .     A
C479   O614    1.307   .     A
C479   O615    1.290   .     A
C480   N592    1.373   .     A
C480   N604    1.416   .     S
C480   C2292   1.433   1_454 S
Cu481  O621    1.974   .     S
Cu481  N581    2.032   .     S
Cu481  O609    1.956   .     S
Cu481  Cu482   2.704   .     S
Cu481  O826    1.976   1_455 S
Cu481  O831    1.964   1_455 S
Cu482  O622    1.964   .     S
Cu482  N592    2.032   .     S
Cu482  O619    1.976   .     S
Cu482  O825    1.956   1_455 S
Cu482  O828    1.974   1_455 S
Cu483  O614    1.974   .     S
Cu483  O611    1.976   .     S
Cu483  N602    2.032   .     S
Cu483  Cu484   2.704   .     S
Cu484  N603    2.032   .     S
Cu484  O610    1.956   .     S
Cu484  O615    1.964   .     S
H485   N812    1.022   .     S
H489   N815    1.030   1_455 S
H493   N608    1.021   .     S
H498   N582    1.027   .     S
H502   N583    1.029   .     S
H506   N584    1.028   .     S
H511   N585    1.031   .     S
H515   N586    1.030   .     S
H516   C670    1.108   .     S
H520   N587    1.029   .     S
H524   N588    1.030   .     S
H528   N589    1.031   .     S
H529   N605    1.025   .     S
H533   N590    1.030   .     S
H537   N591    1.028   .     S
H542   N593    1.028   .     S
H544   C676    1.109   .     S
H546   N594    1.025   .     S
H550   N595    1.030   .     S
H555   N596    1.030   .     S
H559   N597    1.027   .     S
H564   N598    1.032   .     S
H568   N599    1.027   .     S
H572   N600    1.028   .     S
H573   N606    1.030   .     S
H577   N601    1.029   .     S
N581   C628    1.369   1_455 S
N604   H693    1.022   1_455 S
N606   C662    1.447   1_455 S
N607   H697    1.030   .     S
O612   Cu68    1.976   1_565 S
O613   Cu68    1.974   1_565 S
O616   Cu67    1.964   1_565 S
O617   Cu690   1.956   .     S
O618   Cu689   1.976   .     S
O620   Cu690   1.974   .     S
O623   Cu689   1.964   .     S
O624   Cu67    1.956   1_565 S
C625   O817    1.288   .     A
C625   O827    1.308   .     A
C625   C654    1.453   .     S
C626   N813    1.420   .     S
C626   N789    1.379   .     A
C626   C1459   1.436   .     S
C627   N814    1.422   .     S
C627   N800    1.367   .     A
C627   C2290   1.436   1_554 S
C628   N815    1.421   .     S
C628   C1312   1.433   1_655 S
C628   N581    1.369   1_655 S
C629   N816    1.411   .     S
C629   C2296   1.436   1_554 S
C629   N395    1.368   1_565 S
C630   N790    1.419   .     S
C630   N810    1.380   .     A
C630   C1463   1.436   .     S
C631   N811    1.367   .     A
C631   N791    1.423   .     S
C631   C2294   1.436   1_554 S
C632   N792    1.421   .     S
C632   C1461   1.436   .     S
C632   N394    1.369   1_565 S
C633   N793    1.431   .     S
C633   C644    1.412   .     A
C633   C652    1.420   .     A
C634   C651    1.400   .     A
C634   C645    1.396   .     A
C634   N794    1.423   .     S
C635   C642    1.418   .     A
C635   N795    1.428   .     S
C635   C651    1.410   .     A
C636   C653    1.451   .     S
C636   O825    1.296   .     A
C636   O826    1.300   .     A
C637   N796    1.429   .     S
C637   C652    1.409   .     A
C637   C643    1.398   .     A
C638   N797    1.429   .     S
C638   C654    1.406   .     A
C638   C649    1.396   .     A
C639   C653    1.401   .     A
C639   C650    1.402   .     A
C639   N798    1.427   .     S
C640   C653    1.408   .     A
C640   N799    1.419   .     S
C640   C646    1.398   .     A
C641   C654    1.410   .     A
C641   C648    1.406   .     A
C641   N801    1.427   .     S
C642   C656    1.427   .     A
C642   N802    1.440   .     S
C643   C655    1.404   .     A
C643   N803    1.424   .     S
C644   N804    1.431   .     S
C644   C655    1.412   .     A
C645   N805    1.430   .     S
C645   C656    1.411   .     A
C646   C659    1.406   .     A
C646   N806    1.428   .     S
C647   C652    1.461   .     S
C647   O831    1.305   .     A
C647   O828    1.296   .     A
C648   N807    1.432   .     S
C648   C657    1.412   .     A
C649   N808    1.420   .     S
C649   C657    1.409   .     A
C650   N809    1.419   .     S
C650   C659    1.411   .     A
C651   C658    1.455   .     S
C655   C687    1.454   .     S
C656   C686    1.460   .     S
C657   C680    1.453   .     S
C658   O830    1.290   .     A
C658   O829    1.306   .     A
C659   C669    1.456   .     S
C660   H726    1.112   .     S
C660   H704    1.111   .     S
C660   N812    1.453   .     S
C660   H715    1.104   .     S
C661   H759    1.111   .     S
C661   N813    1.454   .     S
C661   H770    1.104   .     S
C661   H748    1.112   .     S
C662   H694    1.110   .     S
C662   H696    1.110   .     S
C662   H695    1.109   .     S
C662   N606    1.447   1_655 S
C663   H698    1.111   .     S
C663   H699    1.108   .     S
C663   N815    1.452   .     S
C663   H700    1.112   .     S
C664   N816    1.451   .     S
C664   H703    1.104   .     S
C664   H702    1.106   .     S
C664   H705    1.111   .     S
C665   H707    1.110   .     S
C665   H708    1.099   .     S
C665   N790    1.453   .     S
C665   H709    1.110   .     S
C666   N791    1.447   .     S
C666   H713    1.108   .     S
C666   H712    1.109   .     S
C666   H711    1.110   .     S
C667   N792    1.450   .     S
C667   H718    1.112   .     S
C667   H716    1.111   .     S
C667   H717    1.108   .     S
C668   N793    1.451   .     S
C668   H722    1.101   .     S
C668   H720    1.109   .     S
C668   H721    1.105   .     S
C669   O820    1.307   .     A
C669   O832    1.292   .     A
C670   H725    1.110   .     S
C670   H727    1.112   .     S
C670   N794    1.449   .     S
C671   H730    1.108   .     S
C671   H731    1.101   .     S
C671   N795    1.454   .     S
C671   H729    1.112   .     S
C672   H734    1.111   .     S
C672   H733    1.111   .     S
C672   N796    1.448   .     S
C672   H735    1.110   .     S
C673   N797    1.450   .     S
C673   H739    1.111   .     S
C673   H738    1.111   .     S
C673   H740    1.107   .     S
C674   H744    1.111   .     S
C674   H743    1.111   .     S
C674   H742    1.110   .     S
C674   N798    1.449   .     S
C675   H747    1.107   .     S
C675   N799    1.449   .     S
C675   H749    1.111   .     S
C675   H746    1.110   .     S
C676   H753    1.103   .     S
C676   H751    1.113   .     S
C676   N801    1.450   .     S
C677   N802    1.450   .     S
C677   H755    1.103   .     S
C677   H757    1.107   .     S
C677   H756    1.110   .     S
C678   H762    1.111   .     S
C678   H761    1.110   .     S
C678   N803    1.450   .     S
C678   H760    1.108   .     S
C679   H765    1.109   .     S
C679   N804    1.450   .     S
C679   H766    1.105   .     S
C679   H764    1.111   .     S
C680   O819    1.300   .     A
C680   O818    1.296   .     A
C681   H769    1.110   .     S
C681   H768    1.111   .     S
C681   N805    1.449   .     S
C681   H771    1.110   .     S
C682   H773    1.110   .     S
C682   N806    1.448   .     S
C682   H774    1.110   .     S
C682   H359    1.107   1_565 S
C683   H777    1.108   .     S
C683   H778    1.109   .     S
C683   H779    1.110   .     S
C683   N807    1.447   .     S
C684   N808    1.449   .     S
C684   H782    1.111   .     S
C684   H783    1.107   .     S
C684   H784    1.110   .     S
C685   H788    1.104   .     S
C685   H786    1.112   .     S
C685   N809    1.450   .     S
C685   H787    1.109   .     S
C686   O821    1.300   .     A
C686   O824    1.298   .     A
C687   O822    1.307   .     A
C687   O823    1.290   .     A
C688   N800    1.373   .     A
C688   N812    1.416   .     S
C688   C2084   1.433   1_554 S
Cu689  O829    1.974   .     S
Cu689  N789    2.032   .     S
Cu689  O817    1.956   .     S
Cu689  Cu690   2.704   .     S
Cu690  O830    1.964   .     S
Cu690  N800    2.032   .     S
Cu690  O827    1.976   .     S
Cu691  O822    1.974   .     S
Cu691  O819    1.976   .     S
Cu691  N810    2.032   .     S
Cu691  Cu692   2.704   .     S
Cu692  N811    2.032   .     S
Cu692  O818    1.956   .     S
Cu692  O823    1.964   .     S
H693   N604    1.022   1_655 S
H701   N816    1.021   .     S
H706   N790    1.027   .     S
H710   N791    1.029   .     S
H714   N792    1.028   .     S
H719   N793    1.031   .     S
H723   N794    1.030   .     S
H724   C462    1.108   1_655 S
H728   N795    1.029   .     S
H732   N796    1.030   .     S
H736   N797    1.031   .     S
H737   N813    1.025   .     S
H741   N798    1.030   .     S
H745   N799    1.028   .     S
H750   N801    1.028   .     S
H752   C468    1.109   1_655 S
H754   N802    1.025   .     S
H758   N803    1.030   .     S
H763   N804    1.030   .     S
H767   N805    1.027   .     S
H772   N806    1.032   .     S
H776   N807    1.027   .     S
H780   N808    1.028   .     S
H781   N814    1.030   .     S
H785   N809    1.029   .     S
N815   H489    1.030   1_655 S
O820   Cu276   1.976   1_565 S
O821   Cu276   1.974   1_565 S
O824   Cu275   1.964   1_565 S
O825   Cu482   1.956   1_655 S
O826   Cu481   1.976   1_655 S
O828   Cu482   1.974   1_655 S
O831   Cu481   1.964   1_655 S
O832   Cu275   1.956   1_565 S
C833   O1025   1.288   .     A
C833   O1035   1.308   .     A
C833   C862    1.453   .     S
C834   N1021   1.420   .     S
C834   N997    1.379   .     A
C834   C1667   1.436   .     S
C835   N1022   1.422   .     S
C835   N1008   1.367   .     A
C836   N1023   1.421   .     S
C836   C1936   1.433   .     S
C836   N1205   1.369   .     S
C837   N1024   1.411   .     S
C837   N1435   1.368   .     S
C838   N998    1.419   .     S
C838   N1018   1.380   .     A
C838   C1671   1.436   .     S
C839   N1019   1.367   .     A
C839   N999    1.423   .     S
C840   N1000   1.421   .     S
C840   C1669   1.436   .     S
C840   N1434   1.369   .     S
C841   N1001   1.431   .     S
C841   C852    1.412   .     A
C841   C860    1.420   .     A
C842   C859    1.400   .     A
C842   C853    1.396   .     A
C842   N1002   1.423   .     S
C843   C850    1.418   .     A
C843   N1003   1.428   .     S
C843   C859    1.410   .     A
C844   C861    1.451   .     S
C844   O1033   1.296   .     A
C844   O1034   1.300   .     A
C845   N1004   1.429   .     S
C845   C860    1.409   .     A
C845   C851    1.398   .     A
C846   N1005   1.429   .     S
C846   C862    1.406   .     A
C846   C857    1.396   .     A
C847   C861    1.401   .     A
C847   C858    1.402   .     A
C847   N1006   1.427   .     S
C848   C861    1.408   .     A
C848   N1007   1.419   .     S
C848   C854    1.398   .     A
C849   C862    1.410   .     A
C849   C856    1.406   .     A
C849   N1009   1.427   .     S
C850   C864    1.427   .     A
C850   N1010   1.440   .     S
C851   C863    1.404   .     A
C851   N1011   1.424   .     S
C852   N1012   1.431   .     S
C852   C863    1.412   .     A
C853   N1013   1.430   .     S
C853   C864    1.411   .     A
C854   C867    1.406   .     A
C854   N1014   1.428   .     S
C855   C860    1.461   .     S
C855   O1039   1.305   .     A
C855   O1036   1.296   .     A
C856   N1015   1.432   .     S
C856   C865    1.412   .     A
C857   N1016   1.420   .     S
C857   C865    1.409   .     A
C858   N1017   1.419   .     S
C858   C867    1.411   .     A
C859   C866    1.455   .     S
C863   C895    1.454   .     S
C864   C894    1.460   .     S
C865   C888    1.453   .     S
C866   O1038   1.290   .     A
C866   O1037   1.306   .     A
C867   C877    1.456   .     S
C868   H934    1.112   .     S
C868   H912    1.111   .     S
C868   N1020   1.453   .     S
C868   H923    1.104   .     S
C869   H967    1.111   .     S
C869   N1021   1.454   .     S
C869   H978    1.104   .     S
C869   H956    1.112   .     S
C870   H902    1.110   .     S
C870   H904    1.110   .     S
C870   H903    1.109   .     S
C870   N1230   1.447   .     S
C871   H906    1.111   .     S
C871   H907    1.108   .     S
C871   N1023   1.452   .     S
C871   H908    1.112   .     S
C872   N1024   1.451   .     S
C872   H911    1.104   .     S
C872   H910    1.106   .     S
C872   H913    1.111   .     S
C873   H915    1.110   .     S
C873   H916    1.099   .     S
C873   N998    1.453   .     S
C873   H917    1.110   .     S
C874   N999    1.447   .     S
C874   H921    1.108   .     S
C874   H920    1.109   .     S
C874   H919    1.110   .     S
C875   N1000   1.450   .     S
C875   H926    1.112   .     S
C875   H924    1.111   .     S
C875   H925    1.108   .     S
C876   N1001   1.451   .     S
C876   H930    1.101   .     S
C876   H928    1.109   .     S
C876   H929    1.105   .     S
C877   O1028   1.307   .     A
C877   O1040   1.292   .     A
C878   H933    1.110   .     S
C878   H935    1.112   .     S
C878   N1002   1.449   .     S
C878   H1140   1.108   1_455 S
C879   H938    1.108   .     S
C879   H939    1.101   .     S
C879   N1003   1.454   .     S
C879   H937    1.112   .     S
C880   H942    1.111   .     S
C880   H941    1.111   .     S
C880   N1004   1.448   .     S
C880   H943    1.110   .     S
C881   N1005   1.450   .     S
C881   H947    1.111   .     S
C881   H946    1.111   .     S
C881   H948    1.107   .     S
C882   H952    1.111   .     S
C882   H951    1.111   .     S
C882   H950    1.110   .     S
C882   N1006   1.449   .     S
C883   H955    1.107   .     S
C883   N1007   1.449   .     S
C883   H957    1.111   .     S
C883   H954    1.110   .     S
C884   H961    1.103   .     S
C884   H959    1.113   .     S
C884   N1009   1.450   .     S
C884   H1168   1.109   1_455 S
C885   N1010   1.450   .     S
C885   H963    1.103   .     S
C885   H965    1.107   .     S
C885   H964    1.110   .     S
C886   H970    1.111   .     S
C886   H969    1.110   .     S
C886   N1011   1.450   .     S
C886   H968    1.108   .     S
C887   H973    1.109   .     S
C887   N1012   1.450   .     S
C887   H974    1.105   .     S
C887   H972    1.111   .     S
C888   O1027   1.300   .     A
C888   O1026   1.296   .     A
C889   H977    1.110   .     S
C889   H976    1.111   .     S
C889   N1013   1.449   .     S
C889   H979    1.110   .     S
C890   H981    1.110   .     S
C890   N1014   1.448   .     S
C890   H982    1.110   .     S
C890   H1399   1.107   .     S
C891   H985    1.108   .     S
C891   H986    1.109   .     S
C891   H987    1.110   .     S
C891   N1015   1.447   .     S
C892   N1016   1.449   .     S
C892   H990    1.111   .     S
C892   H991    1.107   .     S
C892   H992    1.110   .     S
C893   H996    1.104   .     S
C893   H994    1.112   .     S
C893   N1017   1.450   .     S
C893   H995    1.109   .     S
C894   O1029   1.300   .     A
C894   O1032   1.298   .     A
C895   O1030   1.307   .     A
C895   O1031   1.290   .     A
C896   N1008   1.373   .     A
C896   N1020   1.416   .     S
C896   C212    1.433   1_455 S
Cu897  O1037   1.974   .     S
Cu897  N997    2.032   .     S
Cu897  O1025   1.956   .     S
Cu897  Cu898   2.704   .     S
Cu897  O1242   1.976   1_455 S
Cu897  O1247   1.964   1_455 S
Cu898  O1038   1.964   .     S
Cu898  N1008   2.032   .     S
Cu898  O1035   1.976   .     S
Cu898  O1241   1.956   1_455 S
Cu898  O1244   1.974   1_455 S
Cu899  O1030   1.974   .     S
Cu899  O1027   1.976   .     S
Cu899  N1018   2.032   .     S
Cu899  Cu900   2.704   .     S
Cu899  O1448   1.964   1_545 S
Cu899  O1456   1.956   1_545 S
Cu900  O1445   1.974   1_545 S
Cu900  O1444   1.976   1_545 S
Cu900  N1019   2.032   .     S
Cu900  O1026   1.956   .     S
Cu900  O1031   1.964   .     S
H901   N1228   1.022   .     S
H905   N1231   1.030   1_455 S
H909   N1024   1.021   .     S
H914   N998    1.027   .     S
H918   N999    1.029   .     S
H922   N1000   1.028   .     S
H927   N1001   1.031   .     S
H931   N1002   1.030   .     S
H932   C1086   1.108   .     S
H936   N1003   1.029   .     S
H940   N1004   1.030   .     S
H944   N1005   1.031   .     S
H945   N1021   1.025   .     S
H949   N1006   1.030   .     S
H953   N1007   1.028   .     S
H958   N1009   1.028   .     S
H960   C1092   1.109   .     S
H962   N1010   1.025   .     S
H966   N1011   1.030   .     S
H971   N1012   1.030   .     S
H975   N1013   1.027   .     S
H980   N1014   1.032   .     S
H983   C1306   1.107   1_545 S
H984   N1015   1.027   .     S
H988   N1016   1.028   .     S
H989   N1022   1.030   .     S
H993   N1017   1.029   .     S
N997   C1044   1.369   1_455 S
N1018  C1256   1.369   1_545 S
N1019  C1253   1.368   1_545 S
N1020  H1109   1.022   1_455 S
N1022  C1078   1.447   1_455 S
N1023  H1113   1.030   .     S
O1028  Cu1316  1.976   .     S
O1029  Cu1316  1.974   .     S
O1032  Cu1315  1.964   .     S
O1033  Cu1106  1.956   .     S
O1034  Cu1105  1.976   .     S
O1036  Cu1106  1.974   .     S
O1039  Cu1105  1.964   .     S
O1040  Cu1315  1.956   .     S
C1041  O1233   1.288   .     A
C1041  O1243   1.308   .     A
C1041  C1070   1.453   .     S
C1042  N1229   1.420   .     S
C1042  N1205   1.379   .     A
C1042  C1875   1.436   .     S
C1043  N1230   1.422   .     S
C1043  N1216   1.367   .     A
C1044  N1231   1.421   .     S
C1044  C1728   1.433   1_655 S
C1044  N997    1.369   1_655 S
C1045  N1232   1.411   .     S
C1045  N1643   1.368   .     S
C1046  N1206   1.419   .     S
C1046  N1226   1.380   .     A
C1046  C1879   1.436   .     S
C1047  N1227   1.367   .     A
C1047  N1207   1.423   .     S
C1048  N1208   1.421   .     S
C1048  C1877   1.436   .     S
C1048  N1642   1.369   .     S
C1049  N1209   1.431   .     S
C1049  C1060   1.412   .     A
C1049  C1068   1.420   .     A
C1050  C1067   1.400   .     A
C1050  C1061   1.396   .     A
C1050  N1210   1.423   .     S
C1051  C1058   1.418   .     A
C1051  N1211   1.428   .     S
C1051  C1067   1.410   .     A
C1052  C1069   1.451   .     S
C1052  O1241   1.296   .     A
C1052  O1242   1.300   .     A
C1053  N1212   1.429   .     S
C1053  C1068   1.409   .     A
C1053  C1059   1.398   .     A
C1054  N1213   1.429   .     S
C1054  C1070   1.406   .     A
C1054  C1065   1.396   .     A
C1055  C1069   1.401   .     A
C1055  C1066   1.402   .     A
C1055  N1214   1.427   .     S
C1056  C1069   1.408   .     A
C1056  N1215   1.419   .     S
C1056  C1062   1.398   .     A
C1057  C1070   1.410   .     A
C1057  C1064   1.406   .     A
C1057  N1217   1.427   .     S
C1058  C1072   1.427   .     A
C1058  N1218   1.440   .     S
C1059  C1071   1.404   .     A
C1059  N1219   1.424   .     S
C1060  N1220   1.431   .     S
C1060  C1071   1.412   .     A
C1061  N1221   1.430   .     S
C1061  C1072   1.411   .     A
C1062  C1075   1.406   .     A
C1062  N1222   1.428   .     S
C1063  C1068   1.461   .     S
C1063  O1247   1.305   .     A
C1063  O1244   1.296   .     A
C1064  N1223   1.432   .     S
C1064  C1073   1.412   .     A
C1065  N1224   1.420   .     S
C1065  C1073   1.409   .     A
C1066  N1225   1.419   .     S
C1066  C1075   1.411   .     A
C1067  C1074   1.455   .     S
C1071  C1103   1.454   .     S
C1072  C1102   1.460   .     S
C1073  C1096   1.453   .     S
C1074  O1246   1.290   .     A
C1074  O1245   1.306   .     A
C1075  C1085   1.456   .     S
C1076  H1142   1.112   .     S
C1076  H1120   1.111   .     S
C1076  N1228   1.453   .     S
C1076  H1131   1.104   .     S
C1077  H1175   1.111   .     S
C1077  N1229   1.454   .     S
C1077  H1186   1.104   .     S
C1077  H1164   1.112   .     S
C1078  H1110   1.110   .     S
C1078  H1112   1.110   .     S
C1078  H1111   1.109   .     S
C1078  N1022   1.447   1_655 S
C1079  H1114   1.111   .     S
C1079  H1115   1.108   .     S
C1079  N1231   1.452   .     S
C1079  H1116   1.112   .     S
C1080  N1232   1.451   .     S
C1080  H1119   1.104   .     S
C1080  H1118   1.106   .     S
C1080  H1121   1.111   .     S
C1081  H1123   1.110   .     S
C1081  H1124   1.099   .     S
C1081  N1206   1.453   .     S
C1081  H1125   1.110   .     S
C1082  N1207   1.447   .     S
C1082  H1129   1.108   .     S
C1082  H1128   1.109   .     S
C1082  H1127   1.110   .     S
C1083  N1208   1.450   .     S
C1083  H1134   1.112   .     S
C1083  H1132   1.111   .     S
C1083  H1133   1.108   .     S
C1084  N1209   1.451   .     S
C1084  H1138   1.101   .     S
C1084  H1136   1.109   .     S
C1084  H1137   1.105   .     S
C1085  O1236   1.307   .     A
C1085  O1248   1.292   .     A
C1086  H1141   1.110   .     S
C1086  H1143   1.112   .     S
C1086  N1210   1.449   .     S
C1087  H1146   1.108   .     S
C1087  H1147   1.101   .     S
C1087  N1211   1.454   .     S
C1087  H1145   1.112   .     S
C1088  H1150   1.111   .     S
C1088  H1149   1.111   .     S
C1088  N1212   1.448   .     S
C1088  H1151   1.110   .     S
C1089  N1213   1.450   .     S
C1089  H1155   1.111   .     S
C1089  H1154   1.111   .     S
C1089  H1156   1.107   .     S
C1090  H1160   1.111   .     S
C1090  H1159   1.111   .     S
C1090  H1158   1.110   .     S
C1090  N1214   1.449   .     S
C1091  H1163   1.107   .     S
C1091  N1215   1.449   .     S
C1091  H1165   1.111   .     S
C1091  H1162   1.110   .     S
C1092  H1169   1.103   .     S
C1092  H1167   1.113   .     S
C1092  N1217   1.450   .     S
C1093  N1218   1.450   .     S
C1093  H1171   1.103   .     S
C1093  H1173   1.107   .     S
C1093  H1172   1.110   .     S
C1094  H1178   1.111   .     S
C1094  H1177   1.110   .     S
C1094  N1219   1.450   .     S
C1094  H1176   1.108   .     S
C1095  H1181   1.109   .     S
C1095  N1220   1.450   .     S
C1095  H1182   1.105   .     S
C1095  H1180   1.111   .     S
C1096  O1235   1.300   .     A
C1096  O1234   1.296   .     A
C1097  H1185   1.110   .     S
C1097  H1184   1.111   .     S
C1097  N1221   1.449   .     S
C1097  H1187   1.110   .     S
C1098  H1189   1.110   .     S
C1098  N1222   1.448   .     S
C1098  H1190   1.110   .     S
C1098  H1607   1.107   .     S
C1099  H1193   1.108   .     S
C1099  H1194   1.109   .     S
C1099  H1195   1.110   .     S
C1099  N1223   1.447   .     S
C1100  N1224   1.449   .     S
C1100  H1198   1.111   .     S
C1100  H1199   1.107   .     S
C1100  H1200   1.110   .     S
C1101  H1204   1.104   .     S
C1101  H1202   1.112   .     S
C1101  N1225   1.450   .     S
C1101  H1203   1.109   .     S
C1102  O1237   1.300   .     A
C1102  O1240   1.298   .     A
C1103  O1238   1.307   .     A
C1103  O1239   1.290   .     A
C1104  N1216   1.373   .     A
C1104  N1228   1.416   .     S
Cu1105 O1245   1.974   .     S
Cu1105 N1205   2.032   .     S
Cu1105 O1233   1.956   .     S
Cu1105 Cu1106  2.704   .     S
Cu1106 O1246   1.964   .     S
Cu1106 N1216   2.032   .     S
Cu1106 O1243   1.976   .     S
Cu1107 O1238   1.974   .     S
Cu1107 O1235   1.976   .     S
Cu1107 N1226   2.032   .     S
Cu1107 Cu1108  2.704   .     S
Cu1107 O1656   1.964   1_545 S
Cu1107 O1664   1.956   1_545 S
Cu1108 O1653   1.974   1_545 S
Cu1108 O1652   1.976   1_545 S
Cu1108 N1227   2.032   .     S
Cu1108 O1234   1.956   .     S
Cu1108 O1239   1.964   .     S
H1109  N1020   1.022   1_655 S
H1117  N1232   1.021   .     S
H1122  N1206   1.027   .     S
H1126  N1207   1.029   .     S
H1130  N1208   1.028   .     S
H1135  N1209   1.031   .     S
H1139  N1210   1.030   .     S
H1140  C878    1.108   1_655 S
H1144  N1211   1.029   .     S
H1148  N1212   1.030   .     S
H1152  N1213   1.031   .     S
H1153  N1229   1.025   .     S
H1157  N1214   1.030   .     S
H1161  N1215   1.028   .     S
H1166  N1217   1.028   .     S
H1168  C884    1.109   1_655 S
H1170  N1218   1.025   .     S
H1174  N1219   1.030   .     S
H1179  N1220   1.030   .     S
H1183  N1221   1.027   .     S
H1188  N1222   1.032   .     S
H1191  C1514   1.107   1_545 S
H1192  N1223   1.027   .     S
H1196  N1224   1.028   .     S
H1197  N1230   1.030   .     S
H1201  N1225   1.029   .     S
N1226  C1464   1.369   1_545 S
N1227  C1461   1.368   1_545 S
N1231  H905    1.030   1_655 S
O1236  Cu1524  1.976   .     S
O1237  Cu1524  1.974   .     S
O1240  Cu1523  1.964   .     S
O1241  Cu898   1.956   1_655 S
O1242  Cu897   1.976   1_655 S
O1244  Cu898   1.974   1_655 S
O1247  Cu897   1.964   1_655 S
O1248  Cu1523  1.956   .     S
C1249  O1441   1.288   .     A
C1249  O1451   1.308   .     A
C1249  C1278   1.453   .     S
C1250  N1437   1.420   .     S
C1250  N1413   1.379   .     A
C1250  C2083   1.436   .     S
C1251  N1438   1.422   .     S
C1251  N1424   1.367   .     A
C1252  N1439   1.421   .     S
C1252  C2352   1.433   .     S
C1252  N1621   1.369   .     S
C1253  N1440   1.411   .     S
C1253  N1019   1.368   1_565 S
C1254  N1414   1.419   .     S
C1254  N1434   1.380   .     A
C1254  C2087   1.436   .     S
C1255  N1435   1.367   .     A
C1255  N1415   1.423   .     S
C1256  N1416   1.421   .     S
C1256  C2085   1.436   .     S
C1256  N1018   1.369   1_565 S
C1257  N1417   1.431   .     S
C1257  C1268   1.412   .     A
C1257  C1276   1.420   .     A
C1258  C1275   1.400   .     A
C1258  C1269   1.396   .     A
C1258  N1418   1.423   .     S
C1259  C1266   1.418   .     A
C1259  N1419   1.428   .     S
C1259  C1275   1.410   .     A
C1260  C1277   1.451   .     S
C1260  O1449   1.296   .     A
C1260  O1450   1.300   .     A
C1261  N1420   1.429   .     S
C1261  C1276   1.409   .     A
C1261  C1267   1.398   .     A
C1262  N1421   1.429   .     S
C1262  C1278   1.406   .     A
C1262  C1273   1.396   .     A
C1263  C1277   1.401   .     A
C1263  C1274   1.402   .     A
C1263  N1422   1.427   .     S
C1264  C1277   1.408   .     A
C1264  N1423   1.419   .     S
C1264  C1270   1.398   .     A
C1265  C1278   1.410   .     A
C1265  C1272   1.406   .     A
C1265  N1425   1.427   .     S
C1266  C1280   1.427   .     A
C1266  N1426   1.440   .     S
C1267  C1279   1.404   .     A
C1267  N1427   1.424   .     S
C1268  N1428   1.431   .     S
C1268  C1279   1.412   .     A
C1269  N1429   1.430   .     S
C1269  C1280   1.411   .     A
C1270  C1283   1.406   .     A
C1270  N1430   1.428   .     S
C1271  C1276   1.461   .     S
C1271  O1455   1.305   .     A
C1271  O1452   1.296   .     A
C1272  N1431   1.432   .     S
C1272  C1281   1.412   .     A
C1273  N1432   1.420   .     S
C1273  C1281   1.409   .     A
C1274  N1433   1.419   .     S
C1274  C1283   1.411   .     A
C1275  C1282   1.455   .     S
C1279  C1311   1.454   .     S
C1280  C1310   1.460   .     S
C1281  C1304   1.453   .     S
C1282  O1454   1.290   .     A
C1282  O1453   1.306   .     A
C1283  C1293   1.456   .     S
C1284  H1350   1.112   .     S
C1284  H1328   1.111   .     S
C1284  N1436   1.453   .     S
C1284  H1339   1.104   .     S
C1285  H1383   1.111   .     S
C1285  N1437   1.454   .     S
C1285  H1394   1.104   .     S
C1285  H1372   1.112   .     S
C1286  H1318   1.110   .     S
C1286  H1320   1.110   .     S
C1286  H1319   1.109   .     S
C1286  N1646   1.447   .     S
C1287  H1322   1.111   .     S
C1287  H1323   1.108   .     S
C1287  N1439   1.452   .     S
C1287  H1324   1.112   .     S
C1288  N1440   1.451   .     S
C1288  H1327   1.104   .     S
C1288  H1326   1.106   .     S
C1288  H1329   1.111   .     S
C1289  H1331   1.110   .     S
C1289  H1332   1.099   .     S
C1289  N1414   1.453   .     S
C1289  H1333   1.110   .     S
C1290  N1415   1.447   .     S
C1290  H1337   1.108   .     S
C1290  H1336   1.109   .     S
C1290  H1335   1.110   .     S
C1291  N1416   1.450   .     S
C1291  H1342   1.112   .     S
C1291  H1340   1.111   .     S
C1291  H1341   1.108   .     S
C1292  N1417   1.451   .     S
C1292  H1346   1.101   .     S
C1292  H1344   1.109   .     S
C1292  H1345   1.105   .     S
C1293  O1444   1.307   .     A
C1293  O1456   1.292   .     A
C1294  H1349   1.110   .     S
C1294  H1351   1.112   .     S
C1294  N1418   1.449   .     S
C1294  H1556   1.108   1_455 S
C1295  H1354   1.108   .     S
C1295  H1355   1.101   .     S
C1295  N1419   1.454   .     S
C1295  H1353   1.112   .     S
C1296  H1358   1.111   .     S
C1296  H1357   1.111   .     S
C1296  N1420   1.448   .     S
C1296  H1359   1.110   .     S
C1297  N1421   1.450   .     S
C1297  H1363   1.111   .     S
C1297  H1362   1.111   .     S
C1297  H1364   1.107   .     S
C1298  H1368   1.111   .     S
C1298  H1367   1.111   .     S
C1298  H1366   1.110   .     S
C1298  N1422   1.449   .     S
C1299  H1371   1.107   .     S
C1299  N1423   1.449   .     S
C1299  H1373   1.111   .     S
C1299  H1370   1.110   .     S
C1300  H1377   1.103   .     S
C1300  H1375   1.113   .     S
C1300  N1425   1.450   .     S
C1300  H1584   1.109   1_455 S
C1301  N1426   1.450   .     S
C1301  H1379   1.103   .     S
C1301  H1381   1.107   .     S
C1301  H1380   1.110   .     S
C1302  H1386   1.111   .     S
C1302  H1385   1.110   .     S
C1302  N1427   1.450   .     S
C1302  H1384   1.108   .     S
C1303  H1389   1.109   .     S
C1303  N1428   1.450   .     S
C1303  H1390   1.105   .     S
C1303  H1388   1.111   .     S
C1304  O1443   1.300   .     A
C1304  O1442   1.296   .     A
C1305  H1393   1.110   .     S
C1305  H1392   1.111   .     S
C1305  N1429   1.449   .     S
C1305  H1395   1.110   .     S
C1306  H1397   1.110   .     S
C1306  N1430   1.448   .     S
C1306  H1398   1.110   .     S
C1306  H983    1.107   1_565 S
C1307  H1401   1.108   .     S
C1307  H1402   1.109   .     S
C1307  H1403   1.110   .     S
C1307  N1431   1.447   .     S
C1308  N1432   1.449   .     S
C1308  H1406   1.111   .     S
C1308  H1407   1.107   .     S
C1308  H1408   1.110   .     S
C1309  H1412   1.104   .     S
C1309  H1410   1.112   .     S
C1309  N1433   1.450   .     S
C1309  H1411   1.109   .     S
C1310  O1445   1.300   .     A
C1310  O1448   1.298   .     A
C1311  O1446   1.307   .     A
C1311  O1447   1.290   .     A
C1312  N1424   1.373   .     A
C1312  N1436   1.416   .     S
C1312  C628    1.433   1_455 S
Cu1313 O1453   1.974   .     S
Cu1313 N1413   2.032   .     S
Cu1313 O1441   1.956   .     S
Cu1313 Cu1314  2.704   .     S
Cu1313 O1658   1.976   1_455 S
Cu1313 O1663   1.964   1_455 S
Cu1314 O1454   1.964   .     S
Cu1314 N1424   2.032   .     S
Cu1314 O1451   1.976   .     S
Cu1314 O1657   1.956   1_455 S
Cu1314 O1660   1.974   1_455 S
Cu1315 O1446   1.974   .     S
Cu1315 O1443   1.976   .     S
Cu1315 N1434   2.032   .     S
Cu1315 Cu1316  2.704   .     S
Cu1316 N1435   2.032   .     S
Cu1316 O1442   1.956   .     S
Cu1316 O1447   1.964   .     S
H1317  N1644   1.022   .     S
H1321  N1647   1.030   1_455 S
H1325  N1440   1.021   .     S
H1330  N1414   1.027   .     S
H1334  N1415   1.029   .     S
H1338  N1416   1.028   .     S
H1343  N1417   1.031   .     S
H1347  N1418   1.030   .     S
H1348  C1502   1.108   .     S
H1352  N1419   1.029   .     S
H1356  N1420   1.030   .     S
H1360  N1421   1.031   .     S
H1361  N1437   1.025   .     S
H1365  N1422   1.030   .     S
H1369  N1423   1.028   .     S
H1374  N1425   1.028   .     S
H1376  C1508   1.109   .     S
H1378  N1426   1.025   .     S
H1382  N1427   1.030   .     S
H1387  N1428   1.030   .     S
H1391  N1429   1.027   .     S
H1396  N1430   1.032   .     S
H1400  N1431   1.027   .     S
H1404  N1432   1.028   .     S
H1405  N1438   1.030   .     S
H1409  N1433   1.029   .     S
N1413  C1460   1.369   1_455 S
N1436  H1525   1.022   1_455 S
N1438  C1494   1.447   1_455 S
N1439  H1529   1.030   .     S
O1444  Cu900   1.976   1_565 S
O1445  Cu900   1.974   1_565 S
O1448  Cu899   1.964   1_565 S
O1449  Cu1522  1.956   .     S
O1450  Cu1521  1.976   .     S
O1452  Cu1522  1.974   .     S
O1455  Cu1521  1.964   .     S
O1456  Cu899   1.956   1_565 S
C1457  O1649   1.288   .     A
C1457  O1659   1.308   .     A
C1457  C1486   1.453   .     S
C1458  N1645   1.420   .     S
C1458  N1621   1.379   .     A
C1458  C2291   1.436   .     S
C1459  N1646   1.422   .     S
C1459  N1632   1.367   .     A
C1460  N1647   1.421   .     S
C1460  C2144   1.433   1_655 S
C1460  N1413   1.369   1_655 S
C1461  N1648   1.411   .     S
C1461  N1227   1.368   1_565 S
C1462  N1622   1.419   .     S
C1462  N1642   1.380   .     A
C1462  C2295   1.436   .     S
C1463  N1643   1.367   .     A
C1463  N1623   1.423   .     S
C1464  N1624   1.421   .     S
C1464  C2293   1.436   .     S
C1464  N1226   1.369   1_565 S
C1465  N1625   1.431   .     S
C1465  C1476   1.412   .     A
C1465  C1484   1.420   .     A
C1466  C1483   1.400   .     A
C1466  C1477   1.396   .     A
C1466  N1626   1.423   .     S
C1467  C1474   1.418   .     A
C1467  N1627   1.428   .     S
C1467  C1483   1.410   .     A
C1468  C1485   1.451   .     S
C1468  O1657   1.296   .     A
C1468  O1658   1.300   .     A
C1469  N1628   1.429   .     S
C1469  C1484   1.409   .     A
C1469  C1475   1.398   .     A
C1470  N1629   1.429   .     S
C1470  C1486   1.406   .     A
C1470  C1481   1.396   .     A
C1471  C1485   1.401   .     A
C1471  C1482   1.402   .     A
C1471  N1630   1.427   .     S
C1472  C1485   1.408   .     A
C1472  N1631   1.419   .     S
C1472  C1478   1.398   .     A
C1473  C1486   1.410   .     A
C1473  C1480   1.406   .     A
C1473  N1633   1.427   .     S
C1474  C1488   1.427   .     A
C1474  N1634   1.440   .     S
C1475  C1487   1.404   .     A
C1475  N1635   1.424   .     S
C1476  N1636   1.431   .     S
C1476  C1487   1.412   .     A
C1477  N1637   1.430   .     S
C1477  C1488   1.411   .     A
C1478  C1491   1.406   .     A
C1478  N1638   1.428   .     S
C1479  C1484   1.461   .     S
C1479  O1663   1.305   .     A
C1479  O1660   1.296   .     A
C1480  N1639   1.432   .     S
C1480  C1489   1.412   .     A
C1481  N1640   1.420   .     S
C1481  C1489   1.409   .     A
C1482  N1641   1.419   .     S
C1482  C1491   1.411   .     A
C1483  C1490   1.455   .     S
C1487  C1519   1.454   .     S
C1488  C1518   1.460   .     S
C1489  C1512   1.453   .     S
C1490  O1662   1.290   .     A
C1490  O1661   1.306   .     A
C1491  C1501   1.456   .     S
C1492  H1558   1.112   .     S
C1492  H1536   1.111   .     S
C1492  N1644   1.453   .     S
C1492  H1547   1.104   .     S
C1493  H1591   1.111   .     S
C1493  N1645   1.454   .     S
C1493  H1602   1.104   .     S
C1493  H1580   1.112   .     S
C1494  H1526   1.110   .     S
C1494  H1528   1.110   .     S
C1494  H1527   1.109   .     S
C1494  N1438   1.447   1_655 S
C1495  H1530   1.111   .     S
C1495  H1531   1.108   .     S
C1495  N1647   1.452   .     S
C1495  H1532   1.112   .     S
C1496  N1648   1.451   .     S
C1496  H1535   1.104   .     S
C1496  H1534   1.106   .     S
C1496  H1537   1.111   .     S
C1497  H1539   1.110   .     S
C1497  H1540   1.099   .     S
C1497  N1622   1.453   .     S
C1497  H1541   1.110   .     S
C1498  N1623   1.447   .     S
C1498  H1545   1.108   .     S
C1498  H1544   1.109   .     S
C1498  H1543   1.110   .     S
C1499  N1624   1.450   .     S
C1499  H1550   1.112   .     S
C1499  H1548   1.111   .     S
C1499  H1549   1.108   .     S
C1500  N1625   1.451   .     S
C1500  H1554   1.101   .     S
C1500  H1552   1.109   .     S
C1500  H1553   1.105   .     S
C1501  O1652   1.307   .     A
C1501  O1664   1.292   .     A
C1502  H1557   1.110   .     S
C1502  H1559   1.112   .     S
C1502  N1626   1.449   .     S
C1503  H1562   1.108   .     S
C1503  H1563   1.101   .     S
C1503  N1627   1.454   .     S
C1503  H1561   1.112   .     S
C1504  H1566   1.111   .     S
C1504  H1565   1.111   .     S
C1504  N1628   1.448   .     S
C1504  H1567   1.110   .     S
C1505  N1629   1.450   .     S
C1505  H1571   1.111   .     S
C1505  H1570   1.111   .     S
C1505  H1572   1.107   .     S
C1506  H1576   1.111   .     S
C1506  H1575   1.111   .     S
C1506  H1574   1.110   .     S
C1506  N1630   1.449   .     S
C1507  H1579   1.107   .     S
C1507  N1631   1.449   .     S
C1507  H1581   1.111   .     S
C1507  H1578   1.110   .     S
C1508  H1585   1.103   .     S
C1508  H1583   1.113   .     S
C1508  N1633   1.450   .     S
C1509  N1634   1.450   .     S
C1509  H1587   1.103   .     S
C1509  H1589   1.107   .     S
C1509  H1588   1.110   .     S
C1510  H1594   1.111   .     S
C1510  H1593   1.110   .     S
C1510  N1635   1.450   .     S
C1510  H1592   1.108   .     S
C1511  H1597   1.109   .     S
C1511  N1636   1.450   .     S
C1511  H1598   1.105   .     S
C1511  H1596   1.111   .     S
C1512  O1651   1.300   .     A
C1512  O1650   1.296   .     A
C1513  H1601   1.110   .     S
C1513  H1600   1.111   .     S
C1513  N1637   1.449   .     S
C1513  H1603   1.110   .     S
C1514  H1605   1.110   .     S
C1514  N1638   1.448   .     S
C1514  H1606   1.110   .     S
C1514  H1191   1.107   1_565 S
C1515  H1609   1.108   .     S
C1515  H1610   1.109   .     S
C1515  H1611   1.110   .     S
C1515  N1639   1.447   .     S
C1516  N1640   1.449   .     S
C1516  H1614   1.111   .     S
C1516  H1615   1.107   .     S
C1516  H1616   1.110   .     S
C1517  H1620   1.104   .     S
C1517  H1618   1.112   .     S
C1517  N1641   1.450   .     S
C1517  H1619   1.109   .     S
C1518  O1653   1.300   .     A
C1518  O1656   1.298   .     A
C1519  O1654   1.307   .     A
C1519  O1655   1.290   .     A
C1520  N1632   1.373   .     A
C1520  N1644   1.416   .     S
Cu1521 O1661   1.974   .     S
Cu1521 N1621   2.032   .     S
Cu1521 O1649   1.956   .     S
Cu1521 Cu1522  2.704   .     S
Cu1522 O1662   1.964   .     S
Cu1522 N1632   2.032   .     S
Cu1522 O1659   1.976   .     S
Cu1523 O1654   1.974   .     S
Cu1523 O1651   1.976   .     S
Cu1523 N1642   2.032   .     S
Cu1523 Cu1524  2.704   .     S
Cu1524 N1643   2.032   .     S
Cu1524 O1650   1.956   .     S
Cu1524 O1655   1.964   .     S
H1525  N1436   1.022   1_655 S
H1533  N1648   1.021   .     S
H1538  N1622   1.027   .     S
H1542  N1623   1.029   .     S
H1546  N1624   1.028   .     S
H1551  N1625   1.031   .     S
H1555  N1626   1.030   .     S
H1556  C1294   1.108   1_655 S
H1560  N1627   1.029   .     S
H1564  N1628   1.030   .     S
H1568  N1629   1.031   .     S
H1569  N1645   1.025   .     S
H1573  N1630   1.030   .     S
H1577  N1631   1.028   .     S
H1582  N1633   1.028   .     S
H1584  C1300   1.109   1_655 S
H1586  N1634   1.025   .     S
H1590  N1635   1.030   .     S
H1595  N1636   1.030   .     S
H1599  N1637   1.027   .     S
H1604  N1638   1.032   .     S
H1608  N1639   1.027   .     S
H1612  N1640   1.028   .     S
H1613  N1646   1.030   .     S
H1617  N1641   1.029   .     S
N1647  H1321   1.030   1_655 S
O1652  Cu1108  1.976   1_565 S
O1653  Cu1108  1.974   1_565 S
O1656  Cu1107  1.964   1_565 S
O1657  Cu1314  1.956   1_655 S
O1658  Cu1313  1.976   1_655 S
O1660  Cu1314  1.974   1_655 S
O1663  Cu1313  1.964   1_655 S
O1664  Cu1107  1.956   1_565 S
C1665  O1857   1.288   .     A
C1665  O1867   1.308   .     A
C1665  C1694   1.453   .     S
C1666  N1853   1.420   .     S
C1666  N1829   1.379   .     A
C1666  C3      1.436   1_556 S
C1667  N1854   1.422   .     S
C1667  N1840   1.367   .     A
C1668  N1855   1.421   .     S
C1668  C272    1.433   1_556 S
C1668  N2037   1.369   .     S
C1669  N1856   1.411   .     S
C1669  N2267   1.368   .     S
C1670  N1830   1.419   .     S
C1670  N1850   1.380   .     A
C1670  C7      1.436   1_556 S
C1671  N1851   1.367   .     A
C1671  N1831   1.423   .     S
C1672  N1832   1.421   .     S
C1672  C5      1.436   1_556 S
C1672  N2266   1.369   .     S
C1673  N1833   1.431   .     S
C1673  C1684   1.412   .     A
C1673  C1692   1.420   .     A
C1674  C1691   1.400   .     A
C1674  C1685   1.396   .     A
C1674  N1834   1.423   .     S
C1675  C1682   1.418   .     A
C1675  N1835   1.428   .     S
C1675  C1691   1.410   .     A
C1676  C1693   1.451   .     S
C1676  O1865   1.296   .     A
C1676  O1866   1.300   .     A
C1677  N1836   1.429   .     S
C1677  C1692   1.409   .     A
C1677  C1683   1.398   .     A
C1678  N1837   1.429   .     S
C1678  C1694   1.406   .     A
C1678  C1689   1.396   .     A
C1679  C1693   1.401   .     A
C1679  C1690   1.402   .     A
C1679  N1838   1.427   .     S
C1680  C1693   1.408   .     A
C1680  N1839   1.419   .     S
C1680  C1686   1.398   .     A
C1681  C1694   1.410   .     A
C1681  C1688   1.406   .     A
C1681  N1841   1.427   .     S
C1682  C1696   1.427   .     A
C1682  N1842   1.440   .     S
C1683  C1695   1.404   .     A
C1683  N1843   1.424   .     S
C1684  N1844   1.431   .     S
C1684  C1695   1.412   .     A
C1685  N1845   1.430   .     S
C1685  C1696   1.411   .     A
C1686  C1699   1.406   .     A
C1686  N1846   1.428   .     S
C1687  C1692   1.461   .     S
C1687  O1871   1.305   .     A
C1687  O1868   1.296   .     A
C1688  N1847   1.432   .     S
C1688  C1697   1.412   .     A
C1689  N1848   1.420   .     S
C1689  C1697   1.409   .     A
C1690  N1849   1.419   .     S
C1690  C1699   1.411   .     A
C1691  C1698   1.455   .     S
C1695  C1727   1.454   .     S
C1696  C1726   1.460   .     S
C1697  C1720   1.453   .     S
C1698  O1870   1.290   .     A
C1698  O1869   1.306   .     A
C1699  C1709   1.456   .     S
C1700  H1766   1.112   .     S
C1700  H1744   1.111   .     S
C1700  N1852   1.453   .     S
C1700  H1755   1.104   .     S
C1701  H1799   1.111   .     S
C1701  N1853   1.454   .     S
C1701  H1810   1.104   .     S
C1701  H1788   1.112   .     S
C1702  H1734   1.110   .     S
C1702  H1736   1.110   .     S
C1702  H1735   1.109   .     S
C1702  N2062   1.447   .     S
C1703  H1738   1.111   .     S
C1703  H1739   1.108   .     S
C1703  N1855   1.452   .     S
C1703  H1740   1.112   .     S
C1704  N1856   1.451   .     S
C1704  H1743   1.104   .     S
C1704  H1742   1.106   .     S
C1704  H1745   1.111   .     S
C1705  H1747   1.110   .     S
C1705  H1748   1.099   .     S
C1705  N1830   1.453   .     S
C1705  H1749   1.110   .     S
C1706  N1831   1.447   .     S
C1706  H1753   1.108   .     S
C1706  H1752   1.109   .     S
C1706  H1751   1.110   .     S
C1707  N1832   1.450   .     S
C1707  H1758   1.112   .     S
C1707  H1756   1.111   .     S
C1707  H1757   1.108   .     S
C1708  N1833   1.451   .     S
C1708  H1762   1.101   .     S
C1708  H1760   1.109   .     S
C1708  H1761   1.105   .     S
C1709  O1860   1.307   .     A
C1709  O1872   1.292   .     A
C1710  H1765   1.110   .     S
C1710  H1767   1.112   .     S
C1710  N1834   1.449   .     S
C1710  H1972   1.108   1_455 S
C1711  H1770   1.108   .     S
C1711  H1771   1.101   .     S
C1711  N1835   1.454   .     S
C1711  H1769   1.112   .     S
C1712  H1774   1.111   .     S
C1712  H1773   1.111   .     S
C1712  N1836   1.448   .     S
C1712  H1775   1.110   .     S
C1713  N1837   1.450   .     S
C1713  H1779   1.111   .     S
C1713  H1778   1.111   .     S
C1713  H1780   1.107   .     S
C1714  H1784   1.111   .     S
C1714  H1783   1.111   .     S
C1714  H1782   1.110   .     S
C1714  N1838   1.449   .     S
C1715  H1787   1.107   .     S
C1715  N1839   1.449   .     S
C1715  H1789   1.111   .     S
C1715  H1786   1.110   .     S
C1716  H1793   1.103   .     S
C1716  H1791   1.113   .     S
C1716  N1841   1.450   .     S
C1716  H2000   1.109   1_455 S
C1717  N1842   1.450   .     S
C1717  H1795   1.103   .     S
C1717  H1797   1.107   .     S
C1717  H1796   1.110   .     S
C1718  H1802   1.111   .     S
C1718  H1801   1.110   .     S
C1718  N1843   1.450   .     S
C1718  H1800   1.108   .     S
C1719  H1805   1.109   .     S
C1719  N1844   1.450   .     S
C1719  H1806   1.105   .     S
C1719  H1804   1.111   .     S
C1720  O1859   1.300   .     A
C1720  O1858   1.296   .     A
C1721  H1809   1.110   .     S
C1721  H1808   1.111   .     S
C1721  N1845   1.449   .     S
C1721  H1811   1.110   .     S
C1722  H1813   1.110   .     S
C1722  N1846   1.448   .     S
C1722  H1814   1.110   .     S
C1722  H2231   1.107   .     S
C1723  H1817   1.108   .     S
C1723  H1818   1.109   .     S
C1723  H1819   1.110   .     S
C1723  N1847   1.447   .     S
C1724  N1848   1.449   .     S
C1724  H1822   1.111   .     S
C1724  H1823   1.107   .     S
C1724  H1824   1.110   .     S
C1725  H1828   1.104   .     S
C1725  H1826   1.112   .     S
C1725  N1849   1.450   .     S
C1725  H1827   1.109   .     S
C1726  O1861   1.300   .     A
C1726  O1864   1.298   .     A
C1727  O1862   1.307   .     A
C1727  O1863   1.290   .     A
C1728  N1840   1.373   .     A
C1728  N1852   1.416   .     S
C1728  C1044   1.433   1_455 S
Cu1729 O1869   1.974   .     S
Cu1729 N1829   2.032   .     S
Cu1729 O1857   1.956   .     S
Cu1729 Cu1730  2.704   .     S
Cu1729 O2074   1.976   1_455 S
Cu1729 O2079   1.964   1_455 S
Cu1730 O1870   1.964   .     S
Cu1730 N1840   2.032   .     S
Cu1730 O1867   1.976   .     S
Cu1730 O2073   1.956   1_455 S
Cu1730 O2076   1.974   1_455 S
Cu1731 O1862   1.974   .     S
Cu1731 O1859   1.976   .     S
Cu1731 N1850   2.032   .     S
Cu1731 Cu1732  2.704   .     S
Cu1731 O2280   1.964   1_545 S
Cu1731 O2288   1.956   1_545 S
Cu1732 O2277   1.974   1_545 S
Cu1732 O2276   1.976   1_545 S
Cu1732 N1851   2.032   .     S
Cu1732 O1858   1.956   .     S
Cu1732 O1863   1.964   .     S
H1733  N2060   1.022   .     S
H1737  N2063   1.030   1_455 S
H1741  N1856   1.021   .     S
H1746  N1830   1.027   .     S
H1750  N1831   1.029   .     S
H1754  N1832   1.028   .     S
H1759  N1833   1.031   .     S
H1763  N1834   1.030   .     S
H1764  C1918   1.108   .     S
H1768  N1835   1.029   .     S
H1772  N1836   1.030   .     S
H1776  N1837   1.031   .     S
H1777  N1853   1.025   .     S
H1781  N1838   1.030   .     S
H1785  N1839   1.028   .     S
H1790  N1841   1.028   .     S
H1792  C1924   1.109   .     S
H1794  N1842   1.025   .     S
H1798  N1843   1.030   .     S
H1803  N1844   1.030   .     S
H1807  N1845   1.027   .     S
H1812  N1846   1.032   .     S
H1815  C2138   1.107   1_545 S
H1816  N1847   1.027   .     S
H1820  N1848   1.028   .     S
H1821  N1854   1.030   .     S
H1825  N1849   1.029   .     S
N1829  C1876   1.369   1_455 S
N1850  C2088   1.369   1_545 S
N1851  C2085   1.368   1_545 S
N1852  H1941   1.022   1_455 S
N1854  C1910   1.447   1_455 S
N1855  H1945   1.030   .     S
O1860  Cu2148  1.976   .     S
O1861  Cu2148  1.974   .     S
O1864  Cu2147  1.964   .     S
O1865  Cu1938  1.956   .     S
O1866  Cu1937  1.976   .     S
O1868  Cu1938  1.974   .     S
O1871  Cu1937  1.964   .     S
O1872  Cu2147  1.956   .     S
C1873  O2065   1.288   .     A
C1873  O2075   1.308   .     A
C1873  C1902   1.453   .     S
C1874  N2061   1.420   .     S
C1874  N2037   1.379   .     A
C1874  C211    1.436   1_556 S
C1875  N2062   1.422   .     S
C1875  N2048   1.367   .     A
C1876  N2063   1.421   .     S
C1876  C64     1.433   1_656 S
C1876  N1829   1.369   1_655 S
C1877  N2064   1.411   .     S
C1877  N2475   1.368   .     S
C1878  N2038   1.419   .     S
C1878  N2058   1.380   .     A
C1878  C215    1.436   1_556 S
C1879  N2059   1.367   .     A
C1879  N2039   1.423   .     S
C1880  N2040   1.421   .     S
C1880  C213    1.436   1_556 S
C1880  N2474   1.369   .     S
C1881  N2041   1.431   .     S
C1881  C1892   1.412   .     A
C1881  C1900   1.420   .     A
C1882  C1899   1.400   .     A
C1882  C1893   1.396   .     A
C1882  N2042   1.423   .     S
C1883  C1890   1.418   .     A
C1883  N2043   1.428   .     S
C1883  C1899   1.410   .     A
C1884  C1901   1.451   .     S
C1884  O2073   1.296   .     A
C1884  O2074   1.300   .     A
C1885  N2044   1.429   .     S
C1885  C1900   1.409   .     A
C1885  C1891   1.398   .     A
C1886  N2045   1.429   .     S
C1886  C1902   1.406   .     A
C1886  C1897   1.396   .     A
C1887  C1901   1.401   .     A
C1887  C1898   1.402   .     A
C1887  N2046   1.427   .     S
C1888  C1901   1.408   .     A
C1888  N2047   1.419   .     S
C1888  C1894   1.398   .     A
C1889  C1902   1.410   .     A
C1889  C1896   1.406   .     A
C1889  N2049   1.427   .     S
C1890  C1904   1.427   .     A
C1890  N2050   1.440   .     S
C1891  C1903   1.404   .     A
C1891  N2051   1.424   .     S
C1892  N2052   1.431   .     S
C1892  C1903   1.412   .     A
C1893  N2053   1.430   .     S
C1893  C1904   1.411   .     A
C1894  C1907   1.406   .     A
C1894  N2054   1.428   .     S
C1895  C1900   1.461   .     S
C1895  O2079   1.305   .     A
C1895  O2076   1.296   .     A
C1896  N2055   1.432   .     S
C1896  C1905   1.412   .     A
C1897  N2056   1.420   .     S
C1897  C1905   1.409   .     A
C1898  N2057   1.419   .     S
C1898  C1907   1.411   .     A
C1899  C1906   1.455   .     S
C1903  C1935   1.454   .     S
C1904  C1934   1.460   .     S
C1905  C1928   1.453   .     S
C1906  O2078   1.290   .     A
C1906  O2077   1.306   .     A
C1907  C1917   1.456   .     S
C1908  H1974   1.112   .     S
C1908  H1952   1.111   .     S
C1908  N2060   1.453   .     S
C1908  H1963   1.104   .     S
C1909  H2007   1.111   .     S
C1909  N2061   1.454   .     S
C1909  H2018   1.104   .     S
C1909  H1996   1.112   .     S
C1910  H1942   1.110   .     S
C1910  H1944   1.110   .     S
C1910  H1943   1.109   .     S
C1910  N1854   1.447   1_655 S
C1911  H1946   1.111   .     S
C1911  H1947   1.108   .     S
C1911  N2063   1.452   .     S
C1911  H1948   1.112   .     S
C1912  N2064   1.451   .     S
C1912  H1951   1.104   .     S
C1912  H1950   1.106   .     S
C1912  H1953   1.111   .     S
C1913  H1955   1.110   .     S
C1913  H1956   1.099   .     S
C1913  N2038   1.453   .     S
C1913  H1957   1.110   .     S
C1914  N2039   1.447   .     S
C1914  H1961   1.108   .     S
C1914  H1960   1.109   .     S
C1914  H1959   1.110   .     S
C1915  N2040   1.450   .     S
C1915  H1966   1.112   .     S
C1915  H1964   1.111   .     S
C1915  H1965   1.108   .     S
C1916  N2041   1.451   .     S
C1916  H1970   1.101   .     S
C1916  H1968   1.109   .     S
C1916  H1969   1.105   .     S
C1917  O2068   1.307   .     A
C1917  O2080   1.292   .     A
C1918  H1973   1.110   .     S
C1918  H1975   1.112   .     S
C1918  N2042   1.449   .     S
C1919  H1978   1.108   .     S
C1919  H1979   1.101   .     S
C1919  N2043   1.454   .     S
C1919  H1977   1.112   .     S
C1920  H1982   1.111   .     S
C1920  H1981   1.111   .     S
C1920  N2044   1.448   .     S
C1920  H1983   1.110   .     S
C1921  N2045   1.450   .     S
C1921  H1987   1.111   .     S
C1921  H1986   1.111   .     S
C1921  H1988   1.107   .     S
C1922  H1992   1.111   .     S
C1922  H1991   1.111   .     S
C1922  H1990   1.110   .     S
C1922  N2046   1.449   .     S
C1923  H1995   1.107   .     S
C1923  N2047   1.449   .     S
C1923  H1997   1.111   .     S
C1923  H1994   1.110   .     S
C1924  H2001   1.103   .     S
C1924  H1999   1.113   .     S
C1924  N2049   1.450   .     S
C1925  N2050   1.450   .     S
C1925  H2003   1.103   .     S
C1925  H2005   1.107   .     S
C1925  H2004   1.110   .     S
C1926  H2010   1.111   .     S
C1926  H2009   1.110   .     S
C1926  N2051   1.450   .     S
C1926  H2008   1.108   .     S
C1927  H2013   1.109   .     S
C1927  N2052   1.450   .     S
C1927  H2014   1.105   .     S
C1927  H2012   1.111   .     S
C1928  O2067   1.300   .     A
C1928  O2066   1.296   .     A
C1929  H2017   1.110   .     S
C1929  H2016   1.111   .     S
C1929  N2053   1.449   .     S
C1929  H2019   1.110   .     S
C1930  H2021   1.110   .     S
C1930  N2054   1.448   .     S
C1930  H2022   1.110   .     S
C1930  H2439   1.107   .     S
C1931  H2025   1.108   .     S
C1931  H2026   1.109   .     S
C1931  H2027   1.110   .     S
C1931  N2055   1.447   .     S
C1932  N2056   1.449   .     S
C1932  H2030   1.111   .     S
C1932  H2031   1.107   .     S
C1932  H2032   1.110   .     S
C1933  H2036   1.104   .     S
C1933  H2034   1.112   .     S
C1933  N2057   1.450   .     S
C1933  H2035   1.109   .     S
C1934  O2069   1.300   .     A
C1934  O2072   1.298   .     A
C1935  O2070   1.307   .     A
C1935  O2071   1.290   .     A
C1936  N2048   1.373   .     A
C1936  N2060   1.416   .     S
Cu1937 O2077   1.974   .     S
Cu1937 N2037   2.032   .     S
Cu1937 O2065   1.956   .     S
Cu1937 Cu1938  2.704   .     S
Cu1938 O2078   1.964   .     S
Cu1938 N2048   2.032   .     S
Cu1938 O2075   1.976   .     S
Cu1939 O2070   1.974   .     S
Cu1939 O2067   1.976   .     S
Cu1939 N2058   2.032   .     S
Cu1939 Cu1940  2.704   .     S
Cu1939 O2488   1.964   1_545 S
Cu1939 O2496   1.956   1_545 S
Cu1940 O2485   1.974   1_545 S
Cu1940 O2484   1.976   1_545 S
Cu1940 N2059   2.032   .     S
Cu1940 O2066   1.956   .     S
Cu1940 O2071   1.964   .     S
H1941  N1852   1.022   1_655 S
H1949  N2064   1.021   .     S
H1954  N2038   1.027   .     S
H1958  N2039   1.029   .     S
H1962  N2040   1.028   .     S
H1967  N2041   1.031   .     S
H1971  N2042   1.030   .     S
H1972  C1710   1.108   1_655 S
H1976  N2043   1.029   .     S
H1980  N2044   1.030   .     S
H1984  N2045   1.031   .     S
H1985  N2061   1.025   .     S
H1989  N2046   1.030   .     S
H1993  N2047   1.028   .     S
H1998  N2049   1.028   .     S
H2000  C1716   1.109   1_655 S
H2002  N2050   1.025   .     S
H2006  N2051   1.030   .     S
H2011  N2052   1.030   .     S
H2015  N2053   1.027   .     S
H2020  N2054   1.032   .     S
H2023  C2346   1.107   1_545 S
H2024  N2055   1.027   .     S
H2028  N2056   1.028   .     S
H2029  N2062   1.030   .     S
H2033  N2057   1.029   .     S
N2058  C2296   1.369   1_545 S
N2059  C2293   1.368   1_545 S
N2063  H1737   1.030   1_655 S
O2068  Cu2356  1.976   .     S
O2069  Cu2356  1.974   .     S
O2072  Cu2355  1.964   .     S
O2073  Cu1730  1.956   1_655 S
O2074  Cu1729  1.976   1_655 S
O2076  Cu1730  1.974   1_655 S
O2079  Cu1729  1.964   1_655 S
O2080  Cu2355  1.956   .     S
C2081  O2273   1.288   .     A
C2081  O2283   1.308   .     A
C2081  C2110   1.453   .     S
C2082  N2269   1.420   .     S
C2082  N2245   1.379   .     A
C2082  C419    1.436   1_556 S
C2083  N2270   1.422   .     S
C2083  N2256   1.367   .     A
C2084  N2271   1.421   .     S
C2084  C688    1.433   1_556 S
C2084  N2453   1.369   .     S
C2085  N2272   1.411   .     S
C2085  N1851   1.368   1_565 S
C2086  N2246   1.419   .     S
C2086  N2266   1.380   .     A
C2086  C423    1.436   1_556 S
C2087  N2267   1.367   .     A
C2087  N2247   1.423   .     S
C2088  N2248   1.421   .     S
C2088  C421    1.436   1_556 S
C2088  N1850   1.369   1_565 S
C2089  N2249   1.431   .     S
C2089  C2100   1.412   .     A
C2089  C2108   1.420   .     A
C2090  C2107   1.400   .     A
C2090  C2101   1.396   .     A
C2090  N2250   1.423   .     S
C2091  C2098   1.418   .     A
C2091  N2251   1.428   .     S
C2091  C2107   1.410   .     A
C2092  C2109   1.451   .     S
C2092  O2281   1.296   .     A
C2092  O2282   1.300   .     A
C2093  N2252   1.429   .     S
C2093  C2108   1.409   .     A
C2093  C2099   1.398   .     A
C2094  N2253   1.429   .     S
C2094  C2110   1.406   .     A
C2094  C2105   1.396   .     A
C2095  C2109   1.401   .     A
C2095  C2106   1.402   .     A
C2095  N2254   1.427   .     S
C2096  C2109   1.408   .     A
C2096  N2255   1.419   .     S
C2096  C2102   1.398   .     A
C2097  C2110   1.410   .     A
C2097  C2104   1.406   .     A
C2097  N2257   1.427   .     S
C2098  C2112   1.427   .     A
C2098  N2258   1.440   .     S
C2099  C2111   1.404   .     A
C2099  N2259   1.424   .     S
C2100  N2260   1.431   .     S
C2100  C2111   1.412   .     A
C2101  N2261   1.430   .     S
C2101  C2112   1.411   .     A
C2102  C2115   1.406   .     A
C2102  N2262   1.428   .     S
C2103  C2108   1.461   .     S
C2103  O2287   1.305   .     A
C2103  O2284   1.296   .     A
C2104  N2263   1.432   .     S
C2104  C2113   1.412   .     A
C2105  N2264   1.420   .     S
C2105  C2113   1.409   .     A
C2106  N2265   1.419   .     S
C2106  C2115   1.411   .     A
C2107  C2114   1.455   .     S
C2111  C2143   1.454   .     S
C2112  C2142   1.460   .     S
C2113  C2136   1.453   .     S
C2114  O2286   1.290   .     A
C2114  O2285   1.306   .     A
C2115  C2125   1.456   .     S
C2116  H2182   1.112   .     S
C2116  H2160   1.111   .     S
C2116  N2268   1.453   .     S
C2116  H2171   1.104   .     S
C2117  H2215   1.111   .     S
C2117  N2269   1.454   .     S
C2117  H2226   1.104   .     S
C2117  H2204   1.112   .     S
C2118  H2150   1.110   .     S
C2118  H2152   1.110   .     S
C2118  H2151   1.109   .     S
C2118  N2478   1.447   .     S
C2119  H2154   1.111   .     S
C2119  H2155   1.108   .     S
C2119  N2271   1.452   .     S
C2119  H2156   1.112   .     S
C2120  N2272   1.451   .     S
C2120  H2159   1.104   .     S
C2120  H2158   1.106   .     S
C2120  H2161   1.111   .     S
C2121  H2163   1.110   .     S
C2121  H2164   1.099   .     S
C2121  N2246   1.453   .     S
C2121  H2165   1.110   .     S
C2122  N2247   1.447   .     S
C2122  H2169   1.108   .     S
C2122  H2168   1.109   .     S
C2122  H2167   1.110   .     S
C2123  N2248   1.450   .     S
C2123  H2174   1.112   .     S
C2123  H2172   1.111   .     S
C2123  H2173   1.108   .     S
C2124  N2249   1.451   .     S
C2124  H2178   1.101   .     S
C2124  H2176   1.109   .     S
C2124  H2177   1.105   .     S
C2125  O2276   1.307   .     A
C2125  O2288   1.292   .     A
C2126  H2181   1.110   .     S
C2126  H2183   1.112   .     S
C2126  N2250   1.449   .     S
C2126  H2388   1.108   1_455 S
C2127  H2186   1.108   .     S
C2127  H2187   1.101   .     S
C2127  N2251   1.454   .     S
C2127  H2185   1.112   .     S
C2128  H2190   1.111   .     S
C2128  H2189   1.111   .     S
C2128  N2252   1.448   .     S
C2128  H2191   1.110   .     S
C2129  N2253   1.450   .     S
C2129  H2195   1.111   .     S
C2129  H2194   1.111   .     S
C2129  H2196   1.107   .     S
C2130  H2200   1.111   .     S
C2130  H2199   1.111   .     S
C2130  H2198   1.110   .     S
C2130  N2254   1.449   .     S
C2131  H2203   1.107   .     S
C2131  N2255   1.449   .     S
C2131  H2205   1.111   .     S
C2131  H2202   1.110   .     S
C2132  H2209   1.103   .     S
C2132  H2207   1.113   .     S
C2132  N2257   1.450   .     S
C2132  H2416   1.109   1_455 S
C2133  N2258   1.450   .     S
C2133  H2211   1.103   .     S
C2133  H2213   1.107   .     S
C2133  H2212   1.110   .     S
C2134  H2218   1.111   .     S
C2134  H2217   1.110   .     S
C2134  N2259   1.450   .     S
C2134  H2216   1.108   .     S
C2135  H2221   1.109   .     S
C2135  N2260   1.450   .     S
C2135  H2222   1.105   .     S
C2135  H2220   1.111   .     S
C2136  O2275   1.300   .     A
C2136  O2274   1.296   .     A
C2137  H2225   1.110   .     S
C2137  H2224   1.111   .     S
C2137  N2261   1.449   .     S
C2137  H2227   1.110   .     S
C2138  H2229   1.110   .     S
C2138  N2262   1.448   .     S
C2138  H2230   1.110   .     S
C2138  H1815   1.107   1_565 S
C2139  H2233   1.108   .     S
C2139  H2234   1.109   .     S
C2139  H2235   1.110   .     S
C2139  N2263   1.447   .     S
C2140  N2264   1.449   .     S
C2140  H2238   1.111   .     S
C2140  H2239   1.107   .     S
C2140  H2240   1.110   .     S
C2141  H2244   1.104   .     S
C2141  H2242   1.112   .     S
C2141  N2265   1.450   .     S
C2141  H2243   1.109   .     S
C2142  O2277   1.300   .     A
C2142  O2280   1.298   .     A
C2143  O2278   1.307   .     A
C2143  O2279   1.290   .     A
C2144  N2256   1.373   .     A
C2144  N2268   1.416   .     S
C2144  C1460   1.433   1_455 S
Cu2145 O2285   1.974   .     S
Cu2145 N2245   2.032   .     S
Cu2145 O2273   1.956   .     S
Cu2145 Cu2146  2.704   .     S
Cu2145 O2490   1.976   1_455 S
Cu2145 O2495   1.964   1_455 S
Cu2146 O2286   1.964   .     S
Cu2146 N2256   2.032   .     S
Cu2146 O2283   1.976   .     S
Cu2146 O2489   1.956   1_455 S
Cu2146 O2492   1.974   1_455 S
Cu2147 O2278   1.974   .     S
Cu2147 O2275   1.976   .     S
Cu2147 N2266   2.032   .     S
Cu2147 Cu2148  2.704   .     S
Cu2148 N2267   2.032   .     S
Cu2148 O2274   1.956   .     S
Cu2148 O2279   1.964   .     S
H2149  N2476   1.022   .     S
H2153  N2479   1.030   1_455 S
H2157  N2272   1.021   .     S
H2162  N2246   1.027   .     S
H2166  N2247   1.029   .     S
H2170  N2248   1.028   .     S
H2175  N2249   1.031   .     S
H2179  N2250   1.030   .     S
H2180  C2334   1.108   .     S
H2184  N2251   1.029   .     S
H2188  N2252   1.030   .     S
H2192  N2253   1.031   .     S
H2193  N2269   1.025   .     S
H2197  N2254   1.030   .     S
H2201  N2255   1.028   .     S
H2206  N2257   1.028   .     S
H2208  C2340   1.109   .     S
H2210  N2258   1.025   .     S
H2214  N2259   1.030   .     S
H2219  N2260   1.030   .     S
H2223  N2261   1.027   .     S
H2228  N2262   1.032   .     S
H2232  N2263   1.027   .     S
H2236  N2264   1.028   .     S
H2237  N2270   1.030   .     S
H2241  N2265   1.029   .     S
N2245  C2292   1.369   1_455 S
N2268  H2357   1.022   1_455 S
N2270  C2326   1.447   1_455 S
N2271  H2361   1.030   .     S
O2276  Cu1732  1.976   1_565 S
O2277  Cu1732  1.974   1_565 S
O2280  Cu1731  1.964   1_565 S
O2281  Cu2354  1.956   .     S
O2282  Cu2353  1.976   .     S
O2284  Cu2354  1.974   .     S
O2287  Cu2353  1.964   .     S
O2288  Cu1731  1.956   1_565 S
C2289  O2481   1.288   .     A
C2289  O2491   1.308   .     A
C2289  C2318   1.453   .     S
C2290  N2477   1.420   .     S
C2290  N2453   1.379   .     A
C2290  C627    1.436   1_556 S
C2291  N2478   1.422   .     S
C2291  N2464   1.367   .     A
C2292  N2479   1.421   .     S
C2292  C480    1.433   1_656 S
C2292  N2245   1.369   1_655 S
C2293  N2480   1.411   .     S
C2293  N2059   1.368   1_565 S
C2294  N2454   1.419   .     S
C2294  N2474   1.380   .     A
C2294  C631    1.436   1_556 S
C2295  N2475   1.367   .     A
C2295  N2455   1.423   .     S
C2296  N2456   1.421   .     S
C2296  C629    1.436   1_556 S
C2296  N2058   1.369   1_565 S
C2297  N2457   1.431   .     S
C2297  C2308   1.412   .     A
C2297  C2316   1.420   .     A
C2298  C2315   1.400   .     A
C2298  C2309   1.396   .     A
C2298  N2458   1.423   .     S
C2299  C2306   1.418   .     A
C2299  N2459   1.428   .     S
C2299  C2315   1.410   .     A
C2300  C2317   1.451   .     S
C2300  O2489   1.296   .     A
C2300  O2490   1.300   .     A
C2301  N2460   1.429   .     S
C2301  C2316   1.409   .     A
C2301  C2307   1.398   .     A
C2302  N2461   1.429   .     S
C2302  C2318   1.406   .     A
C2302  C2313   1.396   .     A
C2303  C2317   1.401   .     A
C2303  C2314   1.402   .     A
C2303  N2462   1.427   .     S
C2304  C2317   1.408   .     A
C2304  N2463   1.419   .     S
C2304  C2310   1.398   .     A
C2305  C2318   1.410   .     A
C2305  C2312   1.406   .     A
C2305  N2465   1.427   .     S
C2306  C2320   1.427   .     A
C2306  N2466   1.440   .     S
C2307  C2319   1.404   .     A
C2307  N2467   1.424   .     S
C2308  N2468   1.431   .     S
C2308  C2319   1.412   .     A
C2309  N2469   1.430   .     S
C2309  C2320   1.411   .     A
C2310  C2323   1.406   .     A
C2310  N2470   1.428   .     S
C2311  C2316   1.461   .     S
C2311  O2495   1.305   .     A
C2311  O2492   1.296   .     A
C2312  N2471   1.432   .     S
C2312  C2321   1.412   .     A
C2313  N2472   1.420   .     S
C2313  C2321   1.409   .     A
C2314  N2473   1.419   .     S
C2314  C2323   1.411   .     A
C2315  C2322   1.455   .     S
C2319  C2351   1.454   .     S
C2320  C2350   1.460   .     S
C2321  C2344   1.453   .     S
C2322  O2494   1.290   .     A
C2322  O2493   1.306   .     A
C2323  C2333   1.456   .     S
C2324  H2390   1.112   .     S
C2324  H2368   1.111   .     S
C2324  N2476   1.453   .     S
C2324  H2379   1.104   .     S
C2325  H2423   1.111   .     S
C2325  N2477   1.454   .     S
C2325  H2434   1.104   .     S
C2325  H2412   1.112   .     S
C2326  H2358   1.110   .     S
C2326  H2360   1.110   .     S
C2326  H2359   1.109   .     S
C2326  N2270   1.447   1_655 S
C2327  H2362   1.111   .     S
C2327  H2363   1.108   .     S
C2327  N2479   1.452   .     S
C2327  H2364   1.112   .     S
C2328  N2480   1.451   .     S
C2328  H2367   1.104   .     S
C2328  H2366   1.106   .     S
C2328  H2369   1.111   .     S
C2329  H2371   1.110   .     S
C2329  H2372   1.099   .     S
C2329  N2454   1.453   .     S
C2329  H2373   1.110   .     S
C2330  N2455   1.447   .     S
C2330  H2377   1.108   .     S
C2330  H2376   1.109   .     S
C2330  H2375   1.110   .     S
C2331  N2456   1.450   .     S
C2331  H2382   1.112   .     S
C2331  H2380   1.111   .     S
C2331  H2381   1.108   .     S
C2332  N2457   1.451   .     S
C2332  H2386   1.101   .     S
C2332  H2384   1.109   .     S
C2332  H2385   1.105   .     S
C2333  O2484   1.307   .     A
C2333  O2496   1.292   .     A
C2334  H2389   1.110   .     S
C2334  H2391   1.112   .     S
C2334  N2458   1.449   .     S
C2335  H2394   1.108   .     S
C2335  H2395   1.101   .     S
C2335  N2459   1.454   .     S
C2335  H2393   1.112   .     S
C2336  H2398   1.111   .     S
C2336  H2397   1.111   .     S
C2336  N2460   1.448   .     S
C2336  H2399   1.110   .     S
C2337  N2461   1.450   .     S
C2337  H2403   1.111   .     S
C2337  H2402   1.111   .     S
C2337  H2404   1.107   .     S
C2338  H2408   1.111   .     S
C2338  H2407   1.111   .     S
C2338  H2406   1.110   .     S
C2338  N2462   1.449   .     S
C2339  H2411   1.107   .     S
C2339  N2463   1.449   .     S
C2339  H2413   1.111   .     S
C2339  H2410   1.110   .     S
C2340  H2417   1.103   .     S
C2340  H2415   1.113   .     S
C2340  N2465   1.450   .     S
C2341  N2466   1.450   .     S
C2341  H2419   1.103   .     S
C2341  H2421   1.107   .     S
C2341  H2420   1.110   .     S
C2342  H2426   1.111   .     S
C2342  H2425   1.110   .     S
C2342  N2467   1.450   .     S
C2342  H2424   1.108   .     S
C2343  H2429   1.109   .     S
C2343  N2468   1.450   .     S
C2343  H2430   1.105   .     S
C2343  H2428   1.111   .     S
C2344  O2483   1.300   .     A
C2344  O2482   1.296   .     A
C2345  H2433   1.110   .     S
C2345  H2432   1.111   .     S
C2345  N2469   1.449   .     S
C2345  H2435   1.110   .     S
C2346  H2437   1.110   .     S
C2346  N2470   1.448   .     S
C2346  H2438   1.110   .     S
C2346  H2023   1.107   1_565 S
C2347  H2441   1.108   .     S
C2347  H2442   1.109   .     S
C2347  H2443   1.110   .     S
C2347  N2471   1.447   .     S
C2348  N2472   1.449   .     S
C2348  H2446   1.111   .     S
C2348  H2447   1.107   .     S
C2348  H2448   1.110   .     S
C2349  H2452   1.104   .     S
C2349  H2450   1.112   .     S
C2349  N2473   1.450   .     S
C2349  H2451   1.109   .     S
C2350  O2485   1.300   .     A
C2350  O2488   1.298   .     A
C2351  O2486   1.307   .     A
C2351  O2487   1.290   .     A
C2352  N2464   1.373   .     A
C2352  N2476   1.416   .     S
Cu2353 O2493   1.974   .     S
Cu2353 N2453   2.032   .     S
Cu2353 O2481   1.956   .     S
Cu2353 Cu2354  2.704   .     S
Cu2354 O2494   1.964   .     S
Cu2354 N2464   2.032   .     S
Cu2354 O2491   1.976   .     S
Cu2355 O2486   1.974   .     S
Cu2355 O2483   1.976   .     S
Cu2355 N2474   2.032   .     S
Cu2355 Cu2356  2.704   .     S
Cu2356 N2475   2.032   .     S
Cu2356 O2482   1.956   .     S
Cu2356 O2487   1.964   .     S
H2357  N2268   1.022   1_655 S
H2365  N2480   1.021   .     S
H2370  N2454   1.027   .     S
H2374  N2455   1.029   .     S
H2378  N2456   1.028   .     S
H2383  N2457   1.031   .     S
H2387  N2458   1.030   .     S
H2388  C2126   1.108   1_655 S
H2392  N2459   1.029   .     S
H2396  N2460   1.030   .     S
H2400  N2461   1.031   .     S
H2401  N2477   1.025   .     S
H2405  N2462   1.030   .     S
H2409  N2463   1.028   .     S
H2414  N2465   1.028   .     S
H2416  C2132   1.109   1_655 S
H2418  N2466   1.025   .     S
H2422  N2467   1.030   .     S
H2427  N2468   1.030   .     S
H2431  N2469   1.027   .     S
H2436  N2470   1.032   .     S
H2440  N2471   1.027   .     S
H2444  N2472   1.028   .     S
H2445  N2478   1.030   .     S
H2449  N2473   1.029   .     S
N2479  H2153   1.030   1_655 S
O2484  Cu1940  1.976   1_565 S
O2485  Cu1940  1.974   1_565 S
O2488  Cu1939  1.964   1_565 S
O2489  Cu2146  1.956   1_655 S
O2490  Cu2145  1.976   1_655 S
O2492  Cu2146  1.974   1_655 S
O2495  Cu2145  1.964   1_655 S
O2496  Cu1939  1.956   1_565 S
