data_str_m2_o2_o10_pcu_sym.52
_audit_creation_date              2020-01-03
_audit_creation_method            'Materials Studio'
_symmetry_space_group_name_H-M    'P1'
_symmetry_Int_Tables_number       1
_symmetry_cell_setting            triclinic
loop_
_symmetry_equiv_pos_as_xyz
  x,y,z
_cell_length_a                    26.1865
_cell_length_b                    30.1928
_cell_length_c                    27.8615
_cell_angle_alpha                 89.1448
_cell_angle_beta                  97.4218
_cell_angle_gamma                 91.3893
loop_
_atom_site_label
_atom_site_type_symbol
_atom_site_fract_x
_atom_site_fract_y
_atom_site_fract_z
_atom_site_U_iso_or_equiv
_atom_site_adp_type
_atom_site_occupancy
Br1    Br    0.23426   0.01948   0.17735   0.00000  Uiso   1.00
Br2    Br    0.23054   0.48319   0.34108   0.00000  Uiso   1.00
C3     C     0.16656   0.16502   0.25027   0.00000  Uiso   1.00
C4     C     0.20688   0.27112   0.45046   0.00000  Uiso   1.00
C5     C     0.16654   0.24979   0.02721   0.00000  Uiso   1.00
C6     C     0.16703   0.25026   0.47282   0.00000  Uiso   1.00
C7     C     0.06800   0.24996   0.23769   0.00000  Uiso   1.00
C8     C     0.26533   0.25010   0.26231   0.00000  Uiso   1.00
C9     C     0.01281   0.24998   0.23085   0.00000  Uiso   1.00
C10    C     0.32052   0.25018   0.26914   0.00000  Uiso   1.00
C11    C     0.13420   0.04709   0.28103   0.00000  Uiso   1.00
C12    C     0.13590   0.45172   0.20999   0.00000  Uiso   1.00
C13    C     0.13703   0.09321   0.28180   0.00000  Uiso   1.00
C14    C     0.16672   0.33499   0.24971   0.00000  Uiso   1.00
C15    C     0.13878   0.40571   0.21006   0.00000  Uiso   1.00
C16    C     0.16590   0.11680   0.25070   0.00000  Uiso   1.00
C17    C     0.16609   0.38322   0.24908   0.00000  Uiso   1.00
C18    C     0.19337   0.09427   0.21925   0.00000  Uiso   1.00
C19    C     0.19199   0.40682   0.28799   0.00000  Uiso   1.00
C20    C     0.19281   0.04823   0.21916   0.00000  Uiso   1.00
C21    C     0.19134   0.45284   0.28790   0.00000  Uiso   1.00
C22    C     0.16296   0.02425   0.24970   0.00000  Uiso   1.00
C23    C     0.16302   0.47567   0.24918   0.00000  Uiso   1.00
C24    C     0.18948   0.28454   0.05555   0.00000  Uiso   1.00
C25    C     0.12695   0.22997   0.44224   0.00000  Uiso   1.00
C26    C     0.19061   0.28385   0.10606   0.00000  Uiso   1.00
C27    C     0.12772   0.22891   0.39200   0.00000  Uiso   1.00
C28    C     0.14286   0.21620   0.10237   0.00000  Uiso   1.00
C29    C     0.20563   0.27105   0.39960   0.00000  Uiso   1.00
C30    C     0.14289   0.21518   0.05169   0.00000  Uiso   1.00
Cu31   Cu    0.16667   0.25000   0.29822   0.00000  Uiso   1.00
Cu32   Cu    0.16667   0.25001   0.20179   0.00000  Uiso   1.00
H33    H     0.32649   0.24982   0.19400   0.00000  Uiso   1.00
H34    H     0.23634   0.28770   0.38345   0.00000  Uiso   1.00
H35    H     0.12487   0.18704   0.03212   0.00000  Uiso   1.00
H36    H     0.23933   0.28709   0.47193   0.00000  Uiso   1.00
H37    H     0.10006   0.49409   0.30426   0.00000  Uiso   1.00
H38    H     0.10300   0.00341   0.17727   0.00000  Uiso   1.00
H39    H     0.23397   0.30649   0.16127   0.00000  Uiso   1.00
H40    H     0.10181   0.19159   0.33895   0.00000  Uiso   1.00
H41    H     0.00681   0.25040   0.30599   0.00000  Uiso   1.00
H42    H     0.11528   0.11073   0.30580   0.00000  Uiso   1.00
H43    H     0.11826   0.38737   0.18011   0.00000  Uiso   1.00
H44    H     0.21611   0.11251   0.19541   0.00000  Uiso   1.00
H45    H     0.21357   0.38948   0.31806   0.00000  Uiso   1.00
H46    H     0.20731   0.31248   0.03885   0.00000  Uiso   1.00
H47    H     0.09474   0.21425   0.45704   0.00000  Uiso   1.00
H48    H     0.12393   0.18951   0.12001   0.00000  Uiso   1.00
N49    N     0.16667   0.25001   0.12935   0.00000  Uiso   1.00
N50    N     0.16667   0.24999   0.37066   0.00000  Uiso   1.00
O51    O     0.16667   0.18573   0.29072   0.00000  Uiso   1.00
O52    O     0.10630   0.47150   0.17122   0.00000  Uiso   1.00
O53    O     0.21654   0.31842   0.13060   0.00000  Uiso   1.00
O54    O     0.08791   0.20597   0.36573   0.00000  Uiso   1.00
O55    O     0.16666   0.31428   0.20929   0.00000  Uiso   1.00
O56    O     0.16667   0.18573   0.20928   0.00000  Uiso   1.00
O57    O     0.16666   0.31427   0.29072   0.00000  Uiso   1.00
O58    O     0.09161   0.25000   0.28132   0.00000  Uiso   1.00
O59    O     0.24172   0.25001   0.21868   0.00000  Uiso   1.00
O60    O     0.09161   0.25000   0.19989   0.00000  Uiso   1.00
O61    O     0.24172   0.25000   0.30012   0.00000  Uiso   1.00
O62    O     0.10305   0.02612   0.31124   0.00000  Uiso   1.00
Br63   Br    0.56759   0.01948   0.17735   0.00000  Uiso   1.00
Br64   Br    0.56388   0.48319   0.34108   0.00000  Uiso   1.00
C65    C     0.49989   0.16502   0.25027   0.00000  Uiso   1.00
C66    C     0.54021   0.27112   0.45046   0.00000  Uiso   1.00
C67    C     0.49988   0.24979   0.02721   0.00000  Uiso   1.00
C68    C     0.50036   0.25026   0.47282   0.00000  Uiso   1.00
C69    C     0.40133   0.24996   0.23769   0.00000  Uiso   1.00
C70    C     0.59867   0.25010   0.26231   0.00000  Uiso   1.00
C71    C     0.34614   0.24998   0.23085   0.00000  Uiso   1.00
C72    C     0.65385   0.25018   0.26914   0.00000  Uiso   1.00
C73    C     0.46753   0.04709   0.28103   0.00000  Uiso   1.00
C74    C     0.46923   0.45172   0.20999   0.00000  Uiso   1.00
C75    C     0.47036   0.09321   0.28180   0.00000  Uiso   1.00
C76    C     0.50005   0.33499   0.24971   0.00000  Uiso   1.00
C77    C     0.47211   0.40571   0.21006   0.00000  Uiso   1.00
C78    C     0.49924   0.11680   0.25070   0.00000  Uiso   1.00
C79    C     0.49942   0.38322   0.24908   0.00000  Uiso   1.00
C80    C     0.52670   0.09427   0.21925   0.00000  Uiso   1.00
C81    C     0.52532   0.40682   0.28799   0.00000  Uiso   1.00
C82    C     0.52614   0.04823   0.21916   0.00000  Uiso   1.00
C83    C     0.52467   0.45284   0.28790   0.00000  Uiso   1.00
C84    C     0.49630   0.02425   0.24970   0.00000  Uiso   1.00
C85    C     0.49636   0.47567   0.24918   0.00000  Uiso   1.00
C86    C     0.52282   0.28454   0.05555   0.00000  Uiso   1.00
C87    C     0.46029   0.22997   0.44224   0.00000  Uiso   1.00
C88    C     0.52395   0.28385   0.10606   0.00000  Uiso   1.00
C89    C     0.46105   0.22891   0.39200   0.00000  Uiso   1.00
C90    C     0.47619   0.21620   0.10237   0.00000  Uiso   1.00
C91    C     0.53896   0.27105   0.39960   0.00000  Uiso   1.00
C92    C     0.47622   0.21518   0.05169   0.00000  Uiso   1.00
Cu93   Cu    0.50000   0.25000   0.29822   0.00000  Uiso   1.00
Cu94   Cu    0.50000   0.25001   0.20179   0.00000  Uiso   1.00
H95    H     0.65982   0.24982   0.19400   0.00000  Uiso   1.00
H96    H     0.56968   0.28770   0.38345   0.00000  Uiso   1.00
H97    H     0.45821   0.18704   0.03212   0.00000  Uiso   1.00
H98    H     0.57266   0.28709   0.47193   0.00000  Uiso   1.00
H99    H     0.43339   0.49409   0.30426   0.00000  Uiso   1.00
H100   H     0.43634   0.00341   0.17727   0.00000  Uiso   1.00
H101   H     0.56730   0.30649   0.16127   0.00000  Uiso   1.00
H102   H     0.43515   0.19159   0.33895   0.00000  Uiso   1.00
H103   H     0.34015   0.25040   0.30599   0.00000  Uiso   1.00
H104   H     0.44861   0.11073   0.30580   0.00000  Uiso   1.00
H105   H     0.45159   0.38737   0.18011   0.00000  Uiso   1.00
H106   H     0.54945   0.11251   0.19541   0.00000  Uiso   1.00
H107   H     0.54690   0.38948   0.31806   0.00000  Uiso   1.00
H108   H     0.54065   0.31248   0.03885   0.00000  Uiso   1.00
H109   H     0.42808   0.21425   0.45704   0.00000  Uiso   1.00
H110   H     0.45726   0.18951   0.12001   0.00000  Uiso   1.00
N111   N     0.50000   0.25001   0.12935   0.00000  Uiso   1.00
N112   N     0.50000   0.24999   0.37066   0.00000  Uiso   1.00
O113   O     0.50000   0.18573   0.29072   0.00000  Uiso   1.00
O114   O     0.43963   0.47150   0.17122   0.00000  Uiso   1.00
O115   O     0.54987   0.31842   0.13060   0.00000  Uiso   1.00
O116   O     0.42125   0.20597   0.36573   0.00000  Uiso   1.00
O117   O     0.50000   0.31428   0.20929   0.00000  Uiso   1.00
O118   O     0.50000   0.18573   0.20928   0.00000  Uiso   1.00
O119   O     0.50000   0.31427   0.29072   0.00000  Uiso   1.00
O120   O     0.42495   0.25000   0.28132   0.00000  Uiso   1.00
O121   O     0.57505   0.25001   0.21868   0.00000  Uiso   1.00
O122   O     0.42495   0.25000   0.19989   0.00000  Uiso   1.00
O123   O     0.57505   0.25000   0.30012   0.00000  Uiso   1.00
O124   O     0.43638   0.02612   0.31124   0.00000  Uiso   1.00
Br125  Br    0.90093   0.01948   0.17735   0.00000  Uiso   1.00
Br126  Br    0.89721   0.48319   0.34108   0.00000  Uiso   1.00
C127   C     0.83322   0.16502   0.25027   0.00000  Uiso   1.00
C128   C     0.87354   0.27112   0.45046   0.00000  Uiso   1.00
C129   C     0.83321   0.24979   0.02721   0.00000  Uiso   1.00
C130   C     0.83370   0.25026   0.47282   0.00000  Uiso   1.00
C131   C     0.73467   0.24996   0.23769   0.00000  Uiso   1.00
C132   C     0.93200   0.25010   0.26231   0.00000  Uiso   1.00
C133   C     0.67947   0.24998   0.23085   0.00000  Uiso   1.00
C134   C     0.98718   0.25018   0.26914   0.00000  Uiso   1.00
C135   C     0.80087   0.04709   0.28103   0.00000  Uiso   1.00
C136   C     0.80256   0.45172   0.20999   0.00000  Uiso   1.00
C137   C     0.80370   0.09321   0.28180   0.00000  Uiso   1.00
C138   C     0.83339   0.33499   0.24971   0.00000  Uiso   1.00
C139   C     0.80544   0.40571   0.21006   0.00000  Uiso   1.00
C140   C     0.83257   0.11680   0.25070   0.00000  Uiso   1.00
C141   C     0.83275   0.38322   0.24908   0.00000  Uiso   1.00
C142   C     0.86004   0.09427   0.21925   0.00000  Uiso   1.00
C143   C     0.85866   0.40682   0.28799   0.00000  Uiso   1.00
C144   C     0.85948   0.04823   0.21916   0.00000  Uiso   1.00
C145   C     0.85801   0.45284   0.28790   0.00000  Uiso   1.00
C146   C     0.82963   0.02425   0.24970   0.00000  Uiso   1.00
C147   C     0.82969   0.47567   0.24918   0.00000  Uiso   1.00
C148   C     0.85615   0.28454   0.05555   0.00000  Uiso   1.00
C149   C     0.79362   0.22997   0.44224   0.00000  Uiso   1.00
C150   C     0.85728   0.28385   0.10606   0.00000  Uiso   1.00
C151   C     0.79438   0.22891   0.39200   0.00000  Uiso   1.00
C152   C     0.80952   0.21620   0.10237   0.00000  Uiso   1.00
C153   C     0.87229   0.27105   0.39960   0.00000  Uiso   1.00
C154   C     0.80956   0.21518   0.05169   0.00000  Uiso   1.00
Cu155  Cu    0.83333   0.25000   0.29822   0.00000  Uiso   1.00
Cu156  Cu    0.83333   0.25001   0.20179   0.00000  Uiso   1.00
H157   H     0.99315   0.24982   0.19400   0.00000  Uiso   1.00
H158   H     0.90301   0.28770   0.38345   0.00000  Uiso   1.00
H159   H     0.79154   0.18704   0.03212   0.00000  Uiso   1.00
H160   H     0.90599   0.28709   0.47193   0.00000  Uiso   1.00
H161   H     0.76672   0.49409   0.30426   0.00000  Uiso   1.00
H162   H     0.76967   0.00341   0.17727   0.00000  Uiso   1.00
H163   H     0.90064   0.30649   0.16127   0.00000  Uiso   1.00
H164   H     0.76848   0.19159   0.33895   0.00000  Uiso   1.00
H165   H     0.67348   0.25040   0.30599   0.00000  Uiso   1.00
H166   H     0.78195   0.11073   0.30580   0.00000  Uiso   1.00
H167   H     0.78493   0.38737   0.18011   0.00000  Uiso   1.00
H168   H     0.88278   0.11251   0.19541   0.00000  Uiso   1.00
H169   H     0.88024   0.38948   0.31806   0.00000  Uiso   1.00
H170   H     0.87398   0.31248   0.03885   0.00000  Uiso   1.00
H171   H     0.76141   0.21425   0.45704   0.00000  Uiso   1.00
H172   H     0.79059   0.18951   0.12001   0.00000  Uiso   1.00
N173   N     0.83333   0.25001   0.12935   0.00000  Uiso   1.00
N174   N     0.83333   0.24999   0.37066   0.00000  Uiso   1.00
O175   O     0.83334   0.18573   0.29072   0.00000  Uiso   1.00
O176   O     0.77296   0.47150   0.17122   0.00000  Uiso   1.00
O177   O     0.88321   0.31842   0.13060   0.00000  Uiso   1.00
O178   O     0.75458   0.20597   0.36573   0.00000  Uiso   1.00
O179   O     0.83333   0.31428   0.20929   0.00000  Uiso   1.00
O180   O     0.83334   0.18573   0.20928   0.00000  Uiso   1.00
O181   O     0.83333   0.31427   0.29072   0.00000  Uiso   1.00
O182   O     0.75828   0.25000   0.28132   0.00000  Uiso   1.00
O183   O     0.90839   0.25001   0.21868   0.00000  Uiso   1.00
O184   O     0.75828   0.25000   0.19989   0.00000  Uiso   1.00
O185   O     0.90839   0.25000   0.30012   0.00000  Uiso   1.00
O186   O     0.76972   0.02612   0.31124   0.00000  Uiso   1.00
Br187  Br    0.23426   0.51948   0.17735   0.00000  Uiso   1.00
Br188  Br    0.23054   0.98319   0.34108   0.00000  Uiso   1.00
C189   C     0.16656   0.66502   0.25027   0.00000  Uiso   1.00
C190   C     0.20688   0.77112   0.45046   0.00000  Uiso   1.00
C191   C     0.16654   0.74979   0.02721   0.00000  Uiso   1.00
C192   C     0.16703   0.75026   0.47282   0.00000  Uiso   1.00
C193   C     0.06800   0.74996   0.23769   0.00000  Uiso   1.00
C194   C     0.26533   0.75010   0.26231   0.00000  Uiso   1.00
C195   C     0.01281   0.74998   0.23085   0.00000  Uiso   1.00
C196   C     0.32052   0.75018   0.26914   0.00000  Uiso   1.00
C197   C     0.13420   0.54709   0.28103   0.00000  Uiso   1.00
C198   C     0.13590   0.95172   0.20999   0.00000  Uiso   1.00
C199   C     0.13703   0.59321   0.28180   0.00000  Uiso   1.00
C200   C     0.16672   0.83499   0.24971   0.00000  Uiso   1.00
C201   C     0.13878   0.90571   0.21006   0.00000  Uiso   1.00
C202   C     0.16590   0.61680   0.25070   0.00000  Uiso   1.00
C203   C     0.16609   0.88322   0.24908   0.00000  Uiso   1.00
C204   C     0.19337   0.59427   0.21925   0.00000  Uiso   1.00
C205   C     0.19199   0.90682   0.28799   0.00000  Uiso   1.00
C206   C     0.19281   0.54823   0.21916   0.00000  Uiso   1.00
C207   C     0.19134   0.95284   0.28790   0.00000  Uiso   1.00
C208   C     0.16296   0.52425   0.24970   0.00000  Uiso   1.00
C209   C     0.16302   0.97567   0.24918   0.00000  Uiso   1.00
C210   C     0.18948   0.78454   0.05555   0.00000  Uiso   1.00
C211   C     0.12695   0.72997   0.44224   0.00000  Uiso   1.00
C212   C     0.19061   0.78385   0.10606   0.00000  Uiso   1.00
C213   C     0.12772   0.72891   0.39200   0.00000  Uiso   1.00
C214   C     0.14286   0.71620   0.10237   0.00000  Uiso   1.00
C215   C     0.20563   0.77105   0.39960   0.00000  Uiso   1.00
C216   C     0.14289   0.71518   0.05169   0.00000  Uiso   1.00
Cu217  Cu    0.16667   0.75000   0.29822   0.00000  Uiso   1.00
Cu218  Cu    0.16667   0.75001   0.20179   0.00000  Uiso   1.00
H219   H     0.32649   0.74982   0.19400   0.00000  Uiso   1.00
H220   H     0.23634   0.78770   0.38345   0.00000  Uiso   1.00
H221   H     0.12487   0.68704   0.03212   0.00000  Uiso   1.00
H222   H     0.23933   0.78709   0.47193   0.00000  Uiso   1.00
H223   H     0.10006   0.99409   0.30426   0.00000  Uiso   1.00
H224   H     0.10300   0.50341   0.17727   0.00000  Uiso   1.00
H225   H     0.23397   0.80649   0.16127   0.00000  Uiso   1.00
H226   H     0.10181   0.69159   0.33895   0.00000  Uiso   1.00
H227   H     0.00681   0.75040   0.30599   0.00000  Uiso   1.00
H228   H     0.11528   0.61073   0.30580   0.00000  Uiso   1.00
H229   H     0.11826   0.88737   0.18011   0.00000  Uiso   1.00
H230   H     0.21611   0.61251   0.19541   0.00000  Uiso   1.00
H231   H     0.21357   0.88948   0.31806   0.00000  Uiso   1.00
H232   H     0.20731   0.81248   0.03885   0.00000  Uiso   1.00
H233   H     0.09474   0.71425   0.45704   0.00000  Uiso   1.00
H234   H     0.12393   0.68951   0.12001   0.00000  Uiso   1.00
N235   N     0.16667   0.75001   0.12935   0.00000  Uiso   1.00
N236   N     0.16667   0.74999   0.37066   0.00000  Uiso   1.00
O237   O     0.16667   0.68573   0.29072   0.00000  Uiso   1.00
O238   O     0.10630   0.97150   0.17122   0.00000  Uiso   1.00
O239   O     0.21654   0.81842   0.13060   0.00000  Uiso   1.00
O240   O     0.08791   0.70597   0.36573   0.00000  Uiso   1.00
O241   O     0.16666   0.81428   0.20929   0.00000  Uiso   1.00
O242   O     0.16667   0.68573   0.20928   0.00000  Uiso   1.00
O243   O     0.16666   0.81427   0.29072   0.00000  Uiso   1.00
O244   O     0.09161   0.75000   0.28132   0.00000  Uiso   1.00
O245   O     0.24172   0.75001   0.21868   0.00000  Uiso   1.00
O246   O     0.09161   0.75000   0.19989   0.00000  Uiso   1.00
O247   O     0.24172   0.75000   0.30012   0.00000  Uiso   1.00
O248   O     0.10305   0.52612   0.31124   0.00000  Uiso   1.00
Br249  Br    0.56759   0.51948   0.17735   0.00000  Uiso   1.00
Br250  Br    0.56388   0.98319   0.34108   0.00000  Uiso   1.00
C251   C     0.49989   0.66502   0.25027   0.00000  Uiso   1.00
C252   C     0.54021   0.77112   0.45046   0.00000  Uiso   1.00
C253   C     0.49988   0.74979   0.02721   0.00000  Uiso   1.00
C254   C     0.50036   0.75026   0.47282   0.00000  Uiso   1.00
C255   C     0.40133   0.74996   0.23769   0.00000  Uiso   1.00
C256   C     0.59867   0.75010   0.26231   0.00000  Uiso   1.00
C257   C     0.34614   0.74998   0.23085   0.00000  Uiso   1.00
C258   C     0.65385   0.75018   0.26914   0.00000  Uiso   1.00
C259   C     0.46753   0.54709   0.28103   0.00000  Uiso   1.00
C260   C     0.46923   0.95172   0.20999   0.00000  Uiso   1.00
C261   C     0.47036   0.59321   0.28180   0.00000  Uiso   1.00
C262   C     0.50005   0.83499   0.24971   0.00000  Uiso   1.00
C263   C     0.47211   0.90571   0.21006   0.00000  Uiso   1.00
C264   C     0.49924   0.61680   0.25070   0.00000  Uiso   1.00
C265   C     0.49942   0.88322   0.24908   0.00000  Uiso   1.00
C266   C     0.52670   0.59427   0.21925   0.00000  Uiso   1.00
C267   C     0.52532   0.90682   0.28799   0.00000  Uiso   1.00
C268   C     0.52614   0.54823   0.21916   0.00000  Uiso   1.00
C269   C     0.52467   0.95284   0.28790   0.00000  Uiso   1.00
C270   C     0.49630   0.52425   0.24970   0.00000  Uiso   1.00
C271   C     0.49636   0.97567   0.24918   0.00000  Uiso   1.00
C272   C     0.52282   0.78454   0.05555   0.00000  Uiso   1.00
C273   C     0.46029   0.72997   0.44224   0.00000  Uiso   1.00
C274   C     0.52395   0.78385   0.10606   0.00000  Uiso   1.00
C275   C     0.46105   0.72891   0.39200   0.00000  Uiso   1.00
C276   C     0.47619   0.71620   0.10237   0.00000  Uiso   1.00
C277   C     0.53896   0.77105   0.39960   0.00000  Uiso   1.00
C278   C     0.47622   0.71518   0.05169   0.00000  Uiso   1.00
Cu279  Cu    0.50000   0.75000   0.29822   0.00000  Uiso   1.00
Cu280  Cu    0.50000   0.75001   0.20179   0.00000  Uiso   1.00
H281   H     0.65982   0.74982   0.19400   0.00000  Uiso   1.00
H282   H     0.56968   0.78770   0.38345   0.00000  Uiso   1.00
H283   H     0.45821   0.68704   0.03212   0.00000  Uiso   1.00
H284   H     0.57266   0.78709   0.47193   0.00000  Uiso   1.00
H285   H     0.43339   0.99409   0.30426   0.00000  Uiso   1.00
H286   H     0.43634   0.50341   0.17727   0.00000  Uiso   1.00
H287   H     0.56730   0.80649   0.16127   0.00000  Uiso   1.00
H288   H     0.43515   0.69159   0.33895   0.00000  Uiso   1.00
H289   H     0.34015   0.75040   0.30599   0.00000  Uiso   1.00
H290   H     0.44861   0.61073   0.30580   0.00000  Uiso   1.00
H291   H     0.45159   0.88737   0.18011   0.00000  Uiso   1.00
H292   H     0.54945   0.61251   0.19541   0.00000  Uiso   1.00
H293   H     0.54690   0.88948   0.31806   0.00000  Uiso   1.00
H294   H     0.54065   0.81248   0.03885   0.00000  Uiso   1.00
H295   H     0.42808   0.71425   0.45704   0.00000  Uiso   1.00
H296   H     0.45726   0.68951   0.12001   0.00000  Uiso   1.00
N297   N     0.50000   0.75001   0.12935   0.00000  Uiso   1.00
N298   N     0.50000   0.74999   0.37066   0.00000  Uiso   1.00
O299   O     0.50000   0.68573   0.29072   0.00000  Uiso   1.00
O300   O     0.43963   0.97150   0.17122   0.00000  Uiso   1.00
O301   O     0.54987   0.81842   0.13060   0.00000  Uiso   1.00
O302   O     0.42125   0.70597   0.36573   0.00000  Uiso   1.00
O303   O     0.50000   0.81428   0.20929   0.00000  Uiso   1.00
O304   O     0.50000   0.68573   0.20928   0.00000  Uiso   1.00
O305   O     0.50000   0.81427   0.29072   0.00000  Uiso   1.00
O306   O     0.42495   0.75000   0.28132   0.00000  Uiso   1.00
O307   O     0.57505   0.75001   0.21868   0.00000  Uiso   1.00
O308   O     0.42495   0.75000   0.19989   0.00000  Uiso   1.00
O309   O     0.57505   0.75000   0.30012   0.00000  Uiso   1.00
O310   O     0.43638   0.52612   0.31124   0.00000  Uiso   1.00
Br311  Br    0.90093   0.51948   0.17735   0.00000  Uiso   1.00
Br312  Br    0.89721   0.98319   0.34108   0.00000  Uiso   1.00
C313   C     0.83322   0.66502   0.25027   0.00000  Uiso   1.00
C314   C     0.87354   0.77112   0.45046   0.00000  Uiso   1.00
C315   C     0.83321   0.74979   0.02721   0.00000  Uiso   1.00
C316   C     0.83370   0.75026   0.47282   0.00000  Uiso   1.00
C317   C     0.73467   0.74996   0.23769   0.00000  Uiso   1.00
C318   C     0.93200   0.75010   0.26231   0.00000  Uiso   1.00
C319   C     0.67947   0.74998   0.23085   0.00000  Uiso   1.00
C320   C     0.98718   0.75018   0.26914   0.00000  Uiso   1.00
C321   C     0.80087   0.54709   0.28103   0.00000  Uiso   1.00
C322   C     0.80256   0.95172   0.20999   0.00000  Uiso   1.00
C323   C     0.80370   0.59321   0.28180   0.00000  Uiso   1.00
C324   C     0.83339   0.83499   0.24971   0.00000  Uiso   1.00
C325   C     0.80544   0.90571   0.21006   0.00000  Uiso   1.00
C326   C     0.83257   0.61680   0.25070   0.00000  Uiso   1.00
C327   C     0.83275   0.88322   0.24908   0.00000  Uiso   1.00
C328   C     0.86004   0.59427   0.21925   0.00000  Uiso   1.00
C329   C     0.85866   0.90682   0.28799   0.00000  Uiso   1.00
C330   C     0.85948   0.54823   0.21916   0.00000  Uiso   1.00
C331   C     0.85801   0.95284   0.28790   0.00000  Uiso   1.00
C332   C     0.82963   0.52425   0.24970   0.00000  Uiso   1.00
C333   C     0.82969   0.97567   0.24918   0.00000  Uiso   1.00
C334   C     0.85615   0.78454   0.05555   0.00000  Uiso   1.00
C335   C     0.79362   0.72997   0.44224   0.00000  Uiso   1.00
C336   C     0.85728   0.78385   0.10606   0.00000  Uiso   1.00
C337   C     0.79438   0.72891   0.39200   0.00000  Uiso   1.00
C338   C     0.80952   0.71620   0.10237   0.00000  Uiso   1.00
C339   C     0.87229   0.77105   0.39960   0.00000  Uiso   1.00
C340   C     0.80956   0.71518   0.05169   0.00000  Uiso   1.00
Cu341  Cu    0.83333   0.75000   0.29822   0.00000  Uiso   1.00
Cu342  Cu    0.83333   0.75001   0.20179   0.00000  Uiso   1.00
H343   H     0.99315   0.74982   0.19400   0.00000  Uiso   1.00
H344   H     0.90301   0.78770   0.38345   0.00000  Uiso   1.00
H345   H     0.79154   0.68704   0.03212   0.00000  Uiso   1.00
H346   H     0.90599   0.78709   0.47193   0.00000  Uiso   1.00
H347   H     0.76672   0.99409   0.30426   0.00000  Uiso   1.00
H348   H     0.76967   0.50341   0.17727   0.00000  Uiso   1.00
H349   H     0.90064   0.80649   0.16127   0.00000  Uiso   1.00
H350   H     0.76848   0.69159   0.33895   0.00000  Uiso   1.00
H351   H     0.67348   0.75040   0.30599   0.00000  Uiso   1.00
H352   H     0.78195   0.61073   0.30580   0.00000  Uiso   1.00
H353   H     0.78493   0.88737   0.18011   0.00000  Uiso   1.00
H354   H     0.88278   0.61251   0.19541   0.00000  Uiso   1.00
H355   H     0.88024   0.88948   0.31806   0.00000  Uiso   1.00
H356   H     0.87398   0.81248   0.03885   0.00000  Uiso   1.00
H357   H     0.76141   0.71425   0.45704   0.00000  Uiso   1.00
H358   H     0.79059   0.68951   0.12001   0.00000  Uiso   1.00
N359   N     0.83333   0.75001   0.12935   0.00000  Uiso   1.00
N360   N     0.83333   0.74999   0.37066   0.00000  Uiso   1.00
O361   O     0.83334   0.68573   0.29072   0.00000  Uiso   1.00
O362   O     0.77296   0.97150   0.17122   0.00000  Uiso   1.00
O363   O     0.88321   0.81842   0.13060   0.00000  Uiso   1.00
O364   O     0.75458   0.70597   0.36573   0.00000  Uiso   1.00
O365   O     0.83333   0.81428   0.20929   0.00000  Uiso   1.00
O366   O     0.83334   0.68573   0.20928   0.00000  Uiso   1.00
O367   O     0.83333   0.81427   0.29072   0.00000  Uiso   1.00
O368   O     0.75828   0.75000   0.28132   0.00000  Uiso   1.00
O369   O     0.90839   0.75001   0.21868   0.00000  Uiso   1.00
O370   O     0.75828   0.75000   0.19989   0.00000  Uiso   1.00
O371   O     0.90839   0.75000   0.30012   0.00000  Uiso   1.00
O372   O     0.76972   0.52612   0.31124   0.00000  Uiso   1.00
Br373  Br    0.23426   0.01948   0.67735   0.00000  Uiso   1.00
Br374  Br    0.23054   0.48319   0.84108   0.00000  Uiso   1.00
C375   C     0.16656   0.16502   0.75027   0.00000  Uiso   1.00
C376   C     0.20688   0.27112   0.95046   0.00000  Uiso   1.00
C377   C     0.16654   0.24979   0.52721   0.00000  Uiso   1.00
C378   C     0.16703   0.25026   0.97282   0.00000  Uiso   1.00
C379   C     0.06800   0.24996   0.73769   0.00000  Uiso   1.00
C380   C     0.26533   0.25010   0.76231   0.00000  Uiso   1.00
C381   C     0.01281   0.24998   0.73085   0.00000  Uiso   1.00
C382   C     0.32052   0.25018   0.76914   0.00000  Uiso   1.00
C383   C     0.13420   0.04709   0.78103   0.00000  Uiso   1.00
C384   C     0.13590   0.45172   0.70999   0.00000  Uiso   1.00
C385   C     0.13703   0.09321   0.78180   0.00000  Uiso   1.00
C386   C     0.16672   0.33499   0.74971   0.00000  Uiso   1.00
C387   C     0.13878   0.40571   0.71006   0.00000  Uiso   1.00
C388   C     0.16590   0.11680   0.75070   0.00000  Uiso   1.00
C389   C     0.16609   0.38322   0.74908   0.00000  Uiso   1.00
C390   C     0.19337   0.09427   0.71925   0.00000  Uiso   1.00
C391   C     0.19199   0.40682   0.78799   0.00000  Uiso   1.00
C392   C     0.19281   0.04823   0.71916   0.00000  Uiso   1.00
C393   C     0.19134   0.45284   0.78790   0.00000  Uiso   1.00
C394   C     0.16296   0.02425   0.74970   0.00000  Uiso   1.00
C395   C     0.16302   0.47567   0.74918   0.00000  Uiso   1.00
C396   C     0.18948   0.28454   0.55555   0.00000  Uiso   1.00
C397   C     0.12695   0.22997   0.94224   0.00000  Uiso   1.00
C398   C     0.19061   0.28385   0.60606   0.00000  Uiso   1.00
C399   C     0.12772   0.22891   0.89200   0.00000  Uiso   1.00
C400   C     0.14286   0.21620   0.60237   0.00000  Uiso   1.00
C401   C     0.20563   0.27105   0.89960   0.00000  Uiso   1.00
C402   C     0.14289   0.21518   0.55169   0.00000  Uiso   1.00
Cu403  Cu    0.16667   0.25000   0.79822   0.00000  Uiso   1.00
Cu404  Cu    0.16667   0.25001   0.70179   0.00000  Uiso   1.00
H405   H     0.32649   0.24982   0.69400   0.00000  Uiso   1.00
H406   H     0.23634   0.28770   0.88345   0.00000  Uiso   1.00
H407   H     0.12487   0.18704   0.53212   0.00000  Uiso   1.00
H408   H     0.23933   0.28709   0.97193   0.00000  Uiso   1.00
H409   H     0.10006   0.49409   0.80426   0.00000  Uiso   1.00
H410   H     0.10300   0.00341   0.67727   0.00000  Uiso   1.00
H411   H     0.23397   0.30649   0.66127   0.00000  Uiso   1.00
H412   H     0.10181   0.19159   0.83895   0.00000  Uiso   1.00
H413   H     0.00681   0.25040   0.80599   0.00000  Uiso   1.00
H414   H     0.11528   0.11073   0.80580   0.00000  Uiso   1.00
H415   H     0.11826   0.38737   0.68011   0.00000  Uiso   1.00
H416   H     0.21611   0.11251   0.69541   0.00000  Uiso   1.00
H417   H     0.21357   0.38948   0.81806   0.00000  Uiso   1.00
H418   H     0.20731   0.31248   0.53885   0.00000  Uiso   1.00
H419   H     0.09474   0.21425   0.95704   0.00000  Uiso   1.00
H420   H     0.12393   0.18951   0.62001   0.00000  Uiso   1.00
N421   N     0.16667   0.25001   0.62935   0.00000  Uiso   1.00
N422   N     0.16667   0.24999   0.87066   0.00000  Uiso   1.00
O423   O     0.16667   0.18573   0.79072   0.00000  Uiso   1.00
O424   O     0.10630   0.47150   0.67122   0.00000  Uiso   1.00
O425   O     0.21654   0.31842   0.63060   0.00000  Uiso   1.00
O426   O     0.08791   0.20597   0.86573   0.00000  Uiso   1.00
O427   O     0.16666   0.31428   0.70929   0.00000  Uiso   1.00
O428   O     0.16667   0.18573   0.70928   0.00000  Uiso   1.00
O429   O     0.16666   0.31427   0.79072   0.00000  Uiso   1.00
O430   O     0.09161   0.25000   0.78132   0.00000  Uiso   1.00
O431   O     0.24172   0.25001   0.71868   0.00000  Uiso   1.00
O432   O     0.09161   0.25000   0.69989   0.00000  Uiso   1.00
O433   O     0.24172   0.25000   0.80012   0.00000  Uiso   1.00
O434   O     0.10305   0.02612   0.81124   0.00000  Uiso   1.00
Br435  Br    0.56759   0.01948   0.67735   0.00000  Uiso   1.00
Br436  Br    0.56388   0.48319   0.84108   0.00000  Uiso   1.00
C437   C     0.49989   0.16502   0.75027   0.00000  Uiso   1.00
C438   C     0.54021   0.27112   0.95046   0.00000  Uiso   1.00
C439   C     0.49988   0.24979   0.52721   0.00000  Uiso   1.00
C440   C     0.50036   0.25026   0.97282   0.00000  Uiso   1.00
C441   C     0.40133   0.24996   0.73769   0.00000  Uiso   1.00
C442   C     0.59867   0.25010   0.76231   0.00000  Uiso   1.00
C443   C     0.34614   0.24998   0.73085   0.00000  Uiso   1.00
C444   C     0.65385   0.25018   0.76914   0.00000  Uiso   1.00
C445   C     0.46753   0.04709   0.78103   0.00000  Uiso   1.00
C446   C     0.46923   0.45172   0.70999   0.00000  Uiso   1.00
C447   C     0.47036   0.09321   0.78180   0.00000  Uiso   1.00
C448   C     0.50005   0.33499   0.74971   0.00000  Uiso   1.00
C449   C     0.47211   0.40571   0.71006   0.00000  Uiso   1.00
C450   C     0.49924   0.11680   0.75070   0.00000  Uiso   1.00
C451   C     0.49942   0.38322   0.74908   0.00000  Uiso   1.00
C452   C     0.52670   0.09427   0.71925   0.00000  Uiso   1.00
C453   C     0.52532   0.40682   0.78799   0.00000  Uiso   1.00
C454   C     0.52614   0.04823   0.71916   0.00000  Uiso   1.00
C455   C     0.52467   0.45284   0.78790   0.00000  Uiso   1.00
C456   C     0.49630   0.02425   0.74970   0.00000  Uiso   1.00
C457   C     0.49636   0.47567   0.74918   0.00000  Uiso   1.00
C458   C     0.52282   0.28454   0.55555   0.00000  Uiso   1.00
C459   C     0.46029   0.22997   0.94224   0.00000  Uiso   1.00
C460   C     0.52395   0.28385   0.60606   0.00000  Uiso   1.00
C461   C     0.46105   0.22891   0.89200   0.00000  Uiso   1.00
C462   C     0.47619   0.21620   0.60237   0.00000  Uiso   1.00
C463   C     0.53896   0.27105   0.89960   0.00000  Uiso   1.00
C464   C     0.47622   0.21518   0.55169   0.00000  Uiso   1.00
Cu465  Cu    0.50000   0.25000   0.79822   0.00000  Uiso   1.00
Cu466  Cu    0.50000   0.25001   0.70179   0.00000  Uiso   1.00
H467   H     0.65982   0.24982   0.69400   0.00000  Uiso   1.00
H468   H     0.56968   0.28770   0.88345   0.00000  Uiso   1.00
H469   H     0.45821   0.18704   0.53212   0.00000  Uiso   1.00
H470   H     0.57266   0.28709   0.97193   0.00000  Uiso   1.00
H471   H     0.43339   0.49409   0.80426   0.00000  Uiso   1.00
H472   H     0.43634   0.00341   0.67727   0.00000  Uiso   1.00
H473   H     0.56730   0.30649   0.66127   0.00000  Uiso   1.00
H474   H     0.43515   0.19159   0.83895   0.00000  Uiso   1.00
H475   H     0.34015   0.25040   0.80599   0.00000  Uiso   1.00
H476   H     0.44861   0.11073   0.80580   0.00000  Uiso   1.00
H477   H     0.45159   0.38737   0.68011   0.00000  Uiso   1.00
H478   H     0.54945   0.11251   0.69541   0.00000  Uiso   1.00
H479   H     0.54690   0.38948   0.81806   0.00000  Uiso   1.00
H480   H     0.54065   0.31248   0.53885   0.00000  Uiso   1.00
H481   H     0.42808   0.21425   0.95704   0.00000  Uiso   1.00
H482   H     0.45726   0.18951   0.62001   0.00000  Uiso   1.00
N483   N     0.50000   0.25001   0.62935   0.00000  Uiso   1.00
N484   N     0.50000   0.24999   0.87066   0.00000  Uiso   1.00
O485   O     0.50000   0.18573   0.79072   0.00000  Uiso   1.00
O486   O     0.43963   0.47150   0.67122   0.00000  Uiso   1.00
O487   O     0.54987   0.31842   0.63060   0.00000  Uiso   1.00
O488   O     0.42125   0.20597   0.86573   0.00000  Uiso   1.00
O489   O     0.50000   0.31428   0.70929   0.00000  Uiso   1.00
O490   O     0.50000   0.18573   0.70928   0.00000  Uiso   1.00
O491   O     0.50000   0.31427   0.79072   0.00000  Uiso   1.00
O492   O     0.42495   0.25000   0.78132   0.00000  Uiso   1.00
O493   O     0.57505   0.25001   0.71868   0.00000  Uiso   1.00
O494   O     0.42495   0.25000   0.69989   0.00000  Uiso   1.00
O495   O     0.57505   0.25000   0.80012   0.00000  Uiso   1.00
O496   O     0.43638   0.02612   0.81124   0.00000  Uiso   1.00
Br497  Br    0.90093   0.01948   0.67735   0.00000  Uiso   1.00
Br498  Br    0.89721   0.48319   0.84108   0.00000  Uiso   1.00
C499   C     0.83322   0.16502   0.75027   0.00000  Uiso   1.00
C500   C     0.87354   0.27112   0.95046   0.00000  Uiso   1.00
C501   C     0.83321   0.24979   0.52721   0.00000  Uiso   1.00
C502   C     0.83370   0.25026   0.97282   0.00000  Uiso   1.00
C503   C     0.73467   0.24996   0.73769   0.00000  Uiso   1.00
C504   C     0.93200   0.25010   0.76231   0.00000  Uiso   1.00
C505   C     0.67947   0.24998   0.73085   0.00000  Uiso   1.00
C506   C     0.98718   0.25018   0.76914   0.00000  Uiso   1.00
C507   C     0.80087   0.04709   0.78103   0.00000  Uiso   1.00
C508   C     0.80256   0.45172   0.70999   0.00000  Uiso   1.00
C509   C     0.80370   0.09321   0.78180   0.00000  Uiso   1.00
C510   C     0.83339   0.33499   0.74971   0.00000  Uiso   1.00
C511   C     0.80544   0.40571   0.71006   0.00000  Uiso   1.00
C512   C     0.83257   0.11680   0.75070   0.00000  Uiso   1.00
C513   C     0.83275   0.38322   0.74908   0.00000  Uiso   1.00
C514   C     0.86004   0.09427   0.71925   0.00000  Uiso   1.00
C515   C     0.85866   0.40682   0.78799   0.00000  Uiso   1.00
C516   C     0.85948   0.04823   0.71916   0.00000  Uiso   1.00
C517   C     0.85801   0.45284   0.78790   0.00000  Uiso   1.00
C518   C     0.82963   0.02425   0.74970   0.00000  Uiso   1.00
C519   C     0.82969   0.47567   0.74918   0.00000  Uiso   1.00
C520   C     0.85615   0.28454   0.55555   0.00000  Uiso   1.00
C521   C     0.79362   0.22997   0.94224   0.00000  Uiso   1.00
C522   C     0.85728   0.28385   0.60606   0.00000  Uiso   1.00
C523   C     0.79438   0.22891   0.89200   0.00000  Uiso   1.00
C524   C     0.80952   0.21620   0.60237   0.00000  Uiso   1.00
C525   C     0.87229   0.27105   0.89960   0.00000  Uiso   1.00
C526   C     0.80956   0.21518   0.55169   0.00000  Uiso   1.00
Cu527  Cu    0.83333   0.25000   0.79822   0.00000  Uiso   1.00
Cu528  Cu    0.83333   0.25001   0.70179   0.00000  Uiso   1.00
H529   H     0.99315   0.24982   0.69400   0.00000  Uiso   1.00
H530   H     0.90301   0.28770   0.88345   0.00000  Uiso   1.00
H531   H     0.79154   0.18704   0.53212   0.00000  Uiso   1.00
H532   H     0.90599   0.28709   0.97193   0.00000  Uiso   1.00
H533   H     0.76672   0.49409   0.80426   0.00000  Uiso   1.00
H534   H     0.76967   0.00341   0.67727   0.00000  Uiso   1.00
H535   H     0.90064   0.30649   0.66127   0.00000  Uiso   1.00
H536   H     0.76848   0.19159   0.83895   0.00000  Uiso   1.00
H537   H     0.67348   0.25040   0.80599   0.00000  Uiso   1.00
H538   H     0.78195   0.11073   0.80580   0.00000  Uiso   1.00
H539   H     0.78493   0.38737   0.68011   0.00000  Uiso   1.00
H540   H     0.88278   0.11251   0.69541   0.00000  Uiso   1.00
H541   H     0.88024   0.38948   0.81806   0.00000  Uiso   1.00
H542   H     0.87398   0.31248   0.53885   0.00000  Uiso   1.00
H543   H     0.76141   0.21425   0.95704   0.00000  Uiso   1.00
H544   H     0.79059   0.18951   0.62001   0.00000  Uiso   1.00
N545   N     0.83333   0.25001   0.62935   0.00000  Uiso   1.00
N546   N     0.83333   0.24999   0.87066   0.00000  Uiso   1.00
O547   O     0.83334   0.18573   0.79072   0.00000  Uiso   1.00
O548   O     0.77296   0.47150   0.67122   0.00000  Uiso   1.00
O549   O     0.88321   0.31842   0.63060   0.00000  Uiso   1.00
O550   O     0.75458   0.20597   0.86573   0.00000  Uiso   1.00
O551   O     0.83333   0.31428   0.70929   0.00000  Uiso   1.00
O552   O     0.83334   0.18573   0.70928   0.00000  Uiso   1.00
O553   O     0.83333   0.31427   0.79072   0.00000  Uiso   1.00
O554   O     0.75828   0.25000   0.78132   0.00000  Uiso   1.00
O555   O     0.90839   0.25001   0.71868   0.00000  Uiso   1.00
O556   O     0.75828   0.25000   0.69989   0.00000  Uiso   1.00
O557   O     0.90839   0.25000   0.80012   0.00000  Uiso   1.00
O558   O     0.76972   0.02612   0.81124   0.00000  Uiso   1.00
Br559  Br    0.23426   0.51948   0.67735   0.00000  Uiso   1.00
Br560  Br    0.23054   0.98319   0.84108   0.00000  Uiso   1.00
C561   C     0.16656   0.66502   0.75027   0.00000  Uiso   1.00
C562   C     0.20688   0.77112   0.95046   0.00000  Uiso   1.00
C563   C     0.16654   0.74979   0.52721   0.00000  Uiso   1.00
C564   C     0.16703   0.75026   0.97282   0.00000  Uiso   1.00
C565   C     0.06800   0.74996   0.73769   0.00000  Uiso   1.00
C566   C     0.26533   0.75010   0.76231   0.00000  Uiso   1.00
C567   C     0.01281   0.74998   0.73085   0.00000  Uiso   1.00
C568   C     0.32052   0.75018   0.76914   0.00000  Uiso   1.00
C569   C     0.13420   0.54709   0.78103   0.00000  Uiso   1.00
C570   C     0.13590   0.95172   0.70999   0.00000  Uiso   1.00
C571   C     0.13703   0.59321   0.78180   0.00000  Uiso   1.00
C572   C     0.16672   0.83499   0.74971   0.00000  Uiso   1.00
C573   C     0.13878   0.90571   0.71006   0.00000  Uiso   1.00
C574   C     0.16590   0.61680   0.75070   0.00000  Uiso   1.00
C575   C     0.16609   0.88322   0.74908   0.00000  Uiso   1.00
C576   C     0.19337   0.59427   0.71925   0.00000  Uiso   1.00
C577   C     0.19199   0.90682   0.78799   0.00000  Uiso   1.00
C578   C     0.19281   0.54823   0.71916   0.00000  Uiso   1.00
C579   C     0.19134   0.95284   0.78790   0.00000  Uiso   1.00
C580   C     0.16296   0.52425   0.74970   0.00000  Uiso   1.00
C581   C     0.16302   0.97567   0.74918   0.00000  Uiso   1.00
C582   C     0.18948   0.78454   0.55555   0.00000  Uiso   1.00
C583   C     0.12695   0.72997   0.94224   0.00000  Uiso   1.00
C584   C     0.19061   0.78385   0.60606   0.00000  Uiso   1.00
C585   C     0.12772   0.72891   0.89200   0.00000  Uiso   1.00
C586   C     0.14286   0.71620   0.60237   0.00000  Uiso   1.00
C587   C     0.20563   0.77105   0.89960   0.00000  Uiso   1.00
C588   C     0.14289   0.71518   0.55169   0.00000  Uiso   1.00
Cu589  Cu    0.16667   0.75000   0.79822   0.00000  Uiso   1.00
Cu590  Cu    0.16667   0.75001   0.70179   0.00000  Uiso   1.00
H591   H     0.32649   0.74982   0.69400   0.00000  Uiso   1.00
H592   H     0.23634   0.78770   0.88345   0.00000  Uiso   1.00
H593   H     0.12487   0.68704   0.53212   0.00000  Uiso   1.00
H594   H     0.23933   0.78709   0.97193   0.00000  Uiso   1.00
H595   H     0.10006   0.99409   0.80426   0.00000  Uiso   1.00
H596   H     0.10300   0.50341   0.67727   0.00000  Uiso   1.00
H597   H     0.23397   0.80649   0.66127   0.00000  Uiso   1.00
H598   H     0.10181   0.69159   0.83895   0.00000  Uiso   1.00
H599   H     0.00681   0.75040   0.80599   0.00000  Uiso   1.00
H600   H     0.11528   0.61073   0.80580   0.00000  Uiso   1.00
H601   H     0.11826   0.88737   0.68011   0.00000  Uiso   1.00
H602   H     0.21611   0.61251   0.69541   0.00000  Uiso   1.00
H603   H     0.21357   0.88948   0.81806   0.00000  Uiso   1.00
H604   H     0.20731   0.81248   0.53885   0.00000  Uiso   1.00
H605   H     0.09474   0.71425   0.95704   0.00000  Uiso   1.00
H606   H     0.12393   0.68951   0.62001   0.00000  Uiso   1.00
N607   N     0.16667   0.75001   0.62935   0.00000  Uiso   1.00
N608   N     0.16667   0.74999   0.87066   0.00000  Uiso   1.00
O609   O     0.16667   0.68573   0.79072   0.00000  Uiso   1.00
O610   O     0.10630   0.97150   0.67122   0.00000  Uiso   1.00
O611   O     0.21654   0.81842   0.63060   0.00000  Uiso   1.00
O612   O     0.08791   0.70597   0.86573   0.00000  Uiso   1.00
O613   O     0.16666   0.81428   0.70929   0.00000  Uiso   1.00
O614   O     0.16667   0.68573   0.70928   0.00000  Uiso   1.00
O615   O     0.16666   0.81427   0.79072   0.00000  Uiso   1.00
O616   O     0.09161   0.75000   0.78132   0.00000  Uiso   1.00
O617   O     0.24172   0.75001   0.71868   0.00000  Uiso   1.00
O618   O     0.09161   0.75000   0.69989   0.00000  Uiso   1.00
O619   O     0.24172   0.75000   0.80012   0.00000  Uiso   1.00
O620   O     0.10305   0.52612   0.81124   0.00000  Uiso   1.00
Br621  Br    0.56759   0.51948   0.67735   0.00000  Uiso   1.00
Br622  Br    0.56388   0.98319   0.84108   0.00000  Uiso   1.00
C623   C     0.49989   0.66502   0.75027   0.00000  Uiso   1.00
C624   C     0.54021   0.77112   0.95046   0.00000  Uiso   1.00
C625   C     0.49988   0.74979   0.52721   0.00000  Uiso   1.00
C626   C     0.50036   0.75026   0.97282   0.00000  Uiso   1.00
C627   C     0.40133   0.74996   0.73769   0.00000  Uiso   1.00
C628   C     0.59867   0.75010   0.76231   0.00000  Uiso   1.00
C629   C     0.34614   0.74998   0.73085   0.00000  Uiso   1.00
C630   C     0.65385   0.75018   0.76914   0.00000  Uiso   1.00
C631   C     0.46753   0.54709   0.78103   0.00000  Uiso   1.00
C632   C     0.46923   0.95172   0.70999   0.00000  Uiso   1.00
C633   C     0.47036   0.59321   0.78180   0.00000  Uiso   1.00
C634   C     0.50005   0.83499   0.74971   0.00000  Uiso   1.00
C635   C     0.47211   0.90571   0.71006   0.00000  Uiso   1.00
C636   C     0.49924   0.61680   0.75070   0.00000  Uiso   1.00
C637   C     0.49942   0.88322   0.74908   0.00000  Uiso   1.00
C638   C     0.52670   0.59427   0.71925   0.00000  Uiso   1.00
C639   C     0.52532   0.90682   0.78799   0.00000  Uiso   1.00
C640   C     0.52614   0.54823   0.71916   0.00000  Uiso   1.00
C641   C     0.52467   0.95284   0.78790   0.00000  Uiso   1.00
C642   C     0.49630   0.52425   0.74970   0.00000  Uiso   1.00
C643   C     0.49636   0.97567   0.74918   0.00000  Uiso   1.00
C644   C     0.52282   0.78454   0.55555   0.00000  Uiso   1.00
C645   C     0.46029   0.72997   0.94224   0.00000  Uiso   1.00
C646   C     0.52395   0.78385   0.60606   0.00000  Uiso   1.00
C647   C     0.46105   0.72891   0.89200   0.00000  Uiso   1.00
C648   C     0.47619   0.71620   0.60237   0.00000  Uiso   1.00
C649   C     0.53896   0.77105   0.89960   0.00000  Uiso   1.00
C650   C     0.47622   0.71518   0.55169   0.00000  Uiso   1.00
Cu651  Cu    0.50000   0.75000   0.79822   0.00000  Uiso   1.00
Cu652  Cu    0.50000   0.75001   0.70179   0.00000  Uiso   1.00
H653   H     0.65982   0.74982   0.69400   0.00000  Uiso   1.00
H654   H     0.56968   0.78770   0.88345   0.00000  Uiso   1.00
H655   H     0.45821   0.68704   0.53212   0.00000  Uiso   1.00
H656   H     0.57266   0.78709   0.97193   0.00000  Uiso   1.00
H657   H     0.43339   0.99409   0.80426   0.00000  Uiso   1.00
H658   H     0.43634   0.50341   0.67727   0.00000  Uiso   1.00
H659   H     0.56730   0.80649   0.66127   0.00000  Uiso   1.00
H660   H     0.43515   0.69159   0.83895   0.00000  Uiso   1.00
H661   H     0.34015   0.75040   0.80599   0.00000  Uiso   1.00
H662   H     0.44861   0.61073   0.80580   0.00000  Uiso   1.00
H663   H     0.45159   0.88737   0.68011   0.00000  Uiso   1.00
H664   H     0.54945   0.61251   0.69541   0.00000  Uiso   1.00
H665   H     0.54690   0.88948   0.81806   0.00000  Uiso   1.00
H666   H     0.54065   0.81248   0.53885   0.00000  Uiso   1.00
H667   H     0.42808   0.71425   0.95704   0.00000  Uiso   1.00
H668   H     0.45726   0.68951   0.62001   0.00000  Uiso   1.00
N669   N     0.50000   0.75001   0.62935   0.00000  Uiso   1.00
N670   N     0.50000   0.74999   0.87066   0.00000  Uiso   1.00
O671   O     0.50000   0.68573   0.79072   0.00000  Uiso   1.00
O672   O     0.43963   0.97150   0.67122   0.00000  Uiso   1.00
O673   O     0.54987   0.81842   0.63060   0.00000  Uiso   1.00
O674   O     0.42125   0.70597   0.86573   0.00000  Uiso   1.00
O675   O     0.50000   0.81428   0.70929   0.00000  Uiso   1.00
O676   O     0.50000   0.68573   0.70928   0.00000  Uiso   1.00
O677   O     0.50000   0.81427   0.79072   0.00000  Uiso   1.00
O678   O     0.42495   0.75000   0.78132   0.00000  Uiso   1.00
O679   O     0.57505   0.75001   0.71868   0.00000  Uiso   1.00
O680   O     0.42495   0.75000   0.69989   0.00000  Uiso   1.00
O681   O     0.57505   0.75000   0.80012   0.00000  Uiso   1.00
O682   O     0.43638   0.52612   0.81124   0.00000  Uiso   1.00
Br683  Br    0.90093   0.51948   0.67735   0.00000  Uiso   1.00
Br684  Br    0.89721   0.98319   0.84108   0.00000  Uiso   1.00
C685   C     0.83322   0.66502   0.75027   0.00000  Uiso   1.00
C686   C     0.87354   0.77112   0.95046   0.00000  Uiso   1.00
C687   C     0.83321   0.74979   0.52721   0.00000  Uiso   1.00
C688   C     0.83370   0.75026   0.97282   0.00000  Uiso   1.00
C689   C     0.73467   0.74996   0.73769   0.00000  Uiso   1.00
C690   C     0.93200   0.75010   0.76231   0.00000  Uiso   1.00
C691   C     0.67947   0.74998   0.73085   0.00000  Uiso   1.00
C692   C     0.98718   0.75018   0.76914   0.00000  Uiso   1.00
C693   C     0.80087   0.54709   0.78103   0.00000  Uiso   1.00
C694   C     0.80256   0.95172   0.70999   0.00000  Uiso   1.00
C695   C     0.80370   0.59321   0.78180   0.00000  Uiso   1.00
C696   C     0.83339   0.83499   0.74971   0.00000  Uiso   1.00
C697   C     0.80544   0.90571   0.71006   0.00000  Uiso   1.00
C698   C     0.83257   0.61680   0.75070   0.00000  Uiso   1.00
C699   C     0.83275   0.88322   0.74908   0.00000  Uiso   1.00
C700   C     0.86004   0.59427   0.71925   0.00000  Uiso   1.00
C701   C     0.85866   0.90682   0.78799   0.00000  Uiso   1.00
C702   C     0.85948   0.54823   0.71916   0.00000  Uiso   1.00
C703   C     0.85801   0.95284   0.78790   0.00000  Uiso   1.00
C704   C     0.82963   0.52425   0.74970   0.00000  Uiso   1.00
C705   C     0.82969   0.97567   0.74918   0.00000  Uiso   1.00
C706   C     0.85615   0.78454   0.55555   0.00000  Uiso   1.00
C707   C     0.79362   0.72997   0.94224   0.00000  Uiso   1.00
C708   C     0.85728   0.78385   0.60606   0.00000  Uiso   1.00
C709   C     0.79438   0.72891   0.89200   0.00000  Uiso   1.00
C710   C     0.80952   0.71620   0.60237   0.00000  Uiso   1.00
C711   C     0.87229   0.77105   0.89960   0.00000  Uiso   1.00
C712   C     0.80956   0.71518   0.55169   0.00000  Uiso   1.00
Cu713  Cu    0.83333   0.75000   0.79822   0.00000  Uiso   1.00
Cu714  Cu    0.83333   0.75001   0.70179   0.00000  Uiso   1.00
H715   H     0.99315   0.74982   0.69400   0.00000  Uiso   1.00
H716   H     0.90301   0.78770   0.88345   0.00000  Uiso   1.00
H717   H     0.79154   0.68704   0.53212   0.00000  Uiso   1.00
H718   H     0.90599   0.78709   0.97193   0.00000  Uiso   1.00
H719   H     0.76672   0.99409   0.80426   0.00000  Uiso   1.00
H720   H     0.76967   0.50341   0.67727   0.00000  Uiso   1.00
H721   H     0.90064   0.80649   0.66127   0.00000  Uiso   1.00
H722   H     0.76848   0.69159   0.83895   0.00000  Uiso   1.00
H723   H     0.67348   0.75040   0.80599   0.00000  Uiso   1.00
H724   H     0.78195   0.61073   0.80580   0.00000  Uiso   1.00
H725   H     0.78493   0.88737   0.68011   0.00000  Uiso   1.00
H726   H     0.88278   0.61251   0.69541   0.00000  Uiso   1.00
H727   H     0.88024   0.88948   0.81806   0.00000  Uiso   1.00
H728   H     0.87398   0.81248   0.53885   0.00000  Uiso   1.00
H729   H     0.76141   0.71425   0.95704   0.00000  Uiso   1.00
H730   H     0.79059   0.68951   0.62001   0.00000  Uiso   1.00
N731   N     0.83333   0.75001   0.62935   0.00000  Uiso   1.00
N732   N     0.83333   0.74999   0.87066   0.00000  Uiso   1.00
O733   O     0.83334   0.68573   0.79072   0.00000  Uiso   1.00
O734   O     0.77296   0.97150   0.67122   0.00000  Uiso   1.00
O735   O     0.88321   0.81842   0.63060   0.00000  Uiso   1.00
O736   O     0.75458   0.70597   0.86573   0.00000  Uiso   1.00
O737   O     0.83333   0.81428   0.70929   0.00000  Uiso   1.00
O738   O     0.83334   0.68573   0.70928   0.00000  Uiso   1.00
O739   O     0.83333   0.81427   0.79072   0.00000  Uiso   1.00
O740   O     0.75828   0.75000   0.78132   0.00000  Uiso   1.00
O741   O     0.90839   0.75001   0.71868   0.00000  Uiso   1.00
O742   O     0.75828   0.75000   0.69989   0.00000  Uiso   1.00
O743   O     0.90839   0.75000   0.80012   0.00000  Uiso   1.00
O744   O     0.76972   0.52612   0.81124   0.00000  Uiso   1.00
loop_
_geom_bond_atom_site_label_1
_geom_bond_atom_site_label_2
_geom_bond_distance
_geom_bond_site_symmetry_2
_ccdc_geom_bond_type
Br1    C20     1.921   .     S
Br2    C21     1.921   .     S
C3     O56     1.294   .     A
C3     O51     1.296   .     A
C3     C16     1.456   .     S
C4     C29     1.413   .     A
C4     C6      1.414   .     A
C4     H36     1.082   .     S
C5     C24     1.399   .     A
C5     C30     1.413   .     A
C5     C378    1.517   1_554 S
C6     C25     1.399   .     A
C6     C377    1.517   .     S
C7     O58     1.291   .     A
C7     C9      1.433   .     S
C7     O60     1.288   .     A
C8     O61     1.288   .     A
C8     O59     1.291   .     A
C8     C10     1.433   .     S
C9     C134    1.332   1_455 S
C9     H157    1.087   1_455 S
C10    C71     1.332   .     S
C10    H103    1.087   .     S
C11    C22     1.420   .     A
C11    O62     1.382   .     S
C11    C13     1.393   .     A
C12    C15     1.393   .     A
C12    C23     1.420   .     A
C12    O52     1.382   .     S
C13    H42     1.084   .     S
C13    C16     1.398   .     A
C14    C17     1.456   .     S
C14    O55     1.296   .     A
C14    O57     1.295   .     A
C15    H43     1.084   .     S
C15    C17     1.398   .     A
C16    C18     1.397   .     A
C17    C19     1.397   .     A
C18    H44     1.084   .     S
C18    C20     1.390   .     A
C19    H45     1.084   .     S
C19    C21     1.390   .     A
C20    C22     1.409   .     A
C21    C23     1.409   .     A
C22    C209    1.467   1_545 S
C23    C208    1.467   .     S
C24    H46     1.082   .     S
C24    C26     1.404   .     A
C25    C27     1.403   .     A
C25    H47     1.082   .     S
C26    O53     1.373   .     S
C26    N49     1.383   .     A
C27    O54     1.373   .     S
C27    N50     1.383   .     A
C28    C30     1.413   .     A
C28    H48     1.081   .     S
C28    N49     1.366   .     A
C29    N50     1.366   .     A
C29    H34     1.081   .     S
C30    H35     1.082   .     S
Cu31   O57     1.949   .     S
Cu31   O58     1.961   .     S
Cu31   N50     2.018   .     S
Cu31   O51     1.955   .     S
Cu31   O61     1.959   .     S
Cu31   Cu32    2.687   .     S
Cu32   N49     2.018   .     S
Cu32   O60     1.959   .     S
Cu32   O55     1.955   .     S
Cu32   O59     1.961   .     S
Cu32   O56     1.949   .     S
H33    C71     1.087   .     S
H37    O248    0.988   .     S
H38    O238    0.988   1_545 S
H39    O53     0.983   .     S
H40    O54     0.982   .     S
H41    C134    1.087   1_455 S
O52    H224    0.988   .     S
O62    H223    0.988   1_545 S
Br63   C82     1.921   .     S
Br64   C83     1.921   .     S
C65    O118    1.294   .     A
C65    O113    1.296   .     A
C65    C78     1.456   .     S
C66    C91     1.413   .     A
C66    C68     1.414   .     A
C66    H98     1.082   .     S
C67    C86     1.399   .     A
C67    C92     1.413   .     A
C67    C440    1.517   1_554 S
C68    C87     1.399   .     A
C68    C439    1.517   .     S
C69    O120    1.291   .     A
C69    C71     1.433   .     S
C69    O122    1.288   .     A
C70    O123    1.288   .     A
C70    O121    1.291   .     A
C70    C72     1.433   .     S
C72    C133    1.332   .     S
C72    H165    1.087   .     S
C73    C84     1.420   .     A
C73    O124    1.382   .     S
C73    C75     1.393   .     A
C74    C77     1.393   .     A
C74    C85     1.420   .     A
C74    O114    1.382   .     S
C75    H104    1.084   .     S
C75    C78     1.398   .     A
C76    C79     1.456   .     S
C76    O117    1.296   .     A
C76    O119    1.295   .     A
C77    H105    1.084   .     S
C77    C79     1.398   .     A
C78    C80     1.397   .     A
C79    C81     1.397   .     A
C80    H106    1.084   .     S
C80    C82     1.390   .     A
C81    H107    1.084   .     S
C81    C83     1.390   .     A
C82    C84     1.409   .     A
C83    C85     1.409   .     A
C84    C271    1.467   1_545 S
C85    C270    1.467   .     S
C86    H108    1.082   .     S
C86    C88     1.404   .     A
C87    C89     1.403   .     A
C87    H109    1.082   .     S
C88    O115    1.373   .     S
C88    N111    1.383   .     A
C89    O116    1.373   .     S
C89    N112    1.383   .     A
C90    C92     1.413   .     A
C90    H110    1.081   .     S
C90    N111    1.366   .     A
C91    N112    1.366   .     A
C91    H96     1.081   .     S
C92    H97     1.082   .     S
Cu93   O119    1.949   .     S
Cu93   O120    1.961   .     S
Cu93   N112    2.018   .     S
Cu93   O113    1.955   .     S
Cu93   O123    1.959   .     S
Cu93   Cu94    2.687   .     S
Cu94   N111    2.018   .     S
Cu94   O122    1.959   .     S
Cu94   O117    1.955   .     S
Cu94   O121    1.961   .     S
Cu94   O118    1.949   .     S
H95    C133    1.087   .     S
H99    O310    0.988   .     S
H100   O300    0.988   1_545 S
H101   O115    0.983   .     S
H102   O116    0.982   .     S
O114   H286    0.988   .     S
O124   H285    0.988   1_545 S
Br125  C144    1.921   .     S
Br126  C145    1.921   .     S
C127   O180    1.294   .     A
C127   O175    1.296   .     A
C127   C140    1.456   .     S
C128   C153    1.413   .     A
C128   C130    1.414   .     A
C128   H160    1.082   .     S
C129   C148    1.399   .     A
C129   C154    1.413   .     A
C129   C502    1.517   1_554 S
C130   C149    1.399   .     A
C130   C501    1.517   .     S
C131   O182    1.291   .     A
C131   C133    1.433   .     S
C131   O184    1.288   .     A
C132   O185    1.288   .     A
C132   O183    1.291   .     A
C132   C134    1.433   .     S
C134   C9      1.332   1_655 S
C134   H41     1.087   1_655 S
C135   C146    1.420   .     A
C135   O186    1.382   .     S
C135   C137    1.393   .     A
C136   C139    1.393   .     A
C136   C147    1.420   .     A
C136   O176    1.382   .     S
C137   H166    1.084   .     S
C137   C140    1.398   .     A
C138   C141    1.456   .     S
C138   O179    1.296   .     A
C138   O181    1.295   .     A
C139   H167    1.084   .     S
C139   C141    1.398   .     A
C140   C142    1.397   .     A
C141   C143    1.397   .     A
C142   H168    1.084   .     S
C142   C144    1.390   .     A
C143   H169    1.084   .     S
C143   C145    1.390   .     A
C144   C146    1.409   .     A
C145   C147    1.409   .     A
C146   C333    1.467   1_545 S
C147   C332    1.467   .     S
C148   H170    1.082   .     S
C148   C150    1.404   .     A
C149   C151    1.403   .     A
C149   H171    1.082   .     S
C150   O177    1.373   .     S
C150   N173    1.383   .     A
C151   O178    1.373   .     S
C151   N174    1.383   .     A
C152   C154    1.413   .     A
C152   H172    1.081   .     S
C152   N173    1.366   .     A
C153   N174    1.366   .     A
C153   H158    1.081   .     S
C154   H159    1.082   .     S
Cu155  O181    1.949   .     S
Cu155  O182    1.961   .     S
Cu155  N174    2.018   .     S
Cu155  O175    1.955   .     S
Cu155  O185    1.959   .     S
Cu155  Cu156   2.687   .     S
Cu156  N173    2.018   .     S
Cu156  O184    1.959   .     S
Cu156  O179    1.955   .     S
Cu156  O183    1.961   .     S
Cu156  O180    1.949   .     S
H157   C9      1.087   1_655 S
H161   O372    0.988   .     S
H162   O362    0.988   1_545 S
H163   O177    0.983   .     S
H164   O178    0.982   .     S
O176   H348    0.988   .     S
O186   H347    0.988   1_545 S
Br187  C206    1.921   .     S
Br188  C207    1.921   .     S
C189   O242    1.294   .     A
C189   O237    1.296   .     A
C189   C202    1.456   .     S
C190   C215    1.413   .     A
C190   C192    1.414   .     A
C190   H222    1.082   .     S
C191   C210    1.399   .     A
C191   C216    1.413   .     A
C191   C564    1.517   1_554 S
C192   C211    1.399   .     A
C192   C563    1.517   .     S
C193   O244    1.291   .     A
C193   C195    1.433   .     S
C193   O246    1.288   .     A
C194   O247    1.288   .     A
C194   O245    1.291   .     A
C194   C196    1.433   .     S
C195   C320    1.332   1_455 S
C195   H343    1.087   1_455 S
C196   C257    1.332   .     S
C196   H289    1.087   .     S
C197   C208    1.420   .     A
C197   O248    1.382   .     S
C197   C199    1.393   .     A
C198   C201    1.393   .     A
C198   C209    1.420   .     A
C198   O238    1.382   .     S
C199   H228    1.084   .     S
C199   C202    1.398   .     A
C200   C203    1.456   .     S
C200   O241    1.296   .     A
C200   O243    1.295   .     A
C201   H229    1.084   .     S
C201   C203    1.398   .     A
C202   C204    1.397   .     A
C203   C205    1.397   .     A
C204   H230    1.084   .     S
C204   C206    1.390   .     A
C205   H231    1.084   .     S
C205   C207    1.390   .     A
C206   C208    1.409   .     A
C207   C209    1.409   .     A
C209   C22     1.467   1_565 S
C210   H232    1.082   .     S
C210   C212    1.404   .     A
C211   C213    1.403   .     A
C211   H233    1.082   .     S
C212   O239    1.373   .     S
C212   N235    1.383   .     A
C213   O240    1.373   .     S
C213   N236    1.383   .     A
C214   C216    1.413   .     A
C214   H234    1.081   .     S
C214   N235    1.366   .     A
C215   N236    1.366   .     A
C215   H220    1.081   .     S
C216   H221    1.082   .     S
Cu217  O243    1.949   .     S
Cu217  O244    1.961   .     S
Cu217  N236    2.018   .     S
Cu217  O237    1.955   .     S
Cu217  O247    1.959   .     S
Cu217  Cu218   2.687   .     S
Cu218  N235    2.018   .     S
Cu218  O246    1.959   .     S
Cu218  O241    1.955   .     S
Cu218  O245    1.961   .     S
Cu218  O242    1.949   .     S
H219   C257    1.087   .     S
H223   O62     0.988   1_565 S
H225   O239    0.983   .     S
H226   O240    0.982   .     S
H227   C320    1.087   1_455 S
O238   H38     0.988   1_565 S
Br249  C268    1.921   .     S
Br250  C269    1.921   .     S
C251   O304    1.294   .     A
C251   O299    1.296   .     A
C251   C264    1.456   .     S
C252   C277    1.413   .     A
C252   C254    1.414   .     A
C252   H284    1.082   .     S
C253   C272    1.399   .     A
C253   C278    1.413   .     A
C253   C626    1.517   1_554 S
C254   C273    1.399   .     A
C254   C625    1.517   .     S
C255   O306    1.291   .     A
C255   C257    1.433   .     S
C255   O308    1.288   .     A
C256   O309    1.288   .     A
C256   O307    1.291   .     A
C256   C258    1.433   .     S
C258   C319    1.332   .     S
C258   H351    1.087   .     S
C259   C270    1.420   .     A
C259   O310    1.382   .     S
C259   C261    1.393   .     A
C260   C263    1.393   .     A
C260   C271    1.420   .     A
C260   O300    1.382   .     S
C261   H290    1.084   .     S
C261   C264    1.398   .     A
C262   C265    1.456   .     S
C262   O303    1.296   .     A
C262   O305    1.295   .     A
C263   H291    1.084   .     S
C263   C265    1.398   .     A
C264   C266    1.397   .     A
C265   C267    1.397   .     A
C266   H292    1.084   .     S
C266   C268    1.390   .     A
C267   H293    1.084   .     S
C267   C269    1.390   .     A
C268   C270    1.409   .     A
C269   C271    1.409   .     A
C271   C84     1.467   1_565 S
C272   H294    1.082   .     S
C272   C274    1.404   .     A
C273   C275    1.403   .     A
C273   H295    1.082   .     S
C274   O301    1.373   .     S
C274   N297    1.383   .     A
C275   O302    1.373   .     S
C275   N298    1.383   .     A
C276   C278    1.413   .     A
C276   H296    1.081   .     S
C276   N297    1.366   .     A
C277   N298    1.366   .     A
C277   H282    1.081   .     S
C278   H283    1.082   .     S
Cu279  O305    1.949   .     S
Cu279  O306    1.961   .     S
Cu279  N298    2.018   .     S
Cu279  O299    1.955   .     S
Cu279  O309    1.959   .     S
Cu279  Cu280   2.687   .     S
Cu280  N297    2.018   .     S
Cu280  O308    1.959   .     S
Cu280  O303    1.955   .     S
Cu280  O307    1.961   .     S
Cu280  O304    1.949   .     S
H281   C319    1.087   .     S
H285   O124    0.988   1_565 S
H287   O301    0.983   .     S
H288   O302    0.982   .     S
O300   H100    0.988   1_565 S
Br311  C330    1.921   .     S
Br312  C331    1.921   .     S
C313   O366    1.294   .     A
C313   O361    1.296   .     A
C313   C326    1.456   .     S
C314   C339    1.413   .     A
C314   C316    1.414   .     A
C314   H346    1.082   .     S
C315   C334    1.399   .     A
C315   C340    1.413   .     A
C315   C688    1.517   1_554 S
C316   C335    1.399   .     A
C316   C687    1.517   .     S
C317   O368    1.291   .     A
C317   C319    1.433   .     S
C317   O370    1.288   .     A
C318   O371    1.288   .     A
C318   O369    1.291   .     A
C318   C320    1.433   .     S
C320   C195    1.332   1_655 S
C320   H227    1.087   1_655 S
C321   C332    1.420   .     A
C321   O372    1.382   .     S
C321   C323    1.393   .     A
C322   C325    1.393   .     A
C322   C333    1.420   .     A
C322   O362    1.382   .     S
C323   H352    1.084   .     S
C323   C326    1.398   .     A
C324   C327    1.456   .     S
C324   O365    1.296   .     A
C324   O367    1.295   .     A
C325   H353    1.084   .     S
C325   C327    1.398   .     A
C326   C328    1.397   .     A
C327   C329    1.397   .     A
C328   H354    1.084   .     S
C328   C330    1.390   .     A
C329   H355    1.084   .     S
C329   C331    1.390   .     A
C330   C332    1.409   .     A
C331   C333    1.409   .     A
C333   C146    1.467   1_565 S
C334   H356    1.082   .     S
C334   C336    1.404   .     A
C335   C337    1.403   .     A
C335   H357    1.082   .     S
C336   O363    1.373   .     S
C336   N359    1.383   .     A
C337   O364    1.373   .     S
C337   N360    1.383   .     A
C338   C340    1.413   .     A
C338   H358    1.081   .     S
C338   N359    1.366   .     A
C339   N360    1.366   .     A
C339   H344    1.081   .     S
C340   H345    1.082   .     S
Cu341  O367    1.949   .     S
Cu341  O368    1.961   .     S
Cu341  N360    2.018   .     S
Cu341  O361    1.955   .     S
Cu341  O371    1.959   .     S
Cu341  Cu342   2.687   .     S
Cu342  N359    2.018   .     S
Cu342  O370    1.959   .     S
Cu342  O365    1.955   .     S
Cu342  O369    1.961   .     S
Cu342  O366    1.949   .     S
H343   C195    1.087   1_655 S
H347   O186    0.988   1_565 S
H349   O363    0.983   .     S
H350   O364    0.982   .     S
O362   H162    0.988   1_565 S
Br373  C392    1.921   .     S
Br374  C393    1.921   .     S
C375   O428    1.294   .     A
C375   O423    1.296   .     A
C375   C388    1.456   .     S
C376   C401    1.413   .     A
C376   C378    1.414   .     A
C376   H408    1.082   .     S
C377   C396    1.399   .     A
C377   C402    1.413   .     A
C378   C397    1.399   .     A
C378   C5      1.517   1_556 S
C379   O430    1.291   .     A
C379   C381    1.433   .     S
C379   O432    1.288   .     A
C380   O433    1.288   .     A
C380   O431    1.291   .     A
C380   C382    1.433   .     S
C381   C506    1.332   1_455 S
C381   H529    1.087   1_455 S
C382   C443    1.332   .     S
C382   H475    1.087   .     S
C383   C394    1.420   .     A
C383   O434    1.382   .     S
C383   C385    1.393   .     A
C384   C387    1.393   .     A
C384   C395    1.420   .     A
C384   O424    1.382   .     S
C385   H414    1.084   .     S
C385   C388    1.398   .     A
C386   C389    1.456   .     S
C386   O427    1.296   .     A
C386   O429    1.295   .     A
C387   H415    1.084   .     S
C387   C389    1.398   .     A
C388   C390    1.397   .     A
C389   C391    1.397   .     A
C390   H416    1.084   .     S
C390   C392    1.390   .     A
C391   H417    1.084   .     S
C391   C393    1.390   .     A
C392   C394    1.409   .     A
C393   C395    1.409   .     A
C394   C581    1.467   1_545 S
C395   C580    1.467   .     S
C396   H418    1.082   .     S
C396   C398    1.404   .     A
C397   C399    1.403   .     A
C397   H419    1.082   .     S
C398   O425    1.373   .     S
C398   N421    1.383   .     A
C399   O426    1.373   .     S
C399   N422    1.383   .     A
C400   C402    1.413   .     A
C400   H420    1.081   .     S
C400   N421    1.366   .     A
C401   N422    1.366   .     A
C401   H406    1.081   .     S
C402   H407    1.082   .     S
Cu403  O429    1.949   .     S
Cu403  O430    1.961   .     S
Cu403  N422    2.018   .     S
Cu403  O423    1.955   .     S
Cu403  O433    1.959   .     S
Cu403  Cu404   2.687   .     S
Cu404  N421    2.018   .     S
Cu404  O432    1.959   .     S
Cu404  O427    1.955   .     S
Cu404  O431    1.961   .     S
Cu404  O428    1.949   .     S
H405   C443    1.087   .     S
H409   O620    0.988   .     S
H410   O610    0.988   1_545 S
H411   O425    0.983   .     S
H412   O426    0.982   .     S
H413   C506    1.087   1_455 S
O424   H596    0.988   .     S
O434   H595    0.988   1_545 S
Br435  C454    1.921   .     S
Br436  C455    1.921   .     S
C437   O490    1.294   .     A
C437   O485    1.296   .     A
C437   C450    1.456   .     S
C438   C463    1.413   .     A
C438   C440    1.414   .     A
C438   H470    1.082   .     S
C439   C458    1.399   .     A
C439   C464    1.413   .     A
C440   C459    1.399   .     A
C440   C67     1.517   1_556 S
C441   O492    1.291   .     A
C441   C443    1.433   .     S
C441   O494    1.288   .     A
C442   O495    1.288   .     A
C442   O493    1.291   .     A
C442   C444    1.433   .     S
C444   C505    1.332   .     S
C444   H537    1.087   .     S
C445   C456    1.420   .     A
C445   O496    1.382   .     S
C445   C447    1.393   .     A
C446   C449    1.393   .     A
C446   C457    1.420   .     A
C446   O486    1.382   .     S
C447   H476    1.084   .     S
C447   C450    1.398   .     A
C448   C451    1.456   .     S
C448   O489    1.296   .     A
C448   O491    1.295   .     A
C449   H477    1.084   .     S
C449   C451    1.398   .     A
C450   C452    1.397   .     A
C451   C453    1.397   .     A
C452   H478    1.084   .     S
C452   C454    1.390   .     A
C453   H479    1.084   .     S
C453   C455    1.390   .     A
C454   C456    1.409   .     A
C455   C457    1.409   .     A
C456   C643    1.467   1_545 S
C457   C642    1.467   .     S
C458   H480    1.082   .     S
C458   C460    1.404   .     A
C459   C461    1.403   .     A
C459   H481    1.082   .     S
C460   O487    1.373   .     S
C460   N483    1.383   .     A
C461   O488    1.373   .     S
C461   N484    1.383   .     A
C462   C464    1.413   .     A
C462   H482    1.081   .     S
C462   N483    1.366   .     A
C463   N484    1.366   .     A
C463   H468    1.081   .     S
C464   H469    1.082   .     S
Cu465  O491    1.949   .     S
Cu465  O492    1.961   .     S
Cu465  N484    2.018   .     S
Cu465  O485    1.955   .     S
Cu465  O495    1.959   .     S
Cu465  Cu466   2.687   .     S
Cu466  N483    2.018   .     S
Cu466  O494    1.959   .     S
Cu466  O489    1.955   .     S
Cu466  O493    1.961   .     S
Cu466  O490    1.949   .     S
H467   C505    1.087   .     S
H471   O682    0.988   .     S
H472   O672    0.988   1_545 S
H473   O487    0.983   .     S
H474   O488    0.982   .     S
O486   H658    0.988   .     S
O496   H657    0.988   1_545 S
Br497  C516    1.921   .     S
Br498  C517    1.921   .     S
C499   O552    1.294   .     A
C499   O547    1.296   .     A
C499   C512    1.456   .     S
C500   C525    1.413   .     A
C500   C502    1.414   .     A
C500   H532    1.082   .     S
C501   C520    1.399   .     A
C501   C526    1.413   .     A
C502   C521    1.399   .     A
C502   C129    1.517   1_556 S
C503   O554    1.291   .     A
C503   C505    1.433   .     S
C503   O556    1.288   .     A
C504   O557    1.288   .     A
C504   O555    1.291   .     A
C504   C506    1.433   .     S
C506   C381    1.332   1_655 S
C506   H413    1.087   1_655 S
C507   C518    1.420   .     A
C507   O558    1.382   .     S
C507   C509    1.393   .     A
C508   C511    1.393   .     A
C508   C519    1.420   .     A
C508   O548    1.382   .     S
C509   H538    1.084   .     S
C509   C512    1.398   .     A
C510   C513    1.456   .     S
C510   O551    1.296   .     A
C510   O553    1.295   .     A
C511   H539    1.084   .     S
C511   C513    1.398   .     A
C512   C514    1.397   .     A
C513   C515    1.397   .     A
C514   H540    1.084   .     S
C514   C516    1.390   .     A
C515   H541    1.084   .     S
C515   C517    1.390   .     A
C516   C518    1.409   .     A
C517   C519    1.409   .     A
C518   C705    1.467   1_545 S
C519   C704    1.467   .     S
C520   H542    1.082   .     S
C520   C522    1.404   .     A
C521   C523    1.403   .     A
C521   H543    1.082   .     S
C522   O549    1.373   .     S
C522   N545    1.383   .     A
C523   O550    1.373   .     S
C523   N546    1.383   .     A
C524   C526    1.413   .     A
C524   H544    1.081   .     S
C524   N545    1.366   .     A
C525   N546    1.366   .     A
C525   H530    1.081   .     S
C526   H531    1.082   .     S
Cu527  O553    1.949   .     S
Cu527  O554    1.961   .     S
Cu527  N546    2.018   .     S
Cu527  O547    1.955   .     S
Cu527  O557    1.959   .     S
Cu527  Cu528   2.687   .     S
Cu528  N545    2.018   .     S
Cu528  O556    1.959   .     S
Cu528  O551    1.955   .     S
Cu528  O555    1.961   .     S
Cu528  O552    1.949   .     S
H529   C381    1.087   1_655 S
H533   O744    0.988   .     S
H534   O734    0.988   1_545 S
H535   O549    0.983   .     S
H536   O550    0.982   .     S
O548   H720    0.988   .     S
O558   H719    0.988   1_545 S
Br559  C578    1.921   .     S
Br560  C579    1.921   .     S
C561   O614    1.294   .     A
C561   O609    1.296   .     A
C561   C574    1.456   .     S
C562   C587    1.413   .     A
C562   C564    1.414   .     A
C562   H594    1.082   .     S
C563   C582    1.399   .     A
C563   C588    1.413   .     A
C564   C583    1.399   .     A
C564   C191    1.517   1_556 S
C565   O616    1.291   .     A
C565   C567    1.433   .     S
C565   O618    1.288   .     A
C566   O619    1.288   .     A
C566   O617    1.291   .     A
C566   C568    1.433   .     S
C567   C692    1.332   1_455 S
C567   H715    1.087   1_455 S
C568   C629    1.332   .     S
C568   H661    1.087   .     S
C569   C580    1.420   .     A
C569   O620    1.382   .     S
C569   C571    1.393   .     A
C570   C573    1.393   .     A
C570   C581    1.420   .     A
C570   O610    1.382   .     S
C571   H600    1.084   .     S
C571   C574    1.398   .     A
C572   C575    1.456   .     S
C572   O613    1.296   .     A
C572   O615    1.295   .     A
C573   H601    1.084   .     S
C573   C575    1.398   .     A
C574   C576    1.397   .     A
C575   C577    1.397   .     A
C576   H602    1.084   .     S
C576   C578    1.390   .     A
C577   H603    1.084   .     S
C577   C579    1.390   .     A
C578   C580    1.409   .     A
C579   C581    1.409   .     A
C581   C394    1.467   1_565 S
C582   H604    1.082   .     S
C582   C584    1.404   .     A
C583   C585    1.403   .     A
C583   H605    1.082   .     S
C584   O611    1.373   .     S
C584   N607    1.383   .     A
C585   O612    1.373   .     S
C585   N608    1.383   .     A
C586   C588    1.413   .     A
C586   H606    1.081   .     S
C586   N607    1.366   .     A
C587   N608    1.366   .     A
C587   H592    1.081   .     S
C588   H593    1.082   .     S
Cu589  O615    1.949   .     S
Cu589  O616    1.961   .     S
Cu589  N608    2.018   .     S
Cu589  O609    1.955   .     S
Cu589  O619    1.959   .     S
Cu589  Cu590   2.687   .     S
Cu590  N607    2.018   .     S
Cu590  O618    1.959   .     S
Cu590  O613    1.955   .     S
Cu590  O617    1.961   .     S
Cu590  O614    1.949   .     S
H591   C629    1.087   .     S
H595   O434    0.988   1_565 S
H597   O611    0.983   .     S
H598   O612    0.982   .     S
H599   C692    1.087   1_455 S
O610   H410    0.988   1_565 S
Br621  C640    1.921   .     S
Br622  C641    1.921   .     S
C623   O676    1.294   .     A
C623   O671    1.296   .     A
C623   C636    1.456   .     S
C624   C649    1.413   .     A
C624   C626    1.414   .     A
C624   H656    1.082   .     S
C625   C644    1.399   .     A
C625   C650    1.413   .     A
C626   C645    1.399   .     A
C626   C253    1.517   1_556 S
C627   O678    1.291   .     A
C627   C629    1.433   .     S
C627   O680    1.288   .     A
C628   O681    1.288   .     A
C628   O679    1.291   .     A
C628   C630    1.433   .     S
C630   C691    1.332   .     S
C630   H723    1.087   .     S
C631   C642    1.420   .     A
C631   O682    1.382   .     S
C631   C633    1.393   .     A
C632   C635    1.393   .     A
C632   C643    1.420   .     A
C632   O672    1.382   .     S
C633   H662    1.084   .     S
C633   C636    1.398   .     A
C634   C637    1.456   .     S
C634   O675    1.296   .     A
C634   O677    1.295   .     A
C635   H663    1.084   .     S
C635   C637    1.398   .     A
C636   C638    1.397   .     A
C637   C639    1.397   .     A
C638   H664    1.084   .     S
C638   C640    1.390   .     A
C639   H665    1.084   .     S
C639   C641    1.390   .     A
C640   C642    1.409   .     A
C641   C643    1.409   .     A
C643   C456    1.467   1_565 S
C644   H666    1.082   .     S
C644   C646    1.404   .     A
C645   C647    1.403   .     A
C645   H667    1.082   .     S
C646   O673    1.373   .     S
C646   N669    1.383   .     A
C647   O674    1.373   .     S
C647   N670    1.383   .     A
C648   C650    1.413   .     A
C648   H668    1.081   .     S
C648   N669    1.366   .     A
C649   N670    1.366   .     A
C649   H654    1.081   .     S
C650   H655    1.082   .     S
Cu651  O677    1.949   .     S
Cu651  O678    1.961   .     S
Cu651  N670    2.018   .     S
Cu651  O671    1.955   .     S
Cu651  O681    1.959   .     S
Cu651  Cu652   2.687   .     S
Cu652  N669    2.018   .     S
Cu652  O680    1.959   .     S
Cu652  O675    1.955   .     S
Cu652  O679    1.961   .     S
Cu652  O676    1.949   .     S
H653   C691    1.087   .     S
H657   O496    0.988   1_565 S
H659   O673    0.983   .     S
H660   O674    0.982   .     S
O672   H472    0.988   1_565 S
Br683  C702    1.921   .     S
Br684  C703    1.921   .     S
C685   O738    1.294   .     A
C685   O733    1.296   .     A
C685   C698    1.456   .     S
C686   C711    1.413   .     A
C686   C688    1.414   .     A
C686   H718    1.082   .     S
C687   C706    1.399   .     A
C687   C712    1.413   .     A
C688   C707    1.399   .     A
C688   C315    1.517   1_556 S
C689   O740    1.291   .     A
C689   C691    1.433   .     S
C689   O742    1.288   .     A
C690   O743    1.288   .     A
C690   O741    1.291   .     A
C690   C692    1.433   .     S
C692   C567    1.332   1_655 S
C692   H599    1.087   1_655 S
C693   C704    1.420   .     A
C693   O744    1.382   .     S
C693   C695    1.393   .     A
C694   C697    1.393   .     A
C694   C705    1.420   .     A
C694   O734    1.382   .     S
C695   H724    1.084   .     S
C695   C698    1.398   .     A
C696   C699    1.456   .     S
C696   O737    1.296   .     A
C696   O739    1.295   .     A
C697   H725    1.084   .     S
C697   C699    1.398   .     A
C698   C700    1.397   .     A
C699   C701    1.397   .     A
C700   H726    1.084   .     S
C700   C702    1.390   .     A
C701   H727    1.084   .     S
C701   C703    1.390   .     A
C702   C704    1.409   .     A
C703   C705    1.409   .     A
C705   C518    1.467   1_565 S
C706   H728    1.082   .     S
C706   C708    1.404   .     A
C707   C709    1.403   .     A
C707   H729    1.082   .     S
C708   O735    1.373   .     S
C708   N731    1.383   .     A
C709   O736    1.373   .     S
C709   N732    1.383   .     A
C710   C712    1.413   .     A
C710   H730    1.081   .     S
C710   N731    1.366   .     A
C711   N732    1.366   .     A
C711   H716    1.081   .     S
C712   H717    1.082   .     S
Cu713  O739    1.949   .     S
Cu713  O740    1.961   .     S
Cu713  N732    2.018   .     S
Cu713  O733    1.955   .     S
Cu713  O743    1.959   .     S
Cu713  Cu714   2.687   .     S
Cu714  N731    2.018   .     S
Cu714  O742    1.959   .     S
Cu714  O737    1.955   .     S
Cu714  O741    1.961   .     S
Cu714  O738    1.949   .     S
H715   C567    1.087   1_655 S
H719   O558    0.988   1_565 S
H721   O735    0.983   .     S
H722   O736    0.982   .     S
O734   H534    0.988   1_565 S
