data_str_m2_o10_o16_pcu_sym.173
_audit_creation_date              2020-01-03
_audit_creation_method            'Materials Studio'
_symmetry_space_group_name_H-M    'P1'
_symmetry_Int_Tables_number       1
_symmetry_cell_setting            triclinic
loop_
_symmetry_equiv_pos_as_xyz
  x,y,z
_cell_length_a                    22.3896
_cell_length_b                    26.2187
_cell_length_c                    26.8795
_cell_angle_alpha                 94.7392
_cell_angle_beta                  78.0814
_cell_angle_gamma                 101.6089
loop_
_atom_site_label
_atom_site_type_symbol
_atom_site_fract_x
_atom_site_fract_y
_atom_site_fract_z
_atom_site_U_iso_or_equiv
_atom_site_adp_type
_atom_site_occupancy
C1     C     0.18143   0.26622   0.24974   0.00000  Uiso   1.00
C2     C     0.13891   0.16797   0.48761   0.00000  Uiso   1.00
C3     C     0.15488   0.18344   0.43641   0.00000  Uiso   1.00
C4     C     0.18510   0.17982   0.01844   0.00000  Uiso   1.00
C5     C     0.24410   0.21023   0.49904   0.00000  Uiso   1.00
C6     C     0.25605   0.22959   0.45077   0.00000  Uiso   1.00
C7     C     0.21185   0.21745   0.42026   0.00000  Uiso   1.00
C8     C     0.17464   0.16264   0.06806   0.00000  Uiso   1.00
C9     C     0.27774   0.20651   0.07849   0.00000  Uiso   1.00
C10    C     0.11297   0.16512   0.40293   0.00000  Uiso   1.00
C11    C     0.18967   0.32014   0.23994   0.00000  Uiso   1.00
C12    C     0.13350   0.16627   0.34710   0.00000  Uiso   1.00
C13    C     0.14497   0.01345   0.26198   0.00000  Uiso   1.00
C14    C     0.15235   0.06716   0.24973   0.00000  Uiso   1.00
C15    C     0.20000   0.16999   0.15323   0.00000  Uiso   1.00
C16    C     0.29019   0.22248   0.02874   0.00000  Uiso   1.00
C17    C     0.21923   0.17785   0.09867   0.00000  Uiso   1.00
C18    C     0.05217   0.14007   0.42279   0.00000  Uiso   1.00
C19    C     0.03438   0.12940   0.47399   0.00000  Uiso   1.00
C20    C     0.07726   0.14196   0.00596   0.00000  Uiso   1.00
Cu21   Cu    0.10710   0.16105   0.24436   0.00000  Uiso   1.00
Cu22   Cu    0.22623   0.17228   0.25565   0.00000  Uiso   1.00
H23    H     0.31267   0.21860   0.10176   0.00000  Uiso   1.00
H24    H     0.33168   0.13064   0.20754   0.00000  Uiso   1.00
H25    H     0.29994   0.25441   0.43677   0.00000  Uiso   1.00
H26    H     0.00199   0.24564   0.01390   0.00000  Uiso   1.00
H27    H     0.13153   0.13820   0.08447   0.00000  Uiso   1.00
H28    H     0.01872   0.12692   0.39835   0.00000  Uiso   1.00
H29    H     0.06005   0.13189   0.04504   0.00000  Uiso   1.00
H30    H     0.32069   0.10986   0.48879   0.00000  Uiso   1.00
H31    H     0.22253   0.23626   0.38438   0.00000  Uiso   1.00
N32    N     0.31574   0.18074   0.26416   0.00000  Uiso   1.00
N33    N     0.01759   0.15259   0.23584   0.00000  Uiso   1.00
O34    O     0.12797   0.23807   0.24633   0.00000  Uiso   1.00
O35    O     0.22858   0.24755   0.25587   0.00000  Uiso   1.00
O36    O     0.09181   0.15960   0.31840   0.00000  Uiso   1.00
O37    O     0.19242   0.16908   0.32793   0.00000  Uiso   1.00
O38    O     0.10476   0.08578   0.24414   0.00000  Uiso   1.00
O39    O     0.20536   0.09526   0.25367   0.00000  Uiso   1.00
O40    O     0.14092   0.16425   0.17207   0.00000  Uiso   1.00
O41    O     0.24152   0.17373   0.18161   0.00000  Uiso   1.00
O42    O     0.09933   0.32629   0.30280   0.00000  Uiso   1.00
C43    C     0.10036   0.02827   0.34576   0.00000  Uiso   1.00
H44    H     0.07759   0.06093   0.34106   0.00000  Uiso   1.00
H45    H     0.14877   0.04379   0.35156   0.00000  Uiso   1.00
C46    C     0.06438   0.00178   0.39389   0.00000  Uiso   1.00
H47    H     0.08231   0.29965   0.39867   0.00000  Uiso   1.00
H48    H     0.06965   0.02877   0.42743   0.00000  Uiso   1.00
H49    H     0.01440   0.32517   0.39183   0.00000  Uiso   1.00
C50    C     0.00271   0.20901   0.30506   0.00000  Uiso   1.00
N51    N     0.01864   0.23265   0.33972   0.00000  Uiso   1.00
C52    C     0.24261   0.00763   0.20114   0.00000  Uiso   1.00
N53    N     0.28476   0.02407   0.17020   0.00000  Uiso   1.00
C54    C     0.51476   0.26622   0.24974   0.00000  Uiso   1.00
C55    C     0.47224   0.16797   0.48761   0.00000  Uiso   1.00
C56    C     0.48821   0.18344   0.43641   0.00000  Uiso   1.00
C57    C     0.51843   0.17982   0.01844   0.00000  Uiso   1.00
C58    C     0.57744   0.21023   0.49904   0.00000  Uiso   1.00
C59    C     0.58939   0.22959   0.45077   0.00000  Uiso   1.00
C60    C     0.54519   0.21745   0.42026   0.00000  Uiso   1.00
C61    C     0.50797   0.16264   0.06806   0.00000  Uiso   1.00
C62    C     0.61107   0.20651   0.07849   0.00000  Uiso   1.00
C63    C     0.44631   0.16512   0.40293   0.00000  Uiso   1.00
C64    C     0.52300   0.32014   0.23994   0.00000  Uiso   1.00
C65    C     0.46684   0.16627   0.34710   0.00000  Uiso   1.00
C66    C     0.47830   0.01345   0.26198   0.00000  Uiso   1.00
C67    C     0.48568   0.06716   0.24973   0.00000  Uiso   1.00
C68    C     0.53333   0.16999   0.15323   0.00000  Uiso   1.00
C69    C     0.62353   0.22248   0.02874   0.00000  Uiso   1.00
C70    C     0.55257   0.17785   0.09867   0.00000  Uiso   1.00
C71    C     0.38550   0.14007   0.42279   0.00000  Uiso   1.00
C72    C     0.36772   0.12940   0.47399   0.00000  Uiso   1.00
C73    C     0.41059   0.14196   0.00596   0.00000  Uiso   1.00
Cu74   Cu    0.44043   0.16105   0.24436   0.00000  Uiso   1.00
Cu75   Cu    0.55957   0.17228   0.25565   0.00000  Uiso   1.00
H76    H     0.64601   0.21860   0.10176   0.00000  Uiso   1.00
H77    H     0.66502   0.13064   0.20754   0.00000  Uiso   1.00
H78    H     0.63328   0.25441   0.43677   0.00000  Uiso   1.00
H79    H     0.33532   0.24564   0.01390   0.00000  Uiso   1.00
H80    H     0.46486   0.13820   0.08447   0.00000  Uiso   1.00
H81    H     0.35205   0.12692   0.39835   0.00000  Uiso   1.00
H82    H     0.39338   0.13189   0.04504   0.00000  Uiso   1.00
H83    H     0.65403   0.10986   0.48879   0.00000  Uiso   1.00
H84    H     0.55587   0.23626   0.38438   0.00000  Uiso   1.00
N85    N     0.64908   0.18074   0.26416   0.00000  Uiso   1.00
N86    N     0.35092   0.15259   0.23584   0.00000  Uiso   1.00
O87    O     0.46131   0.23807   0.24633   0.00000  Uiso   1.00
O88    O     0.56191   0.24755   0.25587   0.00000  Uiso   1.00
O89    O     0.42515   0.15960   0.31840   0.00000  Uiso   1.00
O90    O     0.52575   0.16908   0.32793   0.00000  Uiso   1.00
O91    O     0.43809   0.08578   0.24414   0.00000  Uiso   1.00
O92    O     0.53869   0.09526   0.25367   0.00000  Uiso   1.00
O93    O     0.47425   0.16425   0.17207   0.00000  Uiso   1.00
O94    O     0.57485   0.17373   0.18161   0.00000  Uiso   1.00
O95    O     0.43267   0.32629   0.30280   0.00000  Uiso   1.00
C96    C     0.43369   0.02827   0.34576   0.00000  Uiso   1.00
H97    H     0.41092   0.06093   0.34106   0.00000  Uiso   1.00
H98    H     0.48210   0.04379   0.35156   0.00000  Uiso   1.00
C99    C     0.39772   0.00178   0.39389   0.00000  Uiso   1.00
H100   H     0.41565   0.29965   0.39867   0.00000  Uiso   1.00
H101   H     0.40298   0.02877   0.42743   0.00000  Uiso   1.00
H102   H     0.34773   0.32517   0.39183   0.00000  Uiso   1.00
C103   C     0.33605   0.20901   0.30506   0.00000  Uiso   1.00
N104   N     0.35197   0.23265   0.33972   0.00000  Uiso   1.00
C105   C     0.57594   0.00763   0.20114   0.00000  Uiso   1.00
N106   N     0.61810   0.02407   0.17020   0.00000  Uiso   1.00
C107   C     0.84809   0.26622   0.24974   0.00000  Uiso   1.00
C108   C     0.80558   0.16797   0.48761   0.00000  Uiso   1.00
C109   C     0.82154   0.18344   0.43641   0.00000  Uiso   1.00
C110   C     0.85177   0.17982   0.01844   0.00000  Uiso   1.00
C111   C     0.91077   0.21023   0.49904   0.00000  Uiso   1.00
C112   C     0.92272   0.22959   0.45077   0.00000  Uiso   1.00
C113   C     0.87852   0.21745   0.42026   0.00000  Uiso   1.00
C114   C     0.84131   0.16264   0.06806   0.00000  Uiso   1.00
C115   C     0.94440   0.20651   0.07849   0.00000  Uiso   1.00
C116   C     0.77964   0.16512   0.40293   0.00000  Uiso   1.00
C117   C     0.85633   0.32014   0.23994   0.00000  Uiso   1.00
C118   C     0.80017   0.16627   0.34710   0.00000  Uiso   1.00
C119   C     0.81164   0.01345   0.26198   0.00000  Uiso   1.00
C120   C     0.81902   0.06716   0.24973   0.00000  Uiso   1.00
C121   C     0.86667   0.16999   0.15323   0.00000  Uiso   1.00
C122   C     0.95686   0.22248   0.02874   0.00000  Uiso   1.00
C123   C     0.88590   0.17785   0.09867   0.00000  Uiso   1.00
C124   C     0.71884   0.14007   0.42279   0.00000  Uiso   1.00
C125   C     0.70105   0.12940   0.47399   0.00000  Uiso   1.00
C126   C     0.74392   0.14196   0.00596   0.00000  Uiso   1.00
Cu127  Cu    0.77377   0.16105   0.24436   0.00000  Uiso   1.00
Cu128  Cu    0.89290   0.17228   0.25565   0.00000  Uiso   1.00
H129   H     0.97934   0.21860   0.10176   0.00000  Uiso   1.00
H130   H     0.99835   0.13064   0.20754   0.00000  Uiso   1.00
H131   H     0.96661   0.25441   0.43677   0.00000  Uiso   1.00
H132   H     0.66866   0.24564   0.01390   0.00000  Uiso   1.00
H133   H     0.79819   0.13820   0.08447   0.00000  Uiso   1.00
H134   H     0.68538   0.12692   0.39835   0.00000  Uiso   1.00
H135   H     0.72671   0.13189   0.04504   0.00000  Uiso   1.00
H136   H     0.98736   0.10986   0.48879   0.00000  Uiso   1.00
H137   H     0.88920   0.23626   0.38438   0.00000  Uiso   1.00
N138   N     0.98241   0.18074   0.26416   0.00000  Uiso   1.00
N139   N     0.68426   0.15259   0.23584   0.00000  Uiso   1.00
O140   O     0.79464   0.23807   0.24633   0.00000  Uiso   1.00
O141   O     0.89524   0.24755   0.25587   0.00000  Uiso   1.00
O142   O     0.75848   0.15960   0.31840   0.00000  Uiso   1.00
O143   O     0.85908   0.16908   0.32793   0.00000  Uiso   1.00
O144   O     0.77142   0.08578   0.24414   0.00000  Uiso   1.00
O145   O     0.87203   0.09526   0.25367   0.00000  Uiso   1.00
O146   O     0.80758   0.16425   0.17207   0.00000  Uiso   1.00
O147   O     0.90819   0.17373   0.18161   0.00000  Uiso   1.00
O148   O     0.76600   0.32629   0.30280   0.00000  Uiso   1.00
C149   C     0.76703   0.02827   0.34576   0.00000  Uiso   1.00
H150   H     0.74426   0.06093   0.34106   0.00000  Uiso   1.00
H151   H     0.81544   0.04379   0.35156   0.00000  Uiso   1.00
C152   C     0.73105   0.00178   0.39389   0.00000  Uiso   1.00
H153   H     0.74898   0.29965   0.39867   0.00000  Uiso   1.00
H154   H     0.73632   0.02877   0.42743   0.00000  Uiso   1.00
H155   H     0.68106   0.32517   0.39183   0.00000  Uiso   1.00
C156   C     0.66938   0.20901   0.30506   0.00000  Uiso   1.00
N157   N     0.68531   0.23265   0.33972   0.00000  Uiso   1.00
C158   C     0.90928   0.00763   0.20114   0.00000  Uiso   1.00
N159   N     0.95143   0.02407   0.17020   0.00000  Uiso   1.00
C160   C     0.18143   0.59955   0.24974   0.00000  Uiso   1.00
C161   C     0.13891   0.50130   0.48761   0.00000  Uiso   1.00
C162   C     0.15488   0.51678   0.43641   0.00000  Uiso   1.00
C163   C     0.18510   0.51316   0.01844   0.00000  Uiso   1.00
C164   C     0.24410   0.54357   0.49904   0.00000  Uiso   1.00
C165   C     0.25605   0.56292   0.45077   0.00000  Uiso   1.00
C166   C     0.21185   0.55079   0.42026   0.00000  Uiso   1.00
C167   C     0.17464   0.49597   0.06806   0.00000  Uiso   1.00
C168   C     0.27774   0.53985   0.07849   0.00000  Uiso   1.00
C169   C     0.11297   0.49845   0.40293   0.00000  Uiso   1.00
C170   C     0.18967   0.65347   0.23994   0.00000  Uiso   1.00
C171   C     0.13350   0.49960   0.34710   0.00000  Uiso   1.00
C172   C     0.14497   0.34678   0.26198   0.00000  Uiso   1.00
C173   C     0.15235   0.40049   0.24973   0.00000  Uiso   1.00
C174   C     0.20000   0.50332   0.15323   0.00000  Uiso   1.00
C175   C     0.29019   0.55581   0.02874   0.00000  Uiso   1.00
C176   C     0.21923   0.51118   0.09867   0.00000  Uiso   1.00
C177   C     0.05217   0.47340   0.42279   0.00000  Uiso   1.00
C178   C     0.03438   0.46274   0.47399   0.00000  Uiso   1.00
C179   C     0.07726   0.47530   0.00596   0.00000  Uiso   1.00
Cu180  Cu    0.10710   0.49439   0.24436   0.00000  Uiso   1.00
Cu181  Cu    0.22623   0.50561   0.25565   0.00000  Uiso   1.00
H182   H     0.31267   0.55193   0.10176   0.00000  Uiso   1.00
H183   H     0.33168   0.46397   0.20754   0.00000  Uiso   1.00
H184   H     0.29994   0.58774   0.43677   0.00000  Uiso   1.00
H185   H     0.00199   0.57897   0.01390   0.00000  Uiso   1.00
H186   H     0.13153   0.47153   0.08447   0.00000  Uiso   1.00
H187   H     0.01872   0.46026   0.39835   0.00000  Uiso   1.00
H188   H     0.06005   0.46522   0.04504   0.00000  Uiso   1.00
H189   H     0.32069   0.44319   0.48879   0.00000  Uiso   1.00
H190   H     0.22253   0.56960   0.38438   0.00000  Uiso   1.00
N191   N     0.31574   0.51407   0.26416   0.00000  Uiso   1.00
N192   N     0.01759   0.48593   0.23584   0.00000  Uiso   1.00
O193   O     0.12797   0.57141   0.24633   0.00000  Uiso   1.00
O194   O     0.22858   0.58089   0.25587   0.00000  Uiso   1.00
O195   O     0.09181   0.49293   0.31840   0.00000  Uiso   1.00
O196   O     0.19242   0.50241   0.32793   0.00000  Uiso   1.00
O197   O     0.10476   0.41911   0.24414   0.00000  Uiso   1.00
O198   O     0.20536   0.42859   0.25367   0.00000  Uiso   1.00
O199   O     0.14092   0.49759   0.17207   0.00000  Uiso   1.00
O200   O     0.24152   0.50707   0.18161   0.00000  Uiso   1.00
O201   O     0.09933   0.65963   0.30280   0.00000  Uiso   1.00
C202   C     0.10036   0.36160   0.34576   0.00000  Uiso   1.00
H203   H     0.07759   0.39426   0.34106   0.00000  Uiso   1.00
H204   H     0.14877   0.37712   0.35156   0.00000  Uiso   1.00
C205   C     0.06438   0.33511   0.39389   0.00000  Uiso   1.00
H206   H     0.08231   0.63299   0.39867   0.00000  Uiso   1.00
H207   H     0.06965   0.36210   0.42743   0.00000  Uiso   1.00
H208   H     0.01440   0.65850   0.39183   0.00000  Uiso   1.00
C209   C     0.00271   0.54234   0.30506   0.00000  Uiso   1.00
N210   N     0.01864   0.56598   0.33972   0.00000  Uiso   1.00
C211   C     0.24261   0.34096   0.20114   0.00000  Uiso   1.00
N212   N     0.28476   0.35741   0.17020   0.00000  Uiso   1.00
C213   C     0.51476   0.59955   0.24974   0.00000  Uiso   1.00
C214   C     0.47224   0.50130   0.48761   0.00000  Uiso   1.00
C215   C     0.48821   0.51678   0.43641   0.00000  Uiso   1.00
C216   C     0.51843   0.51316   0.01844   0.00000  Uiso   1.00
C217   C     0.57744   0.54357   0.49904   0.00000  Uiso   1.00
C218   C     0.58939   0.56292   0.45077   0.00000  Uiso   1.00
C219   C     0.54519   0.55079   0.42026   0.00000  Uiso   1.00
C220   C     0.50797   0.49597   0.06806   0.00000  Uiso   1.00
C221   C     0.61107   0.53985   0.07849   0.00000  Uiso   1.00
C222   C     0.44631   0.49845   0.40293   0.00000  Uiso   1.00
C223   C     0.52300   0.65347   0.23994   0.00000  Uiso   1.00
C224   C     0.46684   0.49960   0.34710   0.00000  Uiso   1.00
C225   C     0.47830   0.34678   0.26198   0.00000  Uiso   1.00
C226   C     0.48568   0.40049   0.24973   0.00000  Uiso   1.00
C227   C     0.53333   0.50332   0.15323   0.00000  Uiso   1.00
C228   C     0.62353   0.55581   0.02874   0.00000  Uiso   1.00
C229   C     0.55257   0.51118   0.09867   0.00000  Uiso   1.00
C230   C     0.38550   0.47340   0.42279   0.00000  Uiso   1.00
C231   C     0.36772   0.46274   0.47399   0.00000  Uiso   1.00
C232   C     0.41059   0.47530   0.00596   0.00000  Uiso   1.00
Cu233  Cu    0.44043   0.49439   0.24436   0.00000  Uiso   1.00
Cu234  Cu    0.55957   0.50561   0.25565   0.00000  Uiso   1.00
H235   H     0.64601   0.55193   0.10176   0.00000  Uiso   1.00
H236   H     0.66502   0.46397   0.20754   0.00000  Uiso   1.00
H237   H     0.63328   0.58774   0.43677   0.00000  Uiso   1.00
H238   H     0.33532   0.57897   0.01390   0.00000  Uiso   1.00
H239   H     0.46486   0.47153   0.08447   0.00000  Uiso   1.00
H240   H     0.35205   0.46026   0.39835   0.00000  Uiso   1.00
H241   H     0.39338   0.46522   0.04504   0.00000  Uiso   1.00
H242   H     0.65403   0.44319   0.48879   0.00000  Uiso   1.00
H243   H     0.55587   0.56960   0.38438   0.00000  Uiso   1.00
N244   N     0.64908   0.51407   0.26416   0.00000  Uiso   1.00
N245   N     0.35092   0.48593   0.23584   0.00000  Uiso   1.00
O246   O     0.46131   0.57141   0.24633   0.00000  Uiso   1.00
O247   O     0.56191   0.58089   0.25587   0.00000  Uiso   1.00
O248   O     0.42515   0.49293   0.31840   0.00000  Uiso   1.00
O249   O     0.52575   0.50241   0.32793   0.00000  Uiso   1.00
O250   O     0.43809   0.41911   0.24414   0.00000  Uiso   1.00
O251   O     0.53869   0.42859   0.25367   0.00000  Uiso   1.00
O252   O     0.47425   0.49759   0.17207   0.00000  Uiso   1.00
O253   O     0.57485   0.50707   0.18161   0.00000  Uiso   1.00
O254   O     0.43267   0.65963   0.30280   0.00000  Uiso   1.00
C255   C     0.43369   0.36160   0.34576   0.00000  Uiso   1.00
H256   H     0.41092   0.39426   0.34106   0.00000  Uiso   1.00
H257   H     0.48210   0.37712   0.35156   0.00000  Uiso   1.00
C258   C     0.39772   0.33511   0.39389   0.00000  Uiso   1.00
H259   H     0.41565   0.63299   0.39867   0.00000  Uiso   1.00
H260   H     0.40298   0.36210   0.42743   0.00000  Uiso   1.00
H261   H     0.34773   0.65850   0.39183   0.00000  Uiso   1.00
C262   C     0.33605   0.54234   0.30506   0.00000  Uiso   1.00
N263   N     0.35197   0.56598   0.33972   0.00000  Uiso   1.00
C264   C     0.57594   0.34096   0.20114   0.00000  Uiso   1.00
N265   N     0.61810   0.35741   0.17020   0.00000  Uiso   1.00
C266   C     0.84809   0.59955   0.24974   0.00000  Uiso   1.00
C267   C     0.80558   0.50130   0.48761   0.00000  Uiso   1.00
C268   C     0.82154   0.51678   0.43641   0.00000  Uiso   1.00
C269   C     0.85177   0.51316   0.01844   0.00000  Uiso   1.00
C270   C     0.91077   0.54357   0.49904   0.00000  Uiso   1.00
C271   C     0.92272   0.56292   0.45077   0.00000  Uiso   1.00
C272   C     0.87852   0.55079   0.42026   0.00000  Uiso   1.00
C273   C     0.84131   0.49597   0.06806   0.00000  Uiso   1.00
C274   C     0.94440   0.53985   0.07849   0.00000  Uiso   1.00
C275   C     0.77964   0.49845   0.40293   0.00000  Uiso   1.00
C276   C     0.85633   0.65347   0.23994   0.00000  Uiso   1.00
C277   C     0.80017   0.49960   0.34710   0.00000  Uiso   1.00
C278   C     0.81164   0.34678   0.26198   0.00000  Uiso   1.00
C279   C     0.81902   0.40049   0.24973   0.00000  Uiso   1.00
C280   C     0.86667   0.50332   0.15323   0.00000  Uiso   1.00
C281   C     0.95686   0.55581   0.02874   0.00000  Uiso   1.00
C282   C     0.88590   0.51118   0.09867   0.00000  Uiso   1.00
C283   C     0.71884   0.47340   0.42279   0.00000  Uiso   1.00
C284   C     0.70105   0.46274   0.47399   0.00000  Uiso   1.00
C285   C     0.74392   0.47530   0.00596   0.00000  Uiso   1.00
Cu286  Cu    0.77377   0.49439   0.24436   0.00000  Uiso   1.00
Cu287  Cu    0.89290   0.50561   0.25565   0.00000  Uiso   1.00
H288   H     0.97934   0.55193   0.10176   0.00000  Uiso   1.00
H289   H     0.99835   0.46397   0.20754   0.00000  Uiso   1.00
H290   H     0.96661   0.58774   0.43677   0.00000  Uiso   1.00
H291   H     0.66866   0.57897   0.01390   0.00000  Uiso   1.00
H292   H     0.79819   0.47153   0.08447   0.00000  Uiso   1.00
H293   H     0.68538   0.46026   0.39835   0.00000  Uiso   1.00
H294   H     0.72671   0.46522   0.04504   0.00000  Uiso   1.00
H295   H     0.98736   0.44319   0.48879   0.00000  Uiso   1.00
H296   H     0.88920   0.56960   0.38438   0.00000  Uiso   1.00
N297   N     0.98241   0.51407   0.26416   0.00000  Uiso   1.00
N298   N     0.68426   0.48593   0.23584   0.00000  Uiso   1.00
O299   O     0.79464   0.57141   0.24633   0.00000  Uiso   1.00
O300   O     0.89524   0.58089   0.25587   0.00000  Uiso   1.00
O301   O     0.75848   0.49293   0.31840   0.00000  Uiso   1.00
O302   O     0.85908   0.50241   0.32793   0.00000  Uiso   1.00
O303   O     0.77142   0.41911   0.24414   0.00000  Uiso   1.00
O304   O     0.87203   0.42859   0.25367   0.00000  Uiso   1.00
O305   O     0.80758   0.49759   0.17207   0.00000  Uiso   1.00
O306   O     0.90819   0.50707   0.18161   0.00000  Uiso   1.00
O307   O     0.76600   0.65963   0.30280   0.00000  Uiso   1.00
C308   C     0.76703   0.36160   0.34576   0.00000  Uiso   1.00
H309   H     0.74426   0.39426   0.34106   0.00000  Uiso   1.00
H310   H     0.81544   0.37712   0.35156   0.00000  Uiso   1.00
C311   C     0.73105   0.33511   0.39389   0.00000  Uiso   1.00
H312   H     0.74898   0.63299   0.39867   0.00000  Uiso   1.00
H313   H     0.73632   0.36210   0.42743   0.00000  Uiso   1.00
H314   H     0.68106   0.65850   0.39183   0.00000  Uiso   1.00
C315   C     0.66938   0.54234   0.30506   0.00000  Uiso   1.00
N316   N     0.68531   0.56598   0.33972   0.00000  Uiso   1.00
C317   C     0.90928   0.34096   0.20114   0.00000  Uiso   1.00
N318   N     0.95143   0.35741   0.17020   0.00000  Uiso   1.00
C319   C     0.18143   0.93289   0.24974   0.00000  Uiso   1.00
C320   C     0.13891   0.83463   0.48761   0.00000  Uiso   1.00
C321   C     0.15488   0.85011   0.43641   0.00000  Uiso   1.00
C322   C     0.18510   0.84649   0.01844   0.00000  Uiso   1.00
C323   C     0.24410   0.87690   0.49904   0.00000  Uiso   1.00
C324   C     0.25605   0.89625   0.45077   0.00000  Uiso   1.00
C325   C     0.21185   0.88412   0.42026   0.00000  Uiso   1.00
C326   C     0.17464   0.82930   0.06806   0.00000  Uiso   1.00
C327   C     0.27774   0.87318   0.07849   0.00000  Uiso   1.00
C328   C     0.11297   0.83178   0.40293   0.00000  Uiso   1.00
C329   C     0.18967   0.98680   0.23994   0.00000  Uiso   1.00
C330   C     0.13350   0.83294   0.34710   0.00000  Uiso   1.00
C331   C     0.14497   0.68012   0.26198   0.00000  Uiso   1.00
C332   C     0.15235   0.73383   0.24973   0.00000  Uiso   1.00
C333   C     0.20000   0.83665   0.15323   0.00000  Uiso   1.00
C334   C     0.29019   0.88915   0.02874   0.00000  Uiso   1.00
C335   C     0.21923   0.84451   0.09867   0.00000  Uiso   1.00
C336   C     0.05217   0.80673   0.42279   0.00000  Uiso   1.00
C337   C     0.03438   0.79607   0.47399   0.00000  Uiso   1.00
C338   C     0.07726   0.80863   0.00596   0.00000  Uiso   1.00
Cu339  Cu    0.10710   0.82772   0.24436   0.00000  Uiso   1.00
Cu340  Cu    0.22623   0.83895   0.25565   0.00000  Uiso   1.00
H341   H     0.31267   0.88527   0.10176   0.00000  Uiso   1.00
H342   H     0.33168   0.79731   0.20754   0.00000  Uiso   1.00
H343   H     0.29994   0.92108   0.43677   0.00000  Uiso   1.00
H344   H     0.00199   0.91231   0.01390   0.00000  Uiso   1.00
H345   H     0.13153   0.80487   0.08447   0.00000  Uiso   1.00
H346   H     0.01872   0.79359   0.39835   0.00000  Uiso   1.00
H347   H     0.06005   0.79856   0.04504   0.00000  Uiso   1.00
H348   H     0.32069   0.77653   0.48879   0.00000  Uiso   1.00
H349   H     0.22253   0.90293   0.38438   0.00000  Uiso   1.00
N350   N     0.31574   0.84741   0.26416   0.00000  Uiso   1.00
N351   N     0.01759   0.81926   0.23584   0.00000  Uiso   1.00
O352   O     0.12797   0.90474   0.24633   0.00000  Uiso   1.00
O353   O     0.22858   0.91422   0.25587   0.00000  Uiso   1.00
O354   O     0.09181   0.82627   0.31840   0.00000  Uiso   1.00
O355   O     0.19242   0.83575   0.32793   0.00000  Uiso   1.00
O356   O     0.10476   0.75245   0.24414   0.00000  Uiso   1.00
O357   O     0.20536   0.76193   0.25367   0.00000  Uiso   1.00
O358   O     0.14092   0.83092   0.17207   0.00000  Uiso   1.00
O359   O     0.24152   0.84040   0.18161   0.00000  Uiso   1.00
O360   O     0.09933   0.99296   0.30280   0.00000  Uiso   1.00
C361   C     0.10036   0.69494   0.34576   0.00000  Uiso   1.00
H362   H     0.07759   0.72760   0.34106   0.00000  Uiso   1.00
H363   H     0.14877   0.71045   0.35156   0.00000  Uiso   1.00
C364   C     0.06438   0.66845   0.39389   0.00000  Uiso   1.00
H365   H     0.08231   0.96632   0.39867   0.00000  Uiso   1.00
H366   H     0.06965   0.69543   0.42743   0.00000  Uiso   1.00
H367   H     0.01440   0.99183   0.39183   0.00000  Uiso   1.00
C368   C     0.00271   0.87568   0.30506   0.00000  Uiso   1.00
N369   N     0.01864   0.89932   0.33972   0.00000  Uiso   1.00
C370   C     0.24261   0.67430   0.20114   0.00000  Uiso   1.00
N371   N     0.28476   0.69074   0.17020   0.00000  Uiso   1.00
C372   C     0.51476   0.93289   0.24974   0.00000  Uiso   1.00
C373   C     0.47224   0.83463   0.48761   0.00000  Uiso   1.00
C374   C     0.48821   0.85011   0.43641   0.00000  Uiso   1.00
C375   C     0.51843   0.84649   0.01844   0.00000  Uiso   1.00
C376   C     0.57744   0.87690   0.49904   0.00000  Uiso   1.00
C377   C     0.58939   0.89625   0.45077   0.00000  Uiso   1.00
C378   C     0.54519   0.88412   0.42026   0.00000  Uiso   1.00
C379   C     0.50797   0.82930   0.06806   0.00000  Uiso   1.00
C380   C     0.61107   0.87318   0.07849   0.00000  Uiso   1.00
C381   C     0.44631   0.83178   0.40293   0.00000  Uiso   1.00
C382   C     0.52300   0.98680   0.23994   0.00000  Uiso   1.00
C383   C     0.46684   0.83294   0.34710   0.00000  Uiso   1.00
C384   C     0.47830   0.68012   0.26198   0.00000  Uiso   1.00
C385   C     0.48568   0.73383   0.24973   0.00000  Uiso   1.00
C386   C     0.53333   0.83665   0.15323   0.00000  Uiso   1.00
C387   C     0.62353   0.88915   0.02874   0.00000  Uiso   1.00
C388   C     0.55257   0.84451   0.09867   0.00000  Uiso   1.00
C389   C     0.38550   0.80673   0.42279   0.00000  Uiso   1.00
C390   C     0.36772   0.79607   0.47399   0.00000  Uiso   1.00
C391   C     0.41059   0.80863   0.00596   0.00000  Uiso   1.00
Cu392  Cu    0.44043   0.82772   0.24436   0.00000  Uiso   1.00
Cu393  Cu    0.55957   0.83895   0.25565   0.00000  Uiso   1.00
H394   H     0.64601   0.88527   0.10176   0.00000  Uiso   1.00
H395   H     0.66502   0.79731   0.20754   0.00000  Uiso   1.00
H396   H     0.63328   0.92108   0.43677   0.00000  Uiso   1.00
H397   H     0.33532   0.91231   0.01390   0.00000  Uiso   1.00
H398   H     0.46486   0.80487   0.08447   0.00000  Uiso   1.00
H399   H     0.35205   0.79359   0.39835   0.00000  Uiso   1.00
H400   H     0.39338   0.79856   0.04504   0.00000  Uiso   1.00
H401   H     0.65403   0.77653   0.48879   0.00000  Uiso   1.00
H402   H     0.55587   0.90293   0.38438   0.00000  Uiso   1.00
N403   N     0.64908   0.84741   0.26416   0.00000  Uiso   1.00
N404   N     0.35092   0.81926   0.23584   0.00000  Uiso   1.00
O405   O     0.46131   0.90474   0.24633   0.00000  Uiso   1.00
O406   O     0.56191   0.91422   0.25587   0.00000  Uiso   1.00
O407   O     0.42515   0.82627   0.31840   0.00000  Uiso   1.00
O408   O     0.52575   0.83575   0.32793   0.00000  Uiso   1.00
O409   O     0.43809   0.75245   0.24414   0.00000  Uiso   1.00
O410   O     0.53869   0.76193   0.25367   0.00000  Uiso   1.00
O411   O     0.47425   0.83092   0.17207   0.00000  Uiso   1.00
O412   O     0.57485   0.84040   0.18161   0.00000  Uiso   1.00
O413   O     0.43267   0.99296   0.30280   0.00000  Uiso   1.00
C414   C     0.43369   0.69494   0.34576   0.00000  Uiso   1.00
H415   H     0.41092   0.72760   0.34106   0.00000  Uiso   1.00
H416   H     0.48210   0.71045   0.35156   0.00000  Uiso   1.00
C417   C     0.39772   0.66845   0.39389   0.00000  Uiso   1.00
H418   H     0.41565   0.96632   0.39867   0.00000  Uiso   1.00
H419   H     0.40298   0.69543   0.42743   0.00000  Uiso   1.00
H420   H     0.34773   0.99183   0.39183   0.00000  Uiso   1.00
C421   C     0.33605   0.87568   0.30506   0.00000  Uiso   1.00
N422   N     0.35197   0.89932   0.33972   0.00000  Uiso   1.00
C423   C     0.57594   0.67430   0.20114   0.00000  Uiso   1.00
N424   N     0.61810   0.69074   0.17020   0.00000  Uiso   1.00
C425   C     0.84809   0.93289   0.24974   0.00000  Uiso   1.00
C426   C     0.80558   0.83463   0.48761   0.00000  Uiso   1.00
C427   C     0.82154   0.85011   0.43641   0.00000  Uiso   1.00
C428   C     0.85177   0.84649   0.01844   0.00000  Uiso   1.00
C429   C     0.91077   0.87690   0.49904   0.00000  Uiso   1.00
C430   C     0.92272   0.89625   0.45077   0.00000  Uiso   1.00
C431   C     0.87852   0.88412   0.42026   0.00000  Uiso   1.00
C432   C     0.84131   0.82930   0.06806   0.00000  Uiso   1.00
C433   C     0.94440   0.87318   0.07849   0.00000  Uiso   1.00
C434   C     0.77964   0.83178   0.40293   0.00000  Uiso   1.00
C435   C     0.85633   0.98680   0.23994   0.00000  Uiso   1.00
C436   C     0.80017   0.83294   0.34710   0.00000  Uiso   1.00
C437   C     0.81164   0.68012   0.26198   0.00000  Uiso   1.00
C438   C     0.81902   0.73383   0.24973   0.00000  Uiso   1.00
C439   C     0.86667   0.83665   0.15323   0.00000  Uiso   1.00
C440   C     0.95686   0.88915   0.02874   0.00000  Uiso   1.00
C441   C     0.88590   0.84451   0.09867   0.00000  Uiso   1.00
C442   C     0.71884   0.80673   0.42279   0.00000  Uiso   1.00
C443   C     0.70105   0.79607   0.47399   0.00000  Uiso   1.00
C444   C     0.74392   0.80863   0.00596   0.00000  Uiso   1.00
Cu445  Cu    0.77377   0.82772   0.24436   0.00000  Uiso   1.00
Cu446  Cu    0.89290   0.83895   0.25565   0.00000  Uiso   1.00
H447   H     0.97934   0.88527   0.10176   0.00000  Uiso   1.00
H448   H     0.99835   0.79731   0.20754   0.00000  Uiso   1.00
H449   H     0.96661   0.92108   0.43677   0.00000  Uiso   1.00
H450   H     0.66866   0.91231   0.01390   0.00000  Uiso   1.00
H451   H     0.79819   0.80487   0.08447   0.00000  Uiso   1.00
H452   H     0.68538   0.79359   0.39835   0.00000  Uiso   1.00
H453   H     0.72671   0.79856   0.04504   0.00000  Uiso   1.00
H454   H     0.98736   0.77653   0.48879   0.00000  Uiso   1.00
H455   H     0.88920   0.90293   0.38438   0.00000  Uiso   1.00
N456   N     0.98241   0.84741   0.26416   0.00000  Uiso   1.00
N457   N     0.68426   0.81926   0.23584   0.00000  Uiso   1.00
O458   O     0.79464   0.90474   0.24633   0.00000  Uiso   1.00
O459   O     0.89524   0.91422   0.25587   0.00000  Uiso   1.00
O460   O     0.75848   0.82627   0.31840   0.00000  Uiso   1.00
O461   O     0.85908   0.83575   0.32793   0.00000  Uiso   1.00
O462   O     0.77142   0.75245   0.24414   0.00000  Uiso   1.00
O463   O     0.87203   0.76193   0.25367   0.00000  Uiso   1.00
O464   O     0.80758   0.83092   0.17207   0.00000  Uiso   1.00
O465   O     0.90819   0.84040   0.18161   0.00000  Uiso   1.00
O466   O     0.76600   0.99296   0.30280   0.00000  Uiso   1.00
C467   C     0.76703   0.69494   0.34576   0.00000  Uiso   1.00
H468   H     0.74426   0.72760   0.34106   0.00000  Uiso   1.00
H469   H     0.81544   0.71045   0.35156   0.00000  Uiso   1.00
C470   C     0.73105   0.66845   0.39389   0.00000  Uiso   1.00
H471   H     0.74898   0.96632   0.39867   0.00000  Uiso   1.00
H472   H     0.73632   0.69543   0.42743   0.00000  Uiso   1.00
H473   H     0.68106   0.99183   0.39183   0.00000  Uiso   1.00
C474   C     0.66938   0.87568   0.30506   0.00000  Uiso   1.00
N475   N     0.68531   0.89932   0.33972   0.00000  Uiso   1.00
C476   C     0.90928   0.67430   0.20114   0.00000  Uiso   1.00
N477   N     0.95143   0.69074   0.17020   0.00000  Uiso   1.00
C478   C     0.18143   0.26622   0.74974   0.00000  Uiso   1.00
C479   C     0.13891   0.16797   0.98761   0.00000  Uiso   1.00
C480   C     0.15488   0.18344   0.93641   0.00000  Uiso   1.00
C481   C     0.18510   0.17982   0.51844   0.00000  Uiso   1.00
C482   C     0.24410   0.21023   0.99904   0.00000  Uiso   1.00
C483   C     0.25605   0.22959   0.95077   0.00000  Uiso   1.00
C484   C     0.21185   0.21745   0.92026   0.00000  Uiso   1.00
C485   C     0.17464   0.16264   0.56806   0.00000  Uiso   1.00
C486   C     0.27774   0.20651   0.57849   0.00000  Uiso   1.00
C487   C     0.11297   0.16512   0.90293   0.00000  Uiso   1.00
C488   C     0.18967   0.32014   0.73994   0.00000  Uiso   1.00
C489   C     0.13350   0.16627   0.84710   0.00000  Uiso   1.00
C490   C     0.14497   0.01345   0.76198   0.00000  Uiso   1.00
C491   C     0.15235   0.06716   0.74973   0.00000  Uiso   1.00
C492   C     0.20000   0.16999   0.65323   0.00000  Uiso   1.00
C493   C     0.29019   0.22248   0.52874   0.00000  Uiso   1.00
C494   C     0.21923   0.17785   0.59867   0.00000  Uiso   1.00
C495   C     0.05217   0.14007   0.92279   0.00000  Uiso   1.00
C496   C     0.03438   0.12940   0.97399   0.00000  Uiso   1.00
C497   C     0.07726   0.14196   0.50596   0.00000  Uiso   1.00
Cu498  Cu    0.10710   0.16105   0.74436   0.00000  Uiso   1.00
Cu499  Cu    0.22623   0.17228   0.75565   0.00000  Uiso   1.00
H500   H     0.31267   0.21860   0.60176   0.00000  Uiso   1.00
H501   H     0.33168   0.13064   0.70754   0.00000  Uiso   1.00
H502   H     0.29994   0.25441   0.93677   0.00000  Uiso   1.00
H503   H     0.00199   0.24564   0.51390   0.00000  Uiso   1.00
H504   H     0.13153   0.13820   0.58447   0.00000  Uiso   1.00
H505   H     0.01872   0.12692   0.89835   0.00000  Uiso   1.00
H506   H     0.06005   0.13189   0.54504   0.00000  Uiso   1.00
H507   H     0.32069   0.10986   0.98879   0.00000  Uiso   1.00
H508   H     0.22253   0.23626   0.88438   0.00000  Uiso   1.00
N509   N     0.31574   0.18074   0.76416   0.00000  Uiso   1.00
N510   N     0.01759   0.15259   0.73584   0.00000  Uiso   1.00
O511   O     0.12797   0.23807   0.74633   0.00000  Uiso   1.00
O512   O     0.22858   0.24755   0.75587   0.00000  Uiso   1.00
O513   O     0.09181   0.15960   0.81840   0.00000  Uiso   1.00
O514   O     0.19242   0.16908   0.82793   0.00000  Uiso   1.00
O515   O     0.10476   0.08578   0.74414   0.00000  Uiso   1.00
O516   O     0.20536   0.09526   0.75367   0.00000  Uiso   1.00
O517   O     0.14092   0.16425   0.67207   0.00000  Uiso   1.00
O518   O     0.24152   0.17373   0.68161   0.00000  Uiso   1.00
O519   O     0.09933   0.32629   0.80280   0.00000  Uiso   1.00
C520   C     0.10036   0.02827   0.84576   0.00000  Uiso   1.00
H521   H     0.07759   0.06093   0.84106   0.00000  Uiso   1.00
H522   H     0.14877   0.04379   0.85156   0.00000  Uiso   1.00
C523   C     0.06438   0.00178   0.89389   0.00000  Uiso   1.00
H524   H     0.08231   0.29965   0.89867   0.00000  Uiso   1.00
H525   H     0.06965   0.02877   0.92743   0.00000  Uiso   1.00
H526   H     0.01440   0.32517   0.89183   0.00000  Uiso   1.00
C527   C     0.00271   0.20901   0.80506   0.00000  Uiso   1.00
N528   N     0.01864   0.23265   0.83972   0.00000  Uiso   1.00
C529   C     0.24261   0.00763   0.70114   0.00000  Uiso   1.00
N530   N     0.28476   0.02407   0.67020   0.00000  Uiso   1.00
C531   C     0.51476   0.26622   0.74974   0.00000  Uiso   1.00
C532   C     0.47224   0.16797   0.98761   0.00000  Uiso   1.00
C533   C     0.48821   0.18344   0.93641   0.00000  Uiso   1.00
C534   C     0.51843   0.17982   0.51844   0.00000  Uiso   1.00
C535   C     0.57744   0.21023   0.99904   0.00000  Uiso   1.00
C536   C     0.58939   0.22959   0.95077   0.00000  Uiso   1.00
C537   C     0.54519   0.21745   0.92026   0.00000  Uiso   1.00
C538   C     0.50797   0.16264   0.56806   0.00000  Uiso   1.00
C539   C     0.61107   0.20651   0.57849   0.00000  Uiso   1.00
C540   C     0.44631   0.16512   0.90293   0.00000  Uiso   1.00
C541   C     0.52300   0.32014   0.73994   0.00000  Uiso   1.00
C542   C     0.46684   0.16627   0.84710   0.00000  Uiso   1.00
C543   C     0.47830   0.01345   0.76198   0.00000  Uiso   1.00
C544   C     0.48568   0.06716   0.74973   0.00000  Uiso   1.00
C545   C     0.53333   0.16999   0.65323   0.00000  Uiso   1.00
C546   C     0.62353   0.22248   0.52874   0.00000  Uiso   1.00
C547   C     0.55257   0.17785   0.59867   0.00000  Uiso   1.00
C548   C     0.38550   0.14007   0.92279   0.00000  Uiso   1.00
C549   C     0.36772   0.12940   0.97399   0.00000  Uiso   1.00
C550   C     0.41059   0.14196   0.50596   0.00000  Uiso   1.00
Cu551  Cu    0.44043   0.16105   0.74436   0.00000  Uiso   1.00
Cu552  Cu    0.55957   0.17228   0.75565   0.00000  Uiso   1.00
H553   H     0.64601   0.21860   0.60176   0.00000  Uiso   1.00
H554   H     0.66502   0.13064   0.70754   0.00000  Uiso   1.00
H555   H     0.63328   0.25441   0.93677   0.00000  Uiso   1.00
H556   H     0.33532   0.24564   0.51390   0.00000  Uiso   1.00
H557   H     0.46486   0.13820   0.58447   0.00000  Uiso   1.00
H558   H     0.35205   0.12692   0.89835   0.00000  Uiso   1.00
H559   H     0.39338   0.13189   0.54504   0.00000  Uiso   1.00
H560   H     0.65403   0.10986   0.98879   0.00000  Uiso   1.00
H561   H     0.55587   0.23626   0.88438   0.00000  Uiso   1.00
N562   N     0.64908   0.18074   0.76416   0.00000  Uiso   1.00
N563   N     0.35092   0.15259   0.73584   0.00000  Uiso   1.00
O564   O     0.46131   0.23807   0.74633   0.00000  Uiso   1.00
O565   O     0.56191   0.24755   0.75587   0.00000  Uiso   1.00
O566   O     0.42515   0.15960   0.81840   0.00000  Uiso   1.00
O567   O     0.52575   0.16908   0.82793   0.00000  Uiso   1.00
O568   O     0.43809   0.08578   0.74414   0.00000  Uiso   1.00
O569   O     0.53869   0.09526   0.75367   0.00000  Uiso   1.00
O570   O     0.47425   0.16425   0.67207   0.00000  Uiso   1.00
O571   O     0.57485   0.17373   0.68161   0.00000  Uiso   1.00
O572   O     0.43267   0.32629   0.80280   0.00000  Uiso   1.00
C573   C     0.43369   0.02827   0.84576   0.00000  Uiso   1.00
H574   H     0.41092   0.06093   0.84106   0.00000  Uiso   1.00
H575   H     0.48210   0.04379   0.85156   0.00000  Uiso   1.00
C576   C     0.39772   0.00178   0.89389   0.00000  Uiso   1.00
H577   H     0.41565   0.29965   0.89867   0.00000  Uiso   1.00
H578   H     0.40298   0.02877   0.92743   0.00000  Uiso   1.00
H579   H     0.34773   0.32517   0.89183   0.00000  Uiso   1.00
C580   C     0.33605   0.20901   0.80506   0.00000  Uiso   1.00
N581   N     0.35197   0.23265   0.83972   0.00000  Uiso   1.00
C582   C     0.57594   0.00763   0.70114   0.00000  Uiso   1.00
N583   N     0.61810   0.02407   0.67020   0.00000  Uiso   1.00
C584   C     0.84809   0.26622   0.74974   0.00000  Uiso   1.00
C585   C     0.80558   0.16797   0.98761   0.00000  Uiso   1.00
C586   C     0.82154   0.18344   0.93641   0.00000  Uiso   1.00
C587   C     0.85177   0.17982   0.51844   0.00000  Uiso   1.00
C588   C     0.91077   0.21023   0.99904   0.00000  Uiso   1.00
C589   C     0.92272   0.22959   0.95077   0.00000  Uiso   1.00
C590   C     0.87852   0.21745   0.92026   0.00000  Uiso   1.00
C591   C     0.84131   0.16264   0.56806   0.00000  Uiso   1.00
C592   C     0.94440   0.20651   0.57849   0.00000  Uiso   1.00
C593   C     0.77964   0.16512   0.90293   0.00000  Uiso   1.00
C594   C     0.85633   0.32014   0.73994   0.00000  Uiso   1.00
C595   C     0.80017   0.16627   0.84710   0.00000  Uiso   1.00
C596   C     0.81164   0.01345   0.76198   0.00000  Uiso   1.00
C597   C     0.81902   0.06716   0.74973   0.00000  Uiso   1.00
C598   C     0.86667   0.16999   0.65323   0.00000  Uiso   1.00
C599   C     0.95686   0.22248   0.52874   0.00000  Uiso   1.00
C600   C     0.88590   0.17785   0.59867   0.00000  Uiso   1.00
C601   C     0.71884   0.14007   0.92279   0.00000  Uiso   1.00
C602   C     0.70105   0.12940   0.97399   0.00000  Uiso   1.00
C603   C     0.74392   0.14196   0.50596   0.00000  Uiso   1.00
Cu604  Cu    0.77377   0.16105   0.74436   0.00000  Uiso   1.00
Cu605  Cu    0.89290   0.17228   0.75565   0.00000  Uiso   1.00
H606   H     0.97934   0.21860   0.60176   0.00000  Uiso   1.00
H607   H     0.99835   0.13064   0.70754   0.00000  Uiso   1.00
H608   H     0.96661   0.25441   0.93677   0.00000  Uiso   1.00
H609   H     0.66866   0.24564   0.51390   0.00000  Uiso   1.00
H610   H     0.79819   0.13820   0.58447   0.00000  Uiso   1.00
H611   H     0.68538   0.12692   0.89835   0.00000  Uiso   1.00
H612   H     0.72671   0.13189   0.54504   0.00000  Uiso   1.00
H613   H     0.98736   0.10986   0.98879   0.00000  Uiso   1.00
H614   H     0.88920   0.23626   0.88438   0.00000  Uiso   1.00
N615   N     0.98241   0.18074   0.76416   0.00000  Uiso   1.00
N616   N     0.68426   0.15259   0.73584   0.00000  Uiso   1.00
O617   O     0.79464   0.23807   0.74633   0.00000  Uiso   1.00
O618   O     0.89524   0.24755   0.75587   0.00000  Uiso   1.00
O619   O     0.75848   0.15960   0.81840   0.00000  Uiso   1.00
O620   O     0.85908   0.16908   0.82793   0.00000  Uiso   1.00
O621   O     0.77142   0.08578   0.74414   0.00000  Uiso   1.00
O622   O     0.87203   0.09526   0.75367   0.00000  Uiso   1.00
O623   O     0.80758   0.16425   0.67207   0.00000  Uiso   1.00
O624   O     0.90819   0.17373   0.68161   0.00000  Uiso   1.00
O625   O     0.76600   0.32629   0.80280   0.00000  Uiso   1.00
C626   C     0.76703   0.02827   0.84576   0.00000  Uiso   1.00
H627   H     0.74426   0.06093   0.84106   0.00000  Uiso   1.00
H628   H     0.81544   0.04379   0.85156   0.00000  Uiso   1.00
C629   C     0.73105   0.00178   0.89389   0.00000  Uiso   1.00
H630   H     0.74898   0.29965   0.89867   0.00000  Uiso   1.00
H631   H     0.73632   0.02877   0.92743   0.00000  Uiso   1.00
H632   H     0.68106   0.32517   0.89183   0.00000  Uiso   1.00
C633   C     0.66938   0.20901   0.80506   0.00000  Uiso   1.00
N634   N     0.68531   0.23265   0.83972   0.00000  Uiso   1.00
C635   C     0.90928   0.00763   0.70114   0.00000  Uiso   1.00
N636   N     0.95143   0.02407   0.67020   0.00000  Uiso   1.00
C637   C     0.18143   0.59955   0.74974   0.00000  Uiso   1.00
C638   C     0.13891   0.50130   0.98761   0.00000  Uiso   1.00
C639   C     0.15488   0.51678   0.93641   0.00000  Uiso   1.00
C640   C     0.18510   0.51316   0.51844   0.00000  Uiso   1.00
C641   C     0.24410   0.54357   0.99904   0.00000  Uiso   1.00
C642   C     0.25605   0.56292   0.95077   0.00000  Uiso   1.00
C643   C     0.21185   0.55079   0.92026   0.00000  Uiso   1.00
C644   C     0.17464   0.49597   0.56806   0.00000  Uiso   1.00
C645   C     0.27774   0.53985   0.57849   0.00000  Uiso   1.00
C646   C     0.11297   0.49845   0.90293   0.00000  Uiso   1.00
C647   C     0.18967   0.65347   0.73994   0.00000  Uiso   1.00
C648   C     0.13350   0.49960   0.84710   0.00000  Uiso   1.00
C649   C     0.14497   0.34678   0.76198   0.00000  Uiso   1.00
C650   C     0.15235   0.40049   0.74973   0.00000  Uiso   1.00
C651   C     0.20000   0.50332   0.65323   0.00000  Uiso   1.00
C652   C     0.29019   0.55581   0.52874   0.00000  Uiso   1.00
C653   C     0.21923   0.51118   0.59867   0.00000  Uiso   1.00
C654   C     0.05217   0.47340   0.92279   0.00000  Uiso   1.00
C655   C     0.03438   0.46274   0.97399   0.00000  Uiso   1.00
C656   C     0.07726   0.47530   0.50596   0.00000  Uiso   1.00
Cu657  Cu    0.10710   0.49439   0.74436   0.00000  Uiso   1.00
Cu658  Cu    0.22623   0.50561   0.75565   0.00000  Uiso   1.00
H659   H     0.31267   0.55193   0.60176   0.00000  Uiso   1.00
H660   H     0.33168   0.46397   0.70754   0.00000  Uiso   1.00
H661   H     0.29994   0.58774   0.93677   0.00000  Uiso   1.00
H662   H     0.00199   0.57897   0.51390   0.00000  Uiso   1.00
H663   H     0.13153   0.47153   0.58447   0.00000  Uiso   1.00
H664   H     0.01872   0.46026   0.89835   0.00000  Uiso   1.00
H665   H     0.06005   0.46522   0.54504   0.00000  Uiso   1.00
H666   H     0.32069   0.44319   0.98879   0.00000  Uiso   1.00
H667   H     0.22253   0.56960   0.88438   0.00000  Uiso   1.00
N668   N     0.31574   0.51407   0.76416   0.00000  Uiso   1.00
N669   N     0.01759   0.48593   0.73584   0.00000  Uiso   1.00
O670   O     0.12797   0.57141   0.74633   0.00000  Uiso   1.00
O671   O     0.22858   0.58089   0.75587   0.00000  Uiso   1.00
O672   O     0.09181   0.49293   0.81840   0.00000  Uiso   1.00
O673   O     0.19242   0.50241   0.82793   0.00000  Uiso   1.00
O674   O     0.10476   0.41911   0.74414   0.00000  Uiso   1.00
O675   O     0.20536   0.42859   0.75367   0.00000  Uiso   1.00
O676   O     0.14092   0.49759   0.67207   0.00000  Uiso   1.00
O677   O     0.24152   0.50707   0.68161   0.00000  Uiso   1.00
O678   O     0.09933   0.65963   0.80280   0.00000  Uiso   1.00
C679   C     0.10036   0.36160   0.84576   0.00000  Uiso   1.00
H680   H     0.07759   0.39426   0.84106   0.00000  Uiso   1.00
H681   H     0.14877   0.37712   0.85156   0.00000  Uiso   1.00
C682   C     0.06438   0.33511   0.89389   0.00000  Uiso   1.00
H683   H     0.08231   0.63299   0.89867   0.00000  Uiso   1.00
H684   H     0.06965   0.36210   0.92743   0.00000  Uiso   1.00
H685   H     0.01440   0.65850   0.89183   0.00000  Uiso   1.00
C686   C     0.00271   0.54234   0.80506   0.00000  Uiso   1.00
N687   N     0.01864   0.56598   0.83972   0.00000  Uiso   1.00
C688   C     0.24261   0.34096   0.70114   0.00000  Uiso   1.00
N689   N     0.28476   0.35741   0.67020   0.00000  Uiso   1.00
C690   C     0.51476   0.59955   0.74974   0.00000  Uiso   1.00
C691   C     0.47224   0.50130   0.98761   0.00000  Uiso   1.00
C692   C     0.48821   0.51678   0.93641   0.00000  Uiso   1.00
C693   C     0.51843   0.51316   0.51844   0.00000  Uiso   1.00
C694   C     0.57744   0.54357   0.99904   0.00000  Uiso   1.00
C695   C     0.58939   0.56292   0.95077   0.00000  Uiso   1.00
C696   C     0.54519   0.55079   0.92026   0.00000  Uiso   1.00
C697   C     0.50797   0.49597   0.56806   0.00000  Uiso   1.00
C698   C     0.61107   0.53985   0.57849   0.00000  Uiso   1.00
C699   C     0.44631   0.49845   0.90293   0.00000  Uiso   1.00
C700   C     0.52300   0.65347   0.73994   0.00000  Uiso   1.00
C701   C     0.46684   0.49960   0.84710   0.00000  Uiso   1.00
C702   C     0.47830   0.34678   0.76198   0.00000  Uiso   1.00
C703   C     0.48568   0.40049   0.74973   0.00000  Uiso   1.00
C704   C     0.53333   0.50332   0.65323   0.00000  Uiso   1.00
C705   C     0.62353   0.55581   0.52874   0.00000  Uiso   1.00
C706   C     0.55257   0.51118   0.59867   0.00000  Uiso   1.00
C707   C     0.38550   0.47340   0.92279   0.00000  Uiso   1.00
C708   C     0.36772   0.46274   0.97399   0.00000  Uiso   1.00
C709   C     0.41059   0.47530   0.50596   0.00000  Uiso   1.00
Cu710  Cu    0.44043   0.49439   0.74436   0.00000  Uiso   1.00
Cu711  Cu    0.55957   0.50561   0.75565   0.00000  Uiso   1.00
H712   H     0.64601   0.55193   0.60176   0.00000  Uiso   1.00
H713   H     0.66502   0.46397   0.70754   0.00000  Uiso   1.00
H714   H     0.63328   0.58774   0.93677   0.00000  Uiso   1.00
H715   H     0.33532   0.57897   0.51390   0.00000  Uiso   1.00
H716   H     0.46486   0.47153   0.58447   0.00000  Uiso   1.00
H717   H     0.35205   0.46026   0.89835   0.00000  Uiso   1.00
H718   H     0.39338   0.46522   0.54504   0.00000  Uiso   1.00
H719   H     0.65403   0.44319   0.98879   0.00000  Uiso   1.00
H720   H     0.55587   0.56960   0.88438   0.00000  Uiso   1.00
N721   N     0.64908   0.51407   0.76416   0.00000  Uiso   1.00
N722   N     0.35092   0.48593   0.73584   0.00000  Uiso   1.00
O723   O     0.46131   0.57141   0.74633   0.00000  Uiso   1.00
O724   O     0.56191   0.58089   0.75587   0.00000  Uiso   1.00
O725   O     0.42515   0.49293   0.81840   0.00000  Uiso   1.00
O726   O     0.52575   0.50241   0.82793   0.00000  Uiso   1.00
O727   O     0.43809   0.41911   0.74414   0.00000  Uiso   1.00
O728   O     0.53869   0.42859   0.75367   0.00000  Uiso   1.00
O729   O     0.47425   0.49759   0.67207   0.00000  Uiso   1.00
O730   O     0.57485   0.50707   0.68161   0.00000  Uiso   1.00
O731   O     0.43267   0.65963   0.80280   0.00000  Uiso   1.00
C732   C     0.43369   0.36160   0.84576   0.00000  Uiso   1.00
H733   H     0.41092   0.39426   0.84106   0.00000  Uiso   1.00
H734   H     0.48210   0.37712   0.85156   0.00000  Uiso   1.00
C735   C     0.39772   0.33511   0.89389   0.00000  Uiso   1.00
H736   H     0.41565   0.63299   0.89867   0.00000  Uiso   1.00
H737   H     0.40298   0.36210   0.92743   0.00000  Uiso   1.00
H738   H     0.34773   0.65850   0.89183   0.00000  Uiso   1.00
C739   C     0.33605   0.54234   0.80506   0.00000  Uiso   1.00
N740   N     0.35197   0.56598   0.83972   0.00000  Uiso   1.00
C741   C     0.57594   0.34096   0.70114   0.00000  Uiso   1.00
N742   N     0.61810   0.35741   0.67020   0.00000  Uiso   1.00
C743   C     0.84809   0.59955   0.74974   0.00000  Uiso   1.00
C744   C     0.80558   0.50130   0.98761   0.00000  Uiso   1.00
C745   C     0.82154   0.51678   0.93641   0.00000  Uiso   1.00
C746   C     0.85177   0.51316   0.51844   0.00000  Uiso   1.00
C747   C     0.91077   0.54357   0.99904   0.00000  Uiso   1.00
C748   C     0.92272   0.56292   0.95077   0.00000  Uiso   1.00
C749   C     0.87852   0.55079   0.92026   0.00000  Uiso   1.00
C750   C     0.84131   0.49597   0.56806   0.00000  Uiso   1.00
C751   C     0.94440   0.53985   0.57849   0.00000  Uiso   1.00
C752   C     0.77964   0.49845   0.90293   0.00000  Uiso   1.00
C753   C     0.85633   0.65347   0.73994   0.00000  Uiso   1.00
C754   C     0.80017   0.49960   0.84710   0.00000  Uiso   1.00
C755   C     0.81164   0.34678   0.76198   0.00000  Uiso   1.00
C756   C     0.81902   0.40049   0.74973   0.00000  Uiso   1.00
C757   C     0.86667   0.50332   0.65323   0.00000  Uiso   1.00
C758   C     0.95686   0.55581   0.52874   0.00000  Uiso   1.00
C759   C     0.88590   0.51118   0.59867   0.00000  Uiso   1.00
C760   C     0.71884   0.47340   0.92279   0.00000  Uiso   1.00
C761   C     0.70105   0.46274   0.97399   0.00000  Uiso   1.00
C762   C     0.74392   0.47530   0.50596   0.00000  Uiso   1.00
Cu763  Cu    0.77377   0.49439   0.74436   0.00000  Uiso   1.00
Cu764  Cu    0.89290   0.50561   0.75565   0.00000  Uiso   1.00
H765   H     0.97934   0.55193   0.60176   0.00000  Uiso   1.00
H766   H     0.99835   0.46397   0.70754   0.00000  Uiso   1.00
H767   H     0.96661   0.58774   0.93677   0.00000  Uiso   1.00
H768   H     0.66866   0.57897   0.51390   0.00000  Uiso   1.00
H769   H     0.79819   0.47153   0.58447   0.00000  Uiso   1.00
H770   H     0.68538   0.46026   0.89835   0.00000  Uiso   1.00
H771   H     0.72671   0.46522   0.54504   0.00000  Uiso   1.00
H772   H     0.98736   0.44319   0.98879   0.00000  Uiso   1.00
H773   H     0.88920   0.56960   0.88438   0.00000  Uiso   1.00
N774   N     0.98241   0.51407   0.76416   0.00000  Uiso   1.00
N775   N     0.68426   0.48593   0.73584   0.00000  Uiso   1.00
O776   O     0.79464   0.57141   0.74633   0.00000  Uiso   1.00
O777   O     0.89524   0.58089   0.75587   0.00000  Uiso   1.00
O778   O     0.75848   0.49293   0.81840   0.00000  Uiso   1.00
O779   O     0.85908   0.50241   0.82793   0.00000  Uiso   1.00
O780   O     0.77142   0.41911   0.74414   0.00000  Uiso   1.00
O781   O     0.87203   0.42859   0.75367   0.00000  Uiso   1.00
O782   O     0.80758   0.49759   0.67207   0.00000  Uiso   1.00
O783   O     0.90819   0.50707   0.68161   0.00000  Uiso   1.00
O784   O     0.76600   0.65963   0.80280   0.00000  Uiso   1.00
C785   C     0.76703   0.36160   0.84576   0.00000  Uiso   1.00
H786   H     0.74426   0.39426   0.84106   0.00000  Uiso   1.00
H787   H     0.81544   0.37712   0.85156   0.00000  Uiso   1.00
C788   C     0.73105   0.33511   0.89389   0.00000  Uiso   1.00
H789   H     0.74898   0.63299   0.89867   0.00000  Uiso   1.00
H790   H     0.73632   0.36210   0.92743   0.00000  Uiso   1.00
H791   H     0.68106   0.65850   0.89183   0.00000  Uiso   1.00
C792   C     0.66938   0.54234   0.80506   0.00000  Uiso   1.00
N793   N     0.68531   0.56598   0.83972   0.00000  Uiso   1.00
C794   C     0.90928   0.34096   0.70114   0.00000  Uiso   1.00
N795   N     0.95143   0.35741   0.67020   0.00000  Uiso   1.00
C796   C     0.18143   0.93289   0.74974   0.00000  Uiso   1.00
C797   C     0.13891   0.83463   0.98761   0.00000  Uiso   1.00
C798   C     0.15488   0.85011   0.93641   0.00000  Uiso   1.00
C799   C     0.18510   0.84649   0.51844   0.00000  Uiso   1.00
C800   C     0.24410   0.87690   0.99904   0.00000  Uiso   1.00
C801   C     0.25605   0.89625   0.95077   0.00000  Uiso   1.00
C802   C     0.21185   0.88412   0.92026   0.00000  Uiso   1.00
C803   C     0.17464   0.82930   0.56806   0.00000  Uiso   1.00
C804   C     0.27774   0.87318   0.57849   0.00000  Uiso   1.00
C805   C     0.11297   0.83178   0.90293   0.00000  Uiso   1.00
C806   C     0.18967   0.98680   0.73994   0.00000  Uiso   1.00
C807   C     0.13350   0.83294   0.84710   0.00000  Uiso   1.00
C808   C     0.14497   0.68012   0.76198   0.00000  Uiso   1.00
C809   C     0.15235   0.73383   0.74973   0.00000  Uiso   1.00
C810   C     0.20000   0.83665   0.65323   0.00000  Uiso   1.00
C811   C     0.29019   0.88915   0.52874   0.00000  Uiso   1.00
C812   C     0.21923   0.84451   0.59867   0.00000  Uiso   1.00
C813   C     0.05217   0.80673   0.92279   0.00000  Uiso   1.00
C814   C     0.03438   0.79607   0.97399   0.00000  Uiso   1.00
C815   C     0.07726   0.80863   0.50596   0.00000  Uiso   1.00
Cu816  Cu    0.10710   0.82772   0.74436   0.00000  Uiso   1.00
Cu817  Cu    0.22623   0.83895   0.75565   0.00000  Uiso   1.00
H818   H     0.31267   0.88527   0.60176   0.00000  Uiso   1.00
H819   H     0.33168   0.79731   0.70754   0.00000  Uiso   1.00
H820   H     0.29994   0.92108   0.93677   0.00000  Uiso   1.00
H821   H     0.00199   0.91231   0.51390   0.00000  Uiso   1.00
H822   H     0.13153   0.80487   0.58447   0.00000  Uiso   1.00
H823   H     0.01872   0.79359   0.89835   0.00000  Uiso   1.00
H824   H     0.06005   0.79856   0.54504   0.00000  Uiso   1.00
H825   H     0.32069   0.77653   0.98879   0.00000  Uiso   1.00
H826   H     0.22253   0.90293   0.88438   0.00000  Uiso   1.00
N827   N     0.31574   0.84741   0.76416   0.00000  Uiso   1.00
N828   N     0.01759   0.81926   0.73584   0.00000  Uiso   1.00
O829   O     0.12797   0.90474   0.74633   0.00000  Uiso   1.00
O830   O     0.22858   0.91422   0.75587   0.00000  Uiso   1.00
O831   O     0.09181   0.82627   0.81840   0.00000  Uiso   1.00
O832   O     0.19242   0.83575   0.82793   0.00000  Uiso   1.00
O833   O     0.10476   0.75245   0.74414   0.00000  Uiso   1.00
O834   O     0.20536   0.76193   0.75367   0.00000  Uiso   1.00
O835   O     0.14092   0.83092   0.67207   0.00000  Uiso   1.00
O836   O     0.24152   0.84040   0.68161   0.00000  Uiso   1.00
O837   O     0.09933   0.99296   0.80280   0.00000  Uiso   1.00
C838   C     0.10036   0.69494   0.84576   0.00000  Uiso   1.00
H839   H     0.07759   0.72760   0.84106   0.00000  Uiso   1.00
H840   H     0.14877   0.71045   0.85156   0.00000  Uiso   1.00
C841   C     0.06438   0.66845   0.89389   0.00000  Uiso   1.00
H842   H     0.08231   0.96632   0.89867   0.00000  Uiso   1.00
H843   H     0.06965   0.69543   0.92743   0.00000  Uiso   1.00
H844   H     0.01440   0.99183   0.89183   0.00000  Uiso   1.00
C845   C     0.00271   0.87568   0.80506   0.00000  Uiso   1.00
N846   N     0.01864   0.89932   0.83972   0.00000  Uiso   1.00
C847   C     0.24261   0.67430   0.70114   0.00000  Uiso   1.00
N848   N     0.28476   0.69074   0.67020   0.00000  Uiso   1.00
C849   C     0.51476   0.93289   0.74974   0.00000  Uiso   1.00
C850   C     0.47224   0.83463   0.98761   0.00000  Uiso   1.00
C851   C     0.48821   0.85011   0.93641   0.00000  Uiso   1.00
C852   C     0.51843   0.84649   0.51844   0.00000  Uiso   1.00
C853   C     0.57744   0.87690   0.99904   0.00000  Uiso   1.00
C854   C     0.58939   0.89625   0.95077   0.00000  Uiso   1.00
C855   C     0.54519   0.88412   0.92026   0.00000  Uiso   1.00
C856   C     0.50797   0.82930   0.56806   0.00000  Uiso   1.00
C857   C     0.61107   0.87318   0.57849   0.00000  Uiso   1.00
C858   C     0.44631   0.83178   0.90293   0.00000  Uiso   1.00
C859   C     0.52300   0.98680   0.73994   0.00000  Uiso   1.00
C860   C     0.46684   0.83294   0.84710   0.00000  Uiso   1.00
C861   C     0.47830   0.68012   0.76198   0.00000  Uiso   1.00
C862   C     0.48568   0.73383   0.74973   0.00000  Uiso   1.00
C863   C     0.53333   0.83665   0.65323   0.00000  Uiso   1.00
C864   C     0.62353   0.88915   0.52874   0.00000  Uiso   1.00
C865   C     0.55257   0.84451   0.59867   0.00000  Uiso   1.00
C866   C     0.38550   0.80673   0.92279   0.00000  Uiso   1.00
C867   C     0.36772   0.79607   0.97399   0.00000  Uiso   1.00
C868   C     0.41059   0.80863   0.50596   0.00000  Uiso   1.00
Cu869  Cu    0.44043   0.82772   0.74436   0.00000  Uiso   1.00
Cu870  Cu    0.55957   0.83895   0.75565   0.00000  Uiso   1.00
H871   H     0.64601   0.88527   0.60176   0.00000  Uiso   1.00
H872   H     0.66502   0.79731   0.70754   0.00000  Uiso   1.00
H873   H     0.63328   0.92108   0.93677   0.00000  Uiso   1.00
H874   H     0.33532   0.91231   0.51390   0.00000  Uiso   1.00
H875   H     0.46486   0.80487   0.58447   0.00000  Uiso   1.00
H876   H     0.35205   0.79359   0.89835   0.00000  Uiso   1.00
H877   H     0.39338   0.79856   0.54504   0.00000  Uiso   1.00
H878   H     0.65403   0.77653   0.98879   0.00000  Uiso   1.00
H879   H     0.55587   0.90293   0.88438   0.00000  Uiso   1.00
N880   N     0.64908   0.84741   0.76416   0.00000  Uiso   1.00
N881   N     0.35092   0.81926   0.73584   0.00000  Uiso   1.00
O882   O     0.46131   0.90474   0.74633   0.00000  Uiso   1.00
O883   O     0.56191   0.91422   0.75587   0.00000  Uiso   1.00
O884   O     0.42515   0.82627   0.81840   0.00000  Uiso   1.00
O885   O     0.52575   0.83575   0.82793   0.00000  Uiso   1.00
O886   O     0.43809   0.75245   0.74414   0.00000  Uiso   1.00
O887   O     0.53869   0.76193   0.75367   0.00000  Uiso   1.00
O888   O     0.47425   0.83092   0.67207   0.00000  Uiso   1.00
O889   O     0.57485   0.84040   0.68161   0.00000  Uiso   1.00
O890   O     0.43267   0.99296   0.80280   0.00000  Uiso   1.00
C891   C     0.43369   0.69494   0.84576   0.00000  Uiso   1.00
H892   H     0.41092   0.72760   0.84106   0.00000  Uiso   1.00
H893   H     0.48210   0.71045   0.85156   0.00000  Uiso   1.00
C894   C     0.39772   0.66845   0.89389   0.00000  Uiso   1.00
H895   H     0.41565   0.96632   0.89867   0.00000  Uiso   1.00
H896   H     0.40298   0.69543   0.92743   0.00000  Uiso   1.00
H897   H     0.34773   0.99183   0.89183   0.00000  Uiso   1.00
C898   C     0.33605   0.87568   0.80506   0.00000  Uiso   1.00
N899   N     0.35197   0.89932   0.83972   0.00000  Uiso   1.00
C900   C     0.57594   0.67430   0.70114   0.00000  Uiso   1.00
N901   N     0.61810   0.69074   0.67020   0.00000  Uiso   1.00
C902   C     0.84809   0.93289   0.74974   0.00000  Uiso   1.00
C903   C     0.80558   0.83463   0.98761   0.00000  Uiso   1.00
C904   C     0.82154   0.85011   0.93641   0.00000  Uiso   1.00
C905   C     0.85177   0.84649   0.51844   0.00000  Uiso   1.00
C906   C     0.91077   0.87690   0.99904   0.00000  Uiso   1.00
C907   C     0.92272   0.89625   0.95077   0.00000  Uiso   1.00
C908   C     0.87852   0.88412   0.92026   0.00000  Uiso   1.00
C909   C     0.84131   0.82930   0.56806   0.00000  Uiso   1.00
C910   C     0.94440   0.87318   0.57849   0.00000  Uiso   1.00
C911   C     0.77964   0.83178   0.90293   0.00000  Uiso   1.00
C912   C     0.85633   0.98680   0.73994   0.00000  Uiso   1.00
C913   C     0.80017   0.83294   0.84710   0.00000  Uiso   1.00
C914   C     0.81164   0.68012   0.76198   0.00000  Uiso   1.00
C915   C     0.81902   0.73383   0.74973   0.00000  Uiso   1.00
C916   C     0.86667   0.83665   0.65323   0.00000  Uiso   1.00
C917   C     0.95686   0.88915   0.52874   0.00000  Uiso   1.00
C918   C     0.88590   0.84451   0.59867   0.00000  Uiso   1.00
C919   C     0.71884   0.80673   0.92279   0.00000  Uiso   1.00
C920   C     0.70105   0.79607   0.97399   0.00000  Uiso   1.00
C921   C     0.74392   0.80863   0.50596   0.00000  Uiso   1.00
Cu922  Cu    0.77377   0.82772   0.74436   0.00000  Uiso   1.00
Cu923  Cu    0.89290   0.83895   0.75565   0.00000  Uiso   1.00
H924   H     0.97934   0.88527   0.60176   0.00000  Uiso   1.00
H925   H     0.99835   0.79731   0.70754   0.00000  Uiso   1.00
H926   H     0.96661   0.92108   0.93677   0.00000  Uiso   1.00
H927   H     0.66866   0.91231   0.51390   0.00000  Uiso   1.00
H928   H     0.79819   0.80487   0.58447   0.00000  Uiso   1.00
H929   H     0.68538   0.79359   0.89835   0.00000  Uiso   1.00
H930   H     0.72671   0.79856   0.54504   0.00000  Uiso   1.00
H931   H     0.98736   0.77653   0.98879   0.00000  Uiso   1.00
H932   H     0.88920   0.90293   0.88438   0.00000  Uiso   1.00
N933   N     0.98241   0.84741   0.76416   0.00000  Uiso   1.00
N934   N     0.68426   0.81926   0.73584   0.00000  Uiso   1.00
O935   O     0.79464   0.90474   0.74633   0.00000  Uiso   1.00
O936   O     0.89524   0.91422   0.75587   0.00000  Uiso   1.00
O937   O     0.75848   0.82627   0.81840   0.00000  Uiso   1.00
O938   O     0.85908   0.83575   0.82793   0.00000  Uiso   1.00
O939   O     0.77142   0.75245   0.74414   0.00000  Uiso   1.00
O940   O     0.87203   0.76193   0.75367   0.00000  Uiso   1.00
O941   O     0.80758   0.83092   0.67207   0.00000  Uiso   1.00
O942   O     0.90819   0.84040   0.68161   0.00000  Uiso   1.00
O943   O     0.76600   0.99296   0.80280   0.00000  Uiso   1.00
C944   C     0.76703   0.69494   0.84576   0.00000  Uiso   1.00
H945   H     0.74426   0.72760   0.84106   0.00000  Uiso   1.00
H946   H     0.81544   0.71045   0.85156   0.00000  Uiso   1.00
C947   C     0.73105   0.66845   0.89389   0.00000  Uiso   1.00
H948   H     0.74898   0.96632   0.89867   0.00000  Uiso   1.00
H949   H     0.73632   0.69543   0.92743   0.00000  Uiso   1.00
H950   H     0.68106   0.99183   0.89183   0.00000  Uiso   1.00
C951   C     0.66938   0.87568   0.80506   0.00000  Uiso   1.00
N952   N     0.68531   0.89932   0.83972   0.00000  Uiso   1.00
C953   C     0.90928   0.67430   0.70114   0.00000  Uiso   1.00
N954   N     0.95143   0.69074   0.67020   0.00000  Uiso   1.00
loop_
_geom_bond_atom_site_label_1
_geom_bond_atom_site_label_2
_geom_bond_distance
_geom_bond_site_symmetry_2
_ccdc_geom_bond_type
C1     C11     1.428   .     S
C1     O34     1.290   .     A
C1     O35     1.294   .     A
C2     C3      1.420   .     A
C2     C481    1.426   .     S
C2     C497    1.417   .     S
C3     C7      1.410   .     A
C3     C10     1.420   .     A
C4     C8      1.402   .     A
C4     C479    1.426   1_554 S
C4     C482    1.419   1_554 S
C5     C6      1.387   .     A
C5     C481    1.419   .     S
C5     C493    1.404   .     S
C6     C7      1.385   .     A
C6     H25     1.078   .     S
C7     H31     1.080   .     S
C8     C17     1.399   .     A
C8     H27     1.077   .     S
C9     C17     1.397   .     A
C9     C16     1.390   .     A
C9     H23     1.083   .     S
C10    C18     1.403   .     A
C10    C12     1.477   .     S
C11    C172    1.345   .     S
C11    C211    1.454   .     S
C12    O36     1.306   .     A
C12    O37     1.303   .     A
C13    C14     1.442   .     S
C13    C329    1.345   1_545 S
C13    O360    1.396   1_545 S
C14    O38     1.298   .     A
C14    O39     1.284   .     A
C15    O40     1.298   .     A
C15    O41     1.304   .     A
C15    C17     1.460   .     S
C16    C482    1.404   1_554 S
C16    H79     1.084   .     S
C18    H28     1.083   .     S
C18    C19     1.387   .     A
C19    C497    1.391   .     S
C19    H136    1.083   1_455 S
C20    H29     1.077   .     S
C20    C496    1.391   1_554 S
C20    C479    1.417   1_554 S
Cu21   O34     1.978   .     S
Cu21   O36     1.951   .     S
Cu21   Cu22    2.701   .     S
Cu21   O40     1.936   .     S
Cu21   N33     2.030   .     S
Cu21   O38     1.963   .     S
Cu22   O37     1.936   .     S
Cu22   O35     1.963   .     S
Cu22   N32     2.030   .     S
Cu22   O39     1.978   .     S
Cu22   O41     1.951   .     S
H24    N86     1.029   .     S
H26    C122    1.084   1_455 S
H30    C72     1.083   .     S
N32    N86     1.280   .     S
N32    C103    1.379   .     S
N33    N138    1.280   1_455 S
N33    H130    1.029   1_455 S
O42    C172    1.396   .     S
O42    C202    1.420   .     S
C43    H44     1.109   .     S
C43    H45     1.116   .     S
C43    C46     1.516   .     S
C43    O360    1.420   1_545 S
C46    H48     1.110   .     S
C46    H365    1.111   1_545 S
C46    H367    1.109   1_545 S
H47    C205    1.111   .     S
H49    C205    1.109   .     S
C50    N51     1.154   .     T
C50    N138    1.379   1_455 S
C52    N53     1.157   .     T
C52    C329    1.454   1_545 S
C54    C64     1.428   .     S
C54    O87     1.290   .     A
C54    O88     1.294   .     A
C55    C56     1.420   .     A
C55    C534    1.426   .     S
C55    C550    1.417   .     S
C56    C60     1.410   .     A
C56    C63     1.420   .     A
C57    C61     1.402   .     A
C57    C532    1.426   1_554 S
C57    C535    1.419   1_554 S
C58    C59     1.387   .     A
C58    C534    1.419   .     S
C58    C546    1.404   .     S
C59    C60     1.385   .     A
C59    H78     1.078   .     S
C60    H84     1.080   .     S
C61    C70     1.399   .     A
C61    H80     1.077   .     S
C62    C70     1.397   .     A
C62    C69     1.390   .     A
C62    H76     1.083   .     S
C63    C71     1.403   .     A
C63    C65     1.477   .     S
C64    C225    1.345   .     S
C64    C264    1.454   .     S
C65    O89     1.306   .     A
C65    O90     1.303   .     A
C66    C67     1.442   .     S
C66    C382    1.345   1_545 S
C66    O413    1.396   1_545 S
C67    O91     1.298   .     A
C67    O92     1.284   .     A
C68    O93     1.298   .     A
C68    O94     1.304   .     A
C68    C70     1.460   .     S
C69    C535    1.404   1_554 S
C69    H132    1.084   .     S
C71    H81     1.083   .     S
C71    C72     1.387   .     A
C72    C550    1.391   .     S
C73    H82     1.077   .     S
C73    C549    1.391   1_554 S
C73    C532    1.417   1_554 S
Cu74   O87     1.978   .     S
Cu74   O89     1.951   .     S
Cu74   Cu75    2.701   .     S
Cu74   O93     1.936   .     S
Cu74   N86     2.030   .     S
Cu74   O91     1.963   .     S
Cu75   O90     1.936   .     S
Cu75   O88     1.963   .     S
Cu75   N85     2.030   .     S
Cu75   O92     1.978   .     S
Cu75   O94     1.951   .     S
H77    N139    1.029   .     S
H83    C125    1.083   .     S
N85    N139    1.280   .     S
N85    C156    1.379   .     S
O95    C225    1.396   .     S
O95    C255    1.420   .     S
C96    H97     1.109   .     S
C96    H98     1.116   .     S
C96    C99     1.516   .     S
C96    O413    1.420   1_545 S
C99    H101    1.110   .     S
C99    H418    1.111   1_545 S
C99    H420    1.109   1_545 S
H100   C258    1.111   .     S
H102   C258    1.109   .     S
C103   N104    1.154   .     T
C105   N106    1.157   .     T
C105   C382    1.454   1_545 S
C107   C117    1.428   .     S
C107   O140    1.290   .     A
C107   O141    1.294   .     A
C108   C109    1.420   .     A
C108   C587    1.426   .     S
C108   C603    1.417   .     S
C109   C113    1.410   .     A
C109   C116    1.420   .     A
C110   C114    1.402   .     A
C110   C585    1.426   1_554 S
C110   C588    1.419   1_554 S
C111   C112    1.387   .     A
C111   C587    1.419   .     S
C111   C599    1.404   .     S
C112   C113    1.385   .     A
C112   H131    1.078   .     S
C113   H137    1.080   .     S
C114   C123    1.399   .     A
C114   H133    1.077   .     S
C115   C123    1.397   .     A
C115   C122    1.390   .     A
C115   H129    1.083   .     S
C116   C124    1.403   .     A
C116   C118    1.477   .     S
C117   C278    1.345   .     S
C117   C317    1.454   .     S
C118   O142    1.306   .     A
C118   O143    1.303   .     A
C119   C120    1.442   .     S
C119   C435    1.345   1_545 S
C119   O466    1.396   1_545 S
C120   O144    1.298   .     A
C120   O145    1.284   .     A
C121   O146    1.298   .     A
C121   O147    1.304   .     A
C121   C123    1.460   .     S
C122   C588    1.404   1_554 S
C122   H26     1.084   1_655 S
C124   H134    1.083   .     S
C124   C125    1.387   .     A
C125   C603    1.391   .     S
C126   H135    1.077   .     S
C126   C602    1.391   1_554 S
C126   C585    1.417   1_554 S
Cu127  O140    1.978   .     S
Cu127  O142    1.951   .     S
Cu127  Cu128   2.701   .     S
Cu127  O146    1.936   .     S
Cu127  N139    2.030   .     S
Cu127  O144    1.963   .     S
Cu128  O143    1.936   .     S
Cu128  O141    1.963   .     S
Cu128  N138    2.030   .     S
Cu128  O145    1.978   .     S
Cu128  O147    1.951   .     S
H130   N33     1.029   1_655 S
H136   C19     1.083   1_655 S
N138   N33     1.280   1_655 S
N138   C50     1.379   1_655 S
O148   C278    1.396   .     S
O148   C308    1.420   .     S
C149   H150    1.109   .     S
C149   H151    1.116   .     S
C149   C152    1.516   .     S
C149   O466    1.420   1_545 S
C152   H154    1.110   .     S
C152   H471    1.111   1_545 S
C152   H473    1.109   1_545 S
H153   C311    1.111   .     S
H155   C311    1.109   .     S
C156   N157    1.154   .     T
C158   N159    1.157   .     T
C158   C435    1.454   1_545 S
C160   C170    1.428   .     S
C160   O193    1.290   .     A
C160   O194    1.294   .     A
C161   C162    1.420   .     A
C161   C640    1.426   .     S
C161   C656    1.417   .     S
C162   C166    1.410   .     A
C162   C169    1.420   .     A
C163   C167    1.402   .     A
C163   C638    1.426   1_554 S
C163   C641    1.419   1_554 S
C164   C165    1.387   .     A
C164   C640    1.419   .     S
C164   C652    1.404   .     S
C165   C166    1.385   .     A
C165   H184    1.078   .     S
C166   H190    1.080   .     S
C167   C176    1.399   .     A
C167   H186    1.077   .     S
C168   C176    1.397   .     A
C168   C175    1.390   .     A
C168   H182    1.083   .     S
C169   C177    1.403   .     A
C169   C171    1.477   .     S
C170   C331    1.345   .     S
C170   C370    1.454   .     S
C171   O195    1.306   .     A
C171   O196    1.303   .     A
C172   C173    1.442   .     S
C173   O197    1.298   .     A
C173   O198    1.284   .     A
C174   O199    1.298   .     A
C174   O200    1.304   .     A
C174   C176    1.460   .     S
C175   C641    1.404   1_554 S
C175   H238    1.084   .     S
C177   H187    1.083   .     S
C177   C178    1.387   .     A
C178   C656    1.391   .     S
C178   H295    1.083   1_455 S
C179   H188    1.077   .     S
C179   C655    1.391   1_554 S
C179   C638    1.417   1_554 S
Cu180  O193    1.978   .     S
Cu180  O195    1.951   .     S
Cu180  Cu181   2.701   .     S
Cu180  O199    1.936   .     S
Cu180  N192    2.030   .     S
Cu180  O197    1.963   .     S
Cu181  O196    1.936   .     S
Cu181  O194    1.963   .     S
Cu181  N191    2.030   .     S
Cu181  O198    1.978   .     S
Cu181  O200    1.951   .     S
H183   N245    1.029   .     S
H185   C281    1.084   1_455 S
H189   C231    1.083   .     S
N191   N245    1.280   .     S
N191   C262    1.379   .     S
N192   N297    1.280   1_455 S
N192   H289    1.029   1_455 S
O201   C331    1.396   .     S
O201   C361    1.420   .     S
C202   H203    1.109   .     S
C202   H204    1.116   .     S
C202   C205    1.516   .     S
C205   H207    1.110   .     S
H206   C364    1.111   .     S
H208   C364    1.109   .     S
C209   N210    1.154   .     T
C209   N297    1.379   1_455 S
C211   N212    1.157   .     T
C213   C223    1.428   .     S
C213   O246    1.290   .     A
C213   O247    1.294   .     A
C214   C215    1.420   .     A
C214   C693    1.426   .     S
C214   C709    1.417   .     S
C215   C219    1.410   .     A
C215   C222    1.420   .     A
C216   C220    1.402   .     A
C216   C691    1.426   1_554 S
C216   C694    1.419   1_554 S
C217   C218    1.387   .     A
C217   C693    1.419   .     S
C217   C705    1.404   .     S
C218   C219    1.385   .     A
C218   H237    1.078   .     S
C219   H243    1.080   .     S
C220   C229    1.399   .     A
C220   H239    1.077   .     S
C221   C229    1.397   .     A
C221   C228    1.390   .     A
C221   H235    1.083   .     S
C222   C230    1.403   .     A
C222   C224    1.477   .     S
C223   C384    1.345   .     S
C223   C423    1.454   .     S
C224   O248    1.306   .     A
C224   O249    1.303   .     A
C225   C226    1.442   .     S
C226   O250    1.298   .     A
C226   O251    1.284   .     A
C227   O252    1.298   .     A
C227   O253    1.304   .     A
C227   C229    1.460   .     S
C228   C694    1.404   1_554 S
C228   H291    1.084   .     S
C230   H240    1.083   .     S
C230   C231    1.387   .     A
C231   C709    1.391   .     S
C232   H241    1.077   .     S
C232   C708    1.391   1_554 S
C232   C691    1.417   1_554 S
Cu233  O246    1.978   .     S
Cu233  O248    1.951   .     S
Cu233  Cu234   2.701   .     S
Cu233  O252    1.936   .     S
Cu233  N245    2.030   .     S
Cu233  O250    1.963   .     S
Cu234  O249    1.936   .     S
Cu234  O247    1.963   .     S
Cu234  N244    2.030   .     S
Cu234  O251    1.978   .     S
Cu234  O253    1.951   .     S
H236   N298    1.029   .     S
H242   C284    1.083   .     S
N244   N298    1.280   .     S
N244   C315    1.379   .     S
O254   C384    1.396   .     S
O254   C414    1.420   .     S
C255   H256    1.109   .     S
C255   H257    1.116   .     S
C255   C258    1.516   .     S
C258   H260    1.110   .     S
H259   C417    1.111   .     S
H261   C417    1.109   .     S
C262   N263    1.154   .     T
C264   N265    1.157   .     T
C266   C276    1.428   .     S
C266   O299    1.290   .     A
C266   O300    1.294   .     A
C267   C268    1.420   .     A
C267   C746    1.426   .     S
C267   C762    1.417   .     S
C268   C272    1.410   .     A
C268   C275    1.420   .     A
C269   C273    1.402   .     A
C269   C744    1.426   1_554 S
C269   C747    1.419   1_554 S
C270   C271    1.387   .     A
C270   C746    1.419   .     S
C270   C758    1.404   .     S
C271   C272    1.385   .     A
C271   H290    1.078   .     S
C272   H296    1.080   .     S
C273   C282    1.399   .     A
C273   H292    1.077   .     S
C274   C282    1.397   .     A
C274   C281    1.390   .     A
C274   H288    1.083   .     S
C275   C283    1.403   .     A
C275   C277    1.477   .     S
C276   C437    1.345   .     S
C276   C476    1.454   .     S
C277   O301    1.306   .     A
C277   O302    1.303   .     A
C278   C279    1.442   .     S
C279   O303    1.298   .     A
C279   O304    1.284   .     A
C280   O305    1.298   .     A
C280   O306    1.304   .     A
C280   C282    1.460   .     S
C281   C747    1.404   1_554 S
C281   H185    1.084   1_655 S
C283   H293    1.083   .     S
C283   C284    1.387   .     A
C284   C762    1.391   .     S
C285   H294    1.077   .     S
C285   C761    1.391   1_554 S
C285   C744    1.417   1_554 S
Cu286  O299    1.978   .     S
Cu286  O301    1.951   .     S
Cu286  Cu287   2.701   .     S
Cu286  O305    1.936   .     S
Cu286  N298    2.030   .     S
Cu286  O303    1.963   .     S
Cu287  O302    1.936   .     S
Cu287  O300    1.963   .     S
Cu287  N297    2.030   .     S
Cu287  O304    1.978   .     S
Cu287  O306    1.951   .     S
H289   N192    1.029   1_655 S
H295   C178    1.083   1_655 S
N297   N192    1.280   1_655 S
N297   C209    1.379   1_655 S
O307   C437    1.396   .     S
O307   C467    1.420   .     S
C308   H309    1.109   .     S
C308   H310    1.116   .     S
C308   C311    1.516   .     S
C311   H313    1.110   .     S
H312   C470    1.111   .     S
H314   C470    1.109   .     S
C315   N316    1.154   .     T
C317   N318    1.157   .     T
C319   C329    1.428   .     S
C319   O352    1.290   .     A
C319   O353    1.294   .     A
C320   C321    1.420   .     A
C320   C799    1.426   .     S
C320   C815    1.417   .     S
C321   C325    1.410   .     A
C321   C328    1.420   .     A
C322   C326    1.402   .     A
C322   C797    1.426   1_554 S
C322   C800    1.419   1_554 S
C323   C324    1.387   .     A
C323   C799    1.419   .     S
C323   C811    1.404   .     S
C324   C325    1.385   .     A
C324   H343    1.078   .     S
C325   H349    1.080   .     S
C326   C335    1.399   .     A
C326   H345    1.077   .     S
C327   C335    1.397   .     A
C327   C334    1.390   .     A
C327   H341    1.083   .     S
C328   C336    1.403   .     A
C328   C330    1.477   .     S
C329   C13     1.345   1_565 S
C329   C52     1.454   1_565 S
C330   O354    1.306   .     A
C330   O355    1.303   .     A
C331   C332    1.442   .     S
C332   O356    1.298   .     A
C332   O357    1.284   .     A
C333   O358    1.298   .     A
C333   O359    1.304   .     A
C333   C335    1.460   .     S
C334   C800    1.404   1_554 S
C334   H397    1.084   .     S
C336   H346    1.083   .     S
C336   C337    1.387   .     A
C337   C815    1.391   .     S
C337   H454    1.083   1_455 S
C338   H347    1.077   .     S
C338   C814    1.391   1_554 S
C338   C797    1.417   1_554 S
Cu339  O352    1.978   .     S
Cu339  O354    1.951   .     S
Cu339  Cu340   2.701   .     S
Cu339  O358    1.936   .     S
Cu339  N351    2.030   .     S
Cu339  O356    1.963   .     S
Cu340  O355    1.936   .     S
Cu340  O353    1.963   .     S
Cu340  N350    2.030   .     S
Cu340  O357    1.978   .     S
Cu340  O359    1.951   .     S
H342   N404    1.029   .     S
H344   C440    1.084   1_455 S
H348   C390    1.083   .     S
N350   N404    1.280   .     S
N350   C421    1.379   .     S
N351   N456    1.280   1_455 S
N351   H448    1.029   1_455 S
O360   C13     1.396   1_565 S
O360   C43     1.420   1_565 S
C361   H362    1.109   .     S
C361   H363    1.116   .     S
C361   C364    1.516   .     S
C364   H366    1.110   .     S
H365   C46     1.111   1_565 S
H367   C46     1.109   1_565 S
C368   N369    1.154   .     T
C368   N456    1.379   1_455 S
C370   N371    1.157   .     T
C372   C382    1.428   .     S
C372   O405    1.290   .     A
C372   O406    1.294   .     A
C373   C374    1.420   .     A
C373   C852    1.426   .     S
C373   C868    1.417   .     S
C374   C378    1.410   .     A
C374   C381    1.420   .     A
C375   C379    1.402   .     A
C375   C850    1.426   1_554 S
C375   C853    1.419   1_554 S
C376   C377    1.387   .     A
C376   C852    1.419   .     S
C376   C864    1.404   .     S
C377   C378    1.385   .     A
C377   H396    1.078   .     S
C378   H402    1.080   .     S
C379   C388    1.399   .     A
C379   H398    1.077   .     S
C380   C388    1.397   .     A
C380   C387    1.390   .     A
C380   H394    1.083   .     S
C381   C389    1.403   .     A
C381   C383    1.477   .     S
C382   C66     1.345   1_565 S
C382   C105    1.454   1_565 S
C383   O407    1.306   .     A
C383   O408    1.303   .     A
C384   C385    1.442   .     S
C385   O409    1.298   .     A
C385   O410    1.284   .     A
C386   O411    1.298   .     A
C386   O412    1.304   .     A
C386   C388    1.460   .     S
C387   C853    1.404   1_554 S
C387   H450    1.084   .     S
C389   H399    1.083   .     S
C389   C390    1.387   .     A
C390   C868    1.391   .     S
C391   H400    1.077   .     S
C391   C867    1.391   1_554 S
C391   C850    1.417   1_554 S
Cu392  O405    1.978   .     S
Cu392  O407    1.951   .     S
Cu392  Cu393   2.701   .     S
Cu392  O411    1.936   .     S
Cu392  N404    2.030   .     S
Cu392  O409    1.963   .     S
Cu393  O408    1.936   .     S
Cu393  O406    1.963   .     S
Cu393  N403    2.030   .     S
Cu393  O410    1.978   .     S
Cu393  O412    1.951   .     S
H395   N457    1.029   .     S
H401   C443    1.083   .     S
N403   N457    1.280   .     S
N403   C474    1.379   .     S
O413   C66     1.396   1_565 S
O413   C96     1.420   1_565 S
C414   H415    1.109   .     S
C414   H416    1.116   .     S
C414   C417    1.516   .     S
C417   H419    1.110   .     S
H418   C99     1.111   1_565 S
H420   C99     1.109   1_565 S
C421   N422    1.154   .     T
C423   N424    1.157   .     T
C425   C435    1.428   .     S
C425   O458    1.290   .     A
C425   O459    1.294   .     A
C426   C427    1.420   .     A
C426   C905    1.426   .     S
C426   C921    1.417   .     S
C427   C431    1.410   .     A
C427   C434    1.420   .     A
C428   C432    1.402   .     A
C428   C903    1.426   1_554 S
C428   C906    1.419   1_554 S
C429   C430    1.387   .     A
C429   C905    1.419   .     S
C429   C917    1.404   .     S
C430   C431    1.385   .     A
C430   H449    1.078   .     S
C431   H455    1.080   .     S
C432   C441    1.399   .     A
C432   H451    1.077   .     S
C433   C441    1.397   .     A
C433   C440    1.390   .     A
C433   H447    1.083   .     S
C434   C442    1.403   .     A
C434   C436    1.477   .     S
C435   C119    1.345   1_565 S
C435   C158    1.454   1_565 S
C436   O460    1.306   .     A
C436   O461    1.303   .     A
C437   C438    1.442   .     S
C438   O462    1.298   .     A
C438   O463    1.284   .     A
C439   O464    1.298   .     A
C439   O465    1.304   .     A
C439   C441    1.460   .     S
C440   C906    1.404   1_554 S
C440   H344    1.084   1_655 S
C442   H452    1.083   .     S
C442   C443    1.387   .     A
C443   C921    1.391   .     S
C444   H453    1.077   .     S
C444   C920    1.391   1_554 S
C444   C903    1.417   1_554 S
Cu445  O458    1.978   .     S
Cu445  O460    1.951   .     S
Cu445  Cu446   2.701   .     S
Cu445  O464    1.936   .     S
Cu445  N457    2.030   .     S
Cu445  O462    1.963   .     S
Cu446  O461    1.936   .     S
Cu446  O459    1.963   .     S
Cu446  N456    2.030   .     S
Cu446  O463    1.978   .     S
Cu446  O465    1.951   .     S
H448   N351    1.029   1_655 S
H454   C337    1.083   1_655 S
N456   N351    1.280   1_655 S
N456   C368    1.379   1_655 S
O466   C119    1.396   1_565 S
O466   C149    1.420   1_565 S
C467   H468    1.109   .     S
C467   H469    1.116   .     S
C467   C470    1.516   .     S
C470   H472    1.110   .     S
H471   C152    1.111   1_565 S
H473   C152    1.109   1_565 S
C474   N475    1.154   .     T
C476   N477    1.157   .     T
C478   C488    1.428   .     S
C478   O511    1.290   .     A
C478   O512    1.294   .     A
C479   C480    1.420   .     A
C479   C4      1.426   1_556 S
C479   C20     1.417   1_556 S
C480   C484    1.410   .     A
C480   C487    1.420   .     A
C481   C485    1.402   .     A
C482   C483    1.387   .     A
C482   C4      1.419   1_556 S
C482   C16     1.404   1_556 S
C483   C484    1.385   .     A
C483   H502    1.078   .     S
C484   H508    1.080   .     S
C485   C494    1.399   .     A
C485   H504    1.077   .     S
C486   C494    1.397   .     A
C486   C493    1.390   .     A
C486   H500    1.083   .     S
C487   C495    1.403   .     A
C487   C489    1.477   .     S
C488   C649    1.345   .     S
C488   C688    1.454   .     S
C489   O513    1.306   .     A
C489   O514    1.303   .     A
C490   C491    1.442   .     S
C490   C806    1.345   1_545 S
C490   O837    1.396   1_545 S
C491   O515    1.298   .     A
C491   O516    1.284   .     A
C492   O517    1.298   .     A
C492   O518    1.304   .     A
C492   C494    1.460   .     S
C493   H556    1.084   .     S
C495   H505    1.083   .     S
C495   C496    1.387   .     A
C496   C20     1.391   1_556 S
C496   H613    1.083   1_455 S
C497   H506    1.077   .     S
Cu498  O511    1.978   .     S
Cu498  O513    1.951   .     S
Cu498  Cu499   2.701   .     S
Cu498  O517    1.936   .     S
Cu498  N510    2.030   .     S
Cu498  O515    1.963   .     S
Cu499  O514    1.936   .     S
Cu499  O512    1.963   .     S
Cu499  N509    2.030   .     S
Cu499  O516    1.978   .     S
Cu499  O518    1.951   .     S
H501   N563    1.029   .     S
H503   C599    1.084   1_455 S
H507   C549    1.083   .     S
N509   N563    1.280   .     S
N509   C580    1.379   .     S
N510   N615    1.280   1_455 S
N510   H607    1.029   1_455 S
O519   C649    1.396   .     S
O519   C679    1.420   .     S
C520   H521    1.109   .     S
C520   H522    1.116   .     S
C520   C523    1.516   .     S
C520   O837    1.420   1_545 S
C523   H525    1.110   .     S
C523   H842    1.111   1_545 S
C523   H844    1.109   1_545 S
H524   C682    1.111   .     S
H526   C682    1.109   .     S
C527   N528    1.154   .     T
C527   N615    1.379   1_455 S
C529   N530    1.157   .     T
C529   C806    1.454   1_545 S
C531   C541    1.428   .     S
C531   O564    1.290   .     A
C531   O565    1.294   .     A
C532   C533    1.420   .     A
C532   C57     1.426   1_556 S
C532   C73     1.417   1_556 S
C533   C537    1.410   .     A
C533   C540    1.420   .     A
C534   C538    1.402   .     A
C535   C536    1.387   .     A
C535   C57     1.419   1_556 S
C535   C69     1.404   1_556 S
C536   C537    1.385   .     A
C536   H555    1.078   .     S
C537   H561    1.080   .     S
C538   C547    1.399   .     A
C538   H557    1.077   .     S
C539   C547    1.397   .     A
C539   C546    1.390   .     A
C539   H553    1.083   .     S
C540   C548    1.403   .     A
C540   C542    1.477   .     S
C541   C702    1.345   .     S
C541   C741    1.454   .     S
C542   O566    1.306   .     A
C542   O567    1.303   .     A
C543   C544    1.442   .     S
C543   C859    1.345   1_545 S
C543   O890    1.396   1_545 S
C544   O568    1.298   .     A
C544   O569    1.284   .     A
C545   O570    1.298   .     A
C545   O571    1.304   .     A
C545   C547    1.460   .     S
C546   H609    1.084   .     S
C548   H558    1.083   .     S
C548   C549    1.387   .     A
C549   C73     1.391   1_556 S
C550   H559    1.077   .     S
Cu551  O564    1.978   .     S
Cu551  O566    1.951   .     S
Cu551  Cu552   2.701   .     S
Cu551  O570    1.936   .     S
Cu551  N563    2.030   .     S
Cu551  O568    1.963   .     S
Cu552  O567    1.936   .     S
Cu552  O565    1.963   .     S
Cu552  N562    2.030   .     S
Cu552  O569    1.978   .     S
Cu552  O571    1.951   .     S
H554   N616    1.029   .     S
H560   C602    1.083   .     S
N562   N616    1.280   .     S
N562   C633    1.379   .     S
O572   C702    1.396   .     S
O572   C732    1.420   .     S
C573   H574    1.109   .     S
C573   H575    1.116   .     S
C573   C576    1.516   .     S
C573   O890    1.420   1_545 S
C576   H578    1.110   .     S
C576   H895    1.111   1_545 S
C576   H897    1.109   1_545 S
H577   C735    1.111   .     S
H579   C735    1.109   .     S
C580   N581    1.154   .     T
C582   N583    1.157   .     T
C582   C859    1.454   1_545 S
C584   C594    1.428   .     S
C584   O617    1.290   .     A
C584   O618    1.294   .     A
C585   C586    1.420   .     A
C585   C110    1.426   1_556 S
C585   C126    1.417   1_556 S
C586   C590    1.410   .     A
C586   C593    1.420   .     A
C587   C591    1.402   .     A
C588   C589    1.387   .     A
C588   C110    1.419   1_556 S
C588   C122    1.404   1_556 S
C589   C590    1.385   .     A
C589   H608    1.078   .     S
C590   H614    1.080   .     S
C591   C600    1.399   .     A
C591   H610    1.077   .     S
C592   C600    1.397   .     A
C592   C599    1.390   .     A
C592   H606    1.083   .     S
C593   C601    1.403   .     A
C593   C595    1.477   .     S
C594   C755    1.345   .     S
C594   C794    1.454   .     S
C595   O619    1.306   .     A
C595   O620    1.303   .     A
C596   C597    1.442   .     S
C596   C912    1.345   1_545 S
C596   O943    1.396   1_545 S
C597   O621    1.298   .     A
C597   O622    1.284   .     A
C598   O623    1.298   .     A
C598   O624    1.304   .     A
C598   C600    1.460   .     S
C599   H503    1.084   1_655 S
C601   H611    1.083   .     S
C601   C602    1.387   .     A
C602   C126    1.391   1_556 S
C603   H612    1.077   .     S
Cu604  O617    1.978   .     S
Cu604  O619    1.951   .     S
Cu604  Cu605   2.701   .     S
Cu604  O623    1.936   .     S
Cu604  N616    2.030   .     S
Cu604  O621    1.963   .     S
Cu605  O620    1.936   .     S
Cu605  O618    1.963   .     S
Cu605  N615    2.030   .     S
Cu605  O622    1.978   .     S
Cu605  O624    1.951   .     S
H607   N510    1.029   1_655 S
H613   C496    1.083   1_655 S
N615   N510    1.280   1_655 S
N615   C527    1.379   1_655 S
O625   C755    1.396   .     S
O625   C785    1.420   .     S
C626   H627    1.109   .     S
C626   H628    1.116   .     S
C626   C629    1.516   .     S
C626   O943    1.420   1_545 S
C629   H631    1.110   .     S
C629   H948    1.111   1_545 S
C629   H950    1.109   1_545 S
H630   C788    1.111   .     S
H632   C788    1.109   .     S
C633   N634    1.154   .     T
C635   N636    1.157   .     T
C635   C912    1.454   1_545 S
C637   C647    1.428   .     S
C637   O670    1.290   .     A
C637   O671    1.294   .     A
C638   C639    1.420   .     A
C638   C163    1.426   1_556 S
C638   C179    1.417   1_556 S
C639   C643    1.410   .     A
C639   C646    1.420   .     A
C640   C644    1.402   .     A
C641   C642    1.387   .     A
C641   C163    1.419   1_556 S
C641   C175    1.404   1_556 S
C642   C643    1.385   .     A
C642   H661    1.078   .     S
C643   H667    1.080   .     S
C644   C653    1.399   .     A
C644   H663    1.077   .     S
C645   C653    1.397   .     A
C645   C652    1.390   .     A
C645   H659    1.083   .     S
C646   C654    1.403   .     A
C646   C648    1.477   .     S
C647   C808    1.345   .     S
C647   C847    1.454   .     S
C648   O672    1.306   .     A
C648   O673    1.303   .     A
C649   C650    1.442   .     S
C650   O674    1.298   .     A
C650   O675    1.284   .     A
C651   O676    1.298   .     A
C651   O677    1.304   .     A
C651   C653    1.460   .     S
C652   H715    1.084   .     S
C654   H664    1.083   .     S
C654   C655    1.387   .     A
C655   C179    1.391   1_556 S
C655   H772    1.083   1_455 S
C656   H665    1.077   .     S
Cu657  O670    1.978   .     S
Cu657  O672    1.951   .     S
Cu657  Cu658   2.701   .     S
Cu657  O676    1.936   .     S
Cu657  N669    2.030   .     S
Cu657  O674    1.963   .     S
Cu658  O673    1.936   .     S
Cu658  O671    1.963   .     S
Cu658  N668    2.030   .     S
Cu658  O675    1.978   .     S
Cu658  O677    1.951   .     S
H660   N722    1.029   .     S
H662   C758    1.084   1_455 S
H666   C708    1.083   .     S
N668   N722    1.280   .     S
N668   C739    1.379   .     S
N669   N774    1.280   1_455 S
N669   H766    1.029   1_455 S
O678   C808    1.396   .     S
O678   C838    1.420   .     S
C679   H680    1.109   .     S
C679   H681    1.116   .     S
C679   C682    1.516   .     S
C682   H684    1.110   .     S
H683   C841    1.111   .     S
H685   C841    1.109   .     S
C686   N687    1.154   .     T
C686   N774    1.379   1_455 S
C688   N689    1.157   .     T
C690   C700    1.428   .     S
C690   O723    1.290   .     A
C690   O724    1.294   .     A
C691   C692    1.420   .     A
C691   C216    1.426   1_556 S
C691   C232    1.417   1_556 S
C692   C696    1.410   .     A
C692   C699    1.420   .     A
C693   C697    1.402   .     A
C694   C695    1.387   .     A
C694   C216    1.419   1_556 S
C694   C228    1.404   1_556 S
C695   C696    1.385   .     A
C695   H714    1.078   .     S
C696   H720    1.080   .     S
C697   C706    1.399   .     A
C697   H716    1.077   .     S
C698   C706    1.397   .     A
C698   C705    1.390   .     A
C698   H712    1.083   .     S
C699   C707    1.403   .     A
C699   C701    1.477   .     S
C700   C861    1.345   .     S
C700   C900    1.454   .     S
C701   O725    1.306   .     A
C701   O726    1.303   .     A
C702   C703    1.442   .     S
C703   O727    1.298   .     A
C703   O728    1.284   .     A
C704   O729    1.298   .     A
C704   O730    1.304   .     A
C704   C706    1.460   .     S
C705   H768    1.084   .     S
C707   H717    1.083   .     S
C707   C708    1.387   .     A
C708   C232    1.391   1_556 S
C709   H718    1.077   .     S
Cu710  O723    1.978   .     S
Cu710  O725    1.951   .     S
Cu710  Cu711   2.701   .     S
Cu710  O729    1.936   .     S
Cu710  N722    2.030   .     S
Cu710  O727    1.963   .     S
Cu711  O726    1.936   .     S
Cu711  O724    1.963   .     S
Cu711  N721    2.030   .     S
Cu711  O728    1.978   .     S
Cu711  O730    1.951   .     S
H713   N775    1.029   .     S
H719   C761    1.083   .     S
N721   N775    1.280   .     S
N721   C792    1.379   .     S
O731   C861    1.396   .     S
O731   C891    1.420   .     S
C732   H733    1.109   .     S
C732   H734    1.116   .     S
C732   C735    1.516   .     S
C735   H737    1.110   .     S
H736   C894    1.111   .     S
H738   C894    1.109   .     S
C739   N740    1.154   .     T
C741   N742    1.157   .     T
C743   C753    1.428   .     S
C743   O776    1.290   .     A
C743   O777    1.294   .     A
C744   C745    1.420   .     A
C744   C269    1.426   1_556 S
C744   C285    1.417   1_556 S
C745   C749    1.410   .     A
C745   C752    1.420   .     A
C746   C750    1.402   .     A
C747   C748    1.387   .     A
C747   C269    1.419   1_556 S
C747   C281    1.404   1_556 S
C748   C749    1.385   .     A
C748   H767    1.078   .     S
C749   H773    1.080   .     S
C750   C759    1.399   .     A
C750   H769    1.077   .     S
C751   C759    1.397   .     A
C751   C758    1.390   .     A
C751   H765    1.083   .     S
C752   C760    1.403   .     A
C752   C754    1.477   .     S
C753   C914    1.345   .     S
C753   C953    1.454   .     S
C754   O778    1.306   .     A
C754   O779    1.303   .     A
C755   C756    1.442   .     S
C756   O780    1.298   .     A
C756   O781    1.284   .     A
C757   O782    1.298   .     A
C757   O783    1.304   .     A
C757   C759    1.460   .     S
C758   H662    1.084   1_655 S
C760   H770    1.083   .     S
C760   C761    1.387   .     A
C761   C285    1.391   1_556 S
C762   H771    1.077   .     S
Cu763  O776    1.978   .     S
Cu763  O778    1.951   .     S
Cu763  Cu764   2.701   .     S
Cu763  O782    1.936   .     S
Cu763  N775    2.030   .     S
Cu763  O780    1.963   .     S
Cu764  O779    1.936   .     S
Cu764  O777    1.963   .     S
Cu764  N774    2.030   .     S
Cu764  O781    1.978   .     S
Cu764  O783    1.951   .     S
H766   N669    1.029   1_655 S
H772   C655    1.083   1_655 S
N774   N669    1.280   1_655 S
N774   C686    1.379   1_655 S
O784   C914    1.396   .     S
O784   C944    1.420   .     S
C785   H786    1.109   .     S
C785   H787    1.116   .     S
C785   C788    1.516   .     S
C788   H790    1.110   .     S
H789   C947    1.111   .     S
H791   C947    1.109   .     S
C792   N793    1.154   .     T
C794   N795    1.157   .     T
C796   C806    1.428   .     S
C796   O829    1.290   .     A
C796   O830    1.294   .     A
C797   C798    1.420   .     A
C797   C322    1.426   1_556 S
C797   C338    1.417   1_556 S
C798   C802    1.410   .     A
C798   C805    1.420   .     A
C799   C803    1.402   .     A
C800   C801    1.387   .     A
C800   C322    1.419   1_556 S
C800   C334    1.404   1_556 S
C801   C802    1.385   .     A
C801   H820    1.078   .     S
C802   H826    1.080   .     S
C803   C812    1.399   .     A
C803   H822    1.077   .     S
C804   C812    1.397   .     A
C804   C811    1.390   .     A
C804   H818    1.083   .     S
C805   C813    1.403   .     A
C805   C807    1.477   .     S
C806   C490    1.345   1_565 S
C806   C529    1.454   1_565 S
C807   O831    1.306   .     A
C807   O832    1.303   .     A
C808   C809    1.442   .     S
C809   O833    1.298   .     A
C809   O834    1.284   .     A
C810   O835    1.298   .     A
C810   O836    1.304   .     A
C810   C812    1.460   .     S
C811   H874    1.084   .     S
C813   H823    1.083   .     S
C813   C814    1.387   .     A
C814   C338    1.391   1_556 S
C814   H931    1.083   1_455 S
C815   H824    1.077   .     S
Cu816  O829    1.978   .     S
Cu816  O831    1.951   .     S
Cu816  Cu817   2.701   .     S
Cu816  O835    1.936   .     S
Cu816  N828    2.030   .     S
Cu816  O833    1.963   .     S
Cu817  O832    1.936   .     S
Cu817  O830    1.963   .     S
Cu817  N827    2.030   .     S
Cu817  O834    1.978   .     S
Cu817  O836    1.951   .     S
H819   N881    1.029   .     S
H821   C917    1.084   1_455 S
H825   C867    1.083   .     S
N827   N881    1.280   .     S
N827   C898    1.379   .     S
N828   N933    1.280   1_455 S
N828   H925    1.029   1_455 S
O837   C490    1.396   1_565 S
O837   C520    1.420   1_565 S
C838   H839    1.109   .     S
C838   H840    1.116   .     S
C838   C841    1.516   .     S
C841   H843    1.110   .     S
H842   C523    1.111   1_565 S
H844   C523    1.109   1_565 S
C845   N846    1.154   .     T
C845   N933    1.379   1_455 S
C847   N848    1.157   .     T
C849   C859    1.428   .     S
C849   O882    1.290   .     A
C849   O883    1.294   .     A
C850   C851    1.420   .     A
C850   C375    1.426   1_556 S
C850   C391    1.417   1_556 S
C851   C855    1.410   .     A
C851   C858    1.420   .     A
C852   C856    1.402   .     A
C853   C854    1.387   .     A
C853   C375    1.419   1_556 S
C853   C387    1.404   1_556 S
C854   C855    1.385   .     A
C854   H873    1.078   .     S
C855   H879    1.080   .     S
C856   C865    1.399   .     A
C856   H875    1.077   .     S
C857   C865    1.397   .     A
C857   C864    1.390   .     A
C857   H871    1.083   .     S
C858   C866    1.403   .     A
C858   C860    1.477   .     S
C859   C543    1.345   1_565 S
C859   C582    1.454   1_565 S
C860   O884    1.306   .     A
C860   O885    1.303   .     A
C861   C862    1.442   .     S
C862   O886    1.298   .     A
C862   O887    1.284   .     A
C863   O888    1.298   .     A
C863   O889    1.304   .     A
C863   C865    1.460   .     S
C864   H927    1.084   .     S
C866   H876    1.083   .     S
C866   C867    1.387   .     A
C867   C391    1.391   1_556 S
C868   H877    1.077   .     S
Cu869  O882    1.978   .     S
Cu869  O884    1.951   .     S
Cu869  Cu870   2.701   .     S
Cu869  O888    1.936   .     S
Cu869  N881    2.030   .     S
Cu869  O886    1.963   .     S
Cu870  O885    1.936   .     S
Cu870  O883    1.963   .     S
Cu870  N880    2.030   .     S
Cu870  O887    1.978   .     S
Cu870  O889    1.951   .     S
H872   N934    1.029   .     S
H878   C920    1.083   .     S
N880   N934    1.280   .     S
N880   C951    1.379   .     S
O890   C543    1.396   1_565 S
O890   C573    1.420   1_565 S
C891   H892    1.109   .     S
C891   H893    1.116   .     S
C891   C894    1.516   .     S
C894   H896    1.110   .     S
H895   C576    1.111   1_565 S
H897   C576    1.109   1_565 S
C898   N899    1.154   .     T
C900   N901    1.157   .     T
C902   C912    1.428   .     S
C902   O935    1.290   .     A
C902   O936    1.294   .     A
C903   C904    1.420   .     A
C903   C428    1.426   1_556 S
C903   C444    1.417   1_556 S
C904   C908    1.410   .     A
C904   C911    1.420   .     A
C905   C909    1.402   .     A
C906   C907    1.387   .     A
C906   C428    1.419   1_556 S
C906   C440    1.404   1_556 S
C907   C908    1.385   .     A
C907   H926    1.078   .     S
C908   H932    1.080   .     S
C909   C918    1.399   .     A
C909   H928    1.077   .     S
C910   C918    1.397   .     A
C910   C917    1.390   .     A
C910   H924    1.083   .     S
C911   C919    1.403   .     A
C911   C913    1.477   .     S
C912   C596    1.345   1_565 S
C912   C635    1.454   1_565 S
C913   O937    1.306   .     A
C913   O938    1.303   .     A
C914   C915    1.442   .     S
C915   O939    1.298   .     A
C915   O940    1.284   .     A
C916   O941    1.298   .     A
C916   O942    1.304   .     A
C916   C918    1.460   .     S
C917   H821    1.084   1_655 S
C919   H929    1.083   .     S
C919   C920    1.387   .     A
C920   C444    1.391   1_556 S
C921   H930    1.077   .     S
Cu922  O935    1.978   .     S
Cu922  O937    1.951   .     S
Cu922  Cu923   2.701   .     S
Cu922  O941    1.936   .     S
Cu922  N934    2.030   .     S
Cu922  O939    1.963   .     S
Cu923  O938    1.936   .     S
Cu923  O936    1.963   .     S
Cu923  N933    2.030   .     S
Cu923  O940    1.978   .     S
Cu923  O942    1.951   .     S
H925   N828    1.029   1_655 S
H931   C814    1.083   1_655 S
N933   N828    1.280   1_655 S
N933   C845    1.379   1_655 S
O943   C596    1.396   1_565 S
O943   C626    1.420   1_565 S
C944   H945    1.109   .     S
C944   H946    1.116   .     S
C944   C947    1.516   .     S
C947   H949    1.110   .     S
H948   C629    1.111   1_565 S
H950   C629    1.109   1_565 S
C951   N952    1.154   .     T
C953   N954    1.157   .     T
