data_str_m2_o1_o18_pcu_sym.181
_audit_creation_date              2020-01-03
_audit_creation_method            'Materials Studio'
_symmetry_space_group_name_H-M    'P1'
_symmetry_Int_Tables_number       1
_symmetry_cell_setting            triclinic
loop_
_symmetry_equiv_pos_as_xyz
  x,y,z
_cell_length_a                    28.7634
_cell_length_b                    32.4418
_cell_length_c                    31.0308
_cell_angle_alpha                 87.7438
_cell_angle_beta                  74.7303
_cell_angle_gamma                 88.8224
loop_
_atom_site_label
_atom_site_type_symbol
_atom_site_fract_x
_atom_site_fract_y
_atom_site_fract_z
_atom_site_U_iso_or_equiv
_atom_site_adp_type
_atom_site_occupancy
C1     C     0.00022   0.08743   0.25017   0.00000  Uiso   1.00
C2     C     0.33311   0.24591   0.24983   0.00000  Uiso   1.00
C3     C     0.19107   0.14267   0.04517   0.00000  Uiso   1.00
C4     C     0.14226   0.19066   0.45483   0.00000  Uiso   1.00
C5     C     0.23933   0.13758   0.02318   0.00000  Uiso   1.00
C6     C     0.09401   0.19575   0.47681   0.00000  Uiso   1.00
C7     C     0.28968   0.02179   0.26063   0.00000  Uiso   1.00
C8     C     0.04365   0.31154   0.23937   0.00000  Uiso   1.00
C9     C     0.28939   0.31250   0.26035   0.00000  Uiso   1.00
C10    C     0.04394   0.02084   0.23965   0.00000  Uiso   1.00
C11    C     0.33303   0.29057   0.24968   0.00000  Uiso   1.00
C12    C     0.00030   0.04277   0.25032   0.00000  Uiso   1.00
C13    C     0.18637   0.13638   0.27226   0.00000  Uiso   1.00
C14    C     0.14697   0.19695   0.22774   0.00000  Uiso   1.00
C15    C     0.13724   0.13602   0.27228   0.00000  Uiso   1.00
C16    C     0.19610   0.19731   0.22772   0.00000  Uiso   1.00
C17    C     0.30627   0.16666   0.33621   0.00000  Uiso   1.00
C18    C     0.02707   0.16667   0.16379   0.00000  Uiso   1.00
C19    C     0.29146   0.16470   0.38581   0.00000  Uiso   1.00
C20    C     0.04187   0.16863   0.11419   0.00000  Uiso   1.00
C21    C     0.30573   0.14587   0.45770   0.00000  Uiso   1.00
C22    C     0.02760   0.18746   0.04230   0.00000  Uiso   1.00
C23    C     0.32372   0.15507   0.41223   0.00000  Uiso   1.00
C24    C     0.00961   0.17826   0.08777   0.00000  Uiso   1.00
C25    C     0.24234   0.17033   0.40726   0.00000  Uiso   1.00
C26    C     0.09099   0.16300   0.09274   0.00000  Uiso   1.00
C27    C     0.22428   0.16462   0.45392   0.00000  Uiso   1.00
C28    C     0.10905   0.16872   0.04608   0.00000  Uiso   1.00
C29    C     0.25648   0.14948   0.47837   0.00000  Uiso   1.00
C30    C     0.07685   0.18386   0.02163   0.00000  Uiso   1.00
C31    C     0.17504   0.17204   0.47673   0.00000  Uiso   1.00
C32    C     0.15830   0.16130   0.02327   0.00000  Uiso   1.00
Cu33   Cu    0.04689   0.16667   0.25000   0.00000  Uiso   1.00
Cu34   Cu    0.28645   0.16666   0.25000   0.00000  Uiso   1.00
H35    H     0.26343   0.12356   0.04127   0.00000  Uiso   1.00
H36    H     0.06991   0.20977   0.45873   0.00000  Uiso   1.00
H37    H     0.11489   0.15548   0.11342   0.00000  Uiso   1.00
H38    H     0.21844   0.17785   0.38658   0.00000  Uiso   1.00
H39    H     0.33053   0.13596   0.47709   0.00000  Uiso   1.00
H40    H     0.00281   0.19737   0.02291   0.00000  Uiso   1.00
H41    H     0.18059   0.13121   0.07936   0.00000  Uiso   1.00
H42    H     0.15274   0.20213   0.42064   0.00000  Uiso   1.00
H43    H     0.25551   0.03824   0.26923   0.00000  Uiso   1.00
H44    H     0.07782   0.29509   0.23077   0.00000  Uiso   1.00
H45    H     0.25514   0.29678   0.26894   0.00000  Uiso   1.00
H46    H     0.07819   0.03655   0.23106   0.00000  Uiso   1.00
H47    H     0.20078   0.11221   0.29020   0.00000  Uiso   1.00
H48    H     0.13255   0.22112   0.20980   0.00000  Uiso   1.00
N49    N     0.11736   0.16668   0.24999   0.00000  Uiso   1.00
N50    N     0.21597   0.16666   0.25001   0.00000  Uiso   1.00
O51    O     0.03958   0.10655   0.25000   0.00000  Uiso   1.00
O52    O     0.29375   0.22678   0.25000   0.00000  Uiso   1.00
O53    O     0.29372   0.10654   0.25000   0.00000  Uiso   1.00
O54    O     0.03961   0.22679   0.24999   0.00000  Uiso   1.00
O55    O     0.01852   0.16668   0.31491   0.00000  Uiso   1.00
O56    O     0.31481   0.16666   0.18508   0.00000  Uiso   1.00
O57    O     0.27267   0.16667   0.31492   0.00000  Uiso   1.00
O58    O     0.06067   0.16667   0.18508   0.00000  Uiso   1.00
Br59   Br    0.27422   0.17927   0.10992   0.00000  Uiso   1.00
Br60   Br    0.05912   0.15407   0.39008   0.00000  Uiso   1.00
Br61   Br    0.10205   0.09008   0.30469   0.00000  Uiso   1.00
Br62   Br    0.23128   0.24325   0.19531   0.00000  Uiso   1.00
C63    C     0.33356   0.08743   0.25017   0.00000  Uiso   1.00
C64    C     0.66644   0.24591   0.24983   0.00000  Uiso   1.00
C65    C     0.52441   0.14267   0.04517   0.00000  Uiso   1.00
C66    C     0.47559   0.19066   0.45483   0.00000  Uiso   1.00
C67    C     0.57266   0.13758   0.02318   0.00000  Uiso   1.00
C68    C     0.42734   0.19575   0.47681   0.00000  Uiso   1.00
C69    C     0.62301   0.02179   0.26063   0.00000  Uiso   1.00
C70    C     0.37699   0.31154   0.23937   0.00000  Uiso   1.00
C71    C     0.62272   0.31250   0.26035   0.00000  Uiso   1.00
C72    C     0.37728   0.02084   0.23965   0.00000  Uiso   1.00
C73    C     0.66636   0.29057   0.24968   0.00000  Uiso   1.00
C74    C     0.33364   0.04277   0.25032   0.00000  Uiso   1.00
C75    C     0.51970   0.13638   0.27226   0.00000  Uiso   1.00
C76    C     0.48030   0.19695   0.22774   0.00000  Uiso   1.00
C77    C     0.47057   0.13602   0.27228   0.00000  Uiso   1.00
C78    C     0.52943   0.19731   0.22772   0.00000  Uiso   1.00
C79    C     0.63960   0.16666   0.33621   0.00000  Uiso   1.00
C80    C     0.36040   0.16667   0.16379   0.00000  Uiso   1.00
C81    C     0.62479   0.16470   0.38581   0.00000  Uiso   1.00
C82    C     0.37521   0.16863   0.11419   0.00000  Uiso   1.00
C83    C     0.63906   0.14587   0.45770   0.00000  Uiso   1.00
C84    C     0.36094   0.18746   0.04230   0.00000  Uiso   1.00
C85    C     0.65706   0.15507   0.41223   0.00000  Uiso   1.00
C86    C     0.34294   0.17826   0.08777   0.00000  Uiso   1.00
C87    C     0.57568   0.17033   0.40726   0.00000  Uiso   1.00
C88    C     0.42432   0.16300   0.09274   0.00000  Uiso   1.00
C89    C     0.55762   0.16462   0.45392   0.00000  Uiso   1.00
C90    C     0.44238   0.16872   0.04608   0.00000  Uiso   1.00
C91    C     0.58981   0.14948   0.47837   0.00000  Uiso   1.00
C92    C     0.41019   0.18386   0.02163   0.00000  Uiso   1.00
C93    C     0.50837   0.17204   0.47673   0.00000  Uiso   1.00
C94    C     0.49163   0.16130   0.02327   0.00000  Uiso   1.00
Cu95   Cu    0.38022   0.16667   0.25000   0.00000  Uiso   1.00
Cu96   Cu    0.61978   0.16666   0.25000   0.00000  Uiso   1.00
H97    H     0.59676   0.12356   0.04127   0.00000  Uiso   1.00
H98    H     0.40324   0.20977   0.45873   0.00000  Uiso   1.00
H99    H     0.44822   0.15548   0.11342   0.00000  Uiso   1.00
H100   H     0.55178   0.17785   0.38658   0.00000  Uiso   1.00
H101   H     0.66386   0.13596   0.47709   0.00000  Uiso   1.00
H102   H     0.33614   0.19737   0.02291   0.00000  Uiso   1.00
H103   H     0.51393   0.13121   0.07936   0.00000  Uiso   1.00
H104   H     0.48607   0.20213   0.42064   0.00000  Uiso   1.00
H105   H     0.58884   0.03824   0.26923   0.00000  Uiso   1.00
H106   H     0.41116   0.29509   0.23077   0.00000  Uiso   1.00
H107   H     0.58848   0.29678   0.26894   0.00000  Uiso   1.00
H108   H     0.41152   0.03655   0.23106   0.00000  Uiso   1.00
H109   H     0.53412   0.11221   0.29020   0.00000  Uiso   1.00
H110   H     0.46588   0.22112   0.20980   0.00000  Uiso   1.00
N111   N     0.45069   0.16668   0.24999   0.00000  Uiso   1.00
N112   N     0.54931   0.16666   0.25001   0.00000  Uiso   1.00
O113   O     0.37291   0.10655   0.25000   0.00000  Uiso   1.00
O114   O     0.62709   0.22678   0.25000   0.00000  Uiso   1.00
O115   O     0.62706   0.10654   0.25000   0.00000  Uiso   1.00
O116   O     0.37294   0.22679   0.24999   0.00000  Uiso   1.00
O117   O     0.35186   0.16668   0.31491   0.00000  Uiso   1.00
O118   O     0.64814   0.16666   0.18508   0.00000  Uiso   1.00
O119   O     0.60600   0.16667   0.31492   0.00000  Uiso   1.00
O120   O     0.39400   0.16667   0.18508   0.00000  Uiso   1.00
Br121  Br    0.60755   0.17927   0.10992   0.00000  Uiso   1.00
Br122  Br    0.39245   0.15407   0.39008   0.00000  Uiso   1.00
Br123  Br    0.43538   0.09008   0.30469   0.00000  Uiso   1.00
Br124  Br    0.56462   0.24325   0.19531   0.00000  Uiso   1.00
C125   C     0.66689   0.08743   0.25017   0.00000  Uiso   1.00
C126   C     0.99978   0.24591   0.24983   0.00000  Uiso   1.00
C127   C     0.85774   0.14267   0.04517   0.00000  Uiso   1.00
C128   C     0.80893   0.19066   0.45483   0.00000  Uiso   1.00
C129   C     0.90600   0.13758   0.02318   0.00000  Uiso   1.00
C130   C     0.76067   0.19575   0.47681   0.00000  Uiso   1.00
C131   C     0.95635   0.02179   0.26063   0.00000  Uiso   1.00
C132   C     0.71032   0.31154   0.23937   0.00000  Uiso   1.00
C133   C     0.95606   0.31250   0.26035   0.00000  Uiso   1.00
C134   C     0.71061   0.02084   0.23965   0.00000  Uiso   1.00
C135   C     0.99970   0.29057   0.24968   0.00000  Uiso   1.00
C136   C     0.66697   0.04277   0.25032   0.00000  Uiso   1.00
C137   C     0.85303   0.13638   0.27226   0.00000  Uiso   1.00
C138   C     0.81363   0.19695   0.22774   0.00000  Uiso   1.00
C139   C     0.80390   0.13602   0.27228   0.00000  Uiso   1.00
C140   C     0.86276   0.19731   0.22772   0.00000  Uiso   1.00
C141   C     0.97293   0.16666   0.33621   0.00000  Uiso   1.00
C142   C     0.69373   0.16667   0.16379   0.00000  Uiso   1.00
C143   C     0.95813   0.16470   0.38581   0.00000  Uiso   1.00
C144   C     0.70854   0.16863   0.11419   0.00000  Uiso   1.00
C145   C     0.97240   0.14587   0.45770   0.00000  Uiso   1.00
C146   C     0.69427   0.18746   0.04230   0.00000  Uiso   1.00
C147   C     0.99039   0.15507   0.41223   0.00000  Uiso   1.00
C148   C     0.67628   0.17826   0.08777   0.00000  Uiso   1.00
C149   C     0.90901   0.17033   0.40726   0.00000  Uiso   1.00
C150   C     0.75766   0.16300   0.09274   0.00000  Uiso   1.00
C151   C     0.89095   0.16462   0.45392   0.00000  Uiso   1.00
C152   C     0.77572   0.16872   0.04608   0.00000  Uiso   1.00
C153   C     0.92315   0.14948   0.47837   0.00000  Uiso   1.00
C154   C     0.74352   0.18386   0.02163   0.00000  Uiso   1.00
C155   C     0.84170   0.17204   0.47673   0.00000  Uiso   1.00
C156   C     0.82496   0.16130   0.02327   0.00000  Uiso   1.00
Cu157  Cu    0.71355   0.16667   0.25000   0.00000  Uiso   1.00
Cu158  Cu    0.95311   0.16666   0.25000   0.00000  Uiso   1.00
H159   H     0.93009   0.12356   0.04127   0.00000  Uiso   1.00
H160   H     0.73657   0.20977   0.45873   0.00000  Uiso   1.00
H161   H     0.78156   0.15548   0.11342   0.00000  Uiso   1.00
H162   H     0.88511   0.17785   0.38658   0.00000  Uiso   1.00
H163   H     0.99719   0.13596   0.47709   0.00000  Uiso   1.00
H164   H     0.66947   0.19737   0.02291   0.00000  Uiso   1.00
H165   H     0.84726   0.13121   0.07936   0.00000  Uiso   1.00
H166   H     0.81941   0.20213   0.42064   0.00000  Uiso   1.00
H167   H     0.92218   0.03824   0.26923   0.00000  Uiso   1.00
H168   H     0.74449   0.29509   0.23077   0.00000  Uiso   1.00
H169   H     0.92181   0.29678   0.26894   0.00000  Uiso   1.00
H170   H     0.74486   0.03655   0.23106   0.00000  Uiso   1.00
H171   H     0.86745   0.11221   0.29020   0.00000  Uiso   1.00
H172   H     0.79922   0.22112   0.20980   0.00000  Uiso   1.00
N173   N     0.78403   0.16668   0.24999   0.00000  Uiso   1.00
N174   N     0.88264   0.16666   0.25001   0.00000  Uiso   1.00
O175   O     0.70625   0.10655   0.25000   0.00000  Uiso   1.00
O176   O     0.96042   0.22678   0.25000   0.00000  Uiso   1.00
O177   O     0.96039   0.10654   0.25000   0.00000  Uiso   1.00
O178   O     0.70628   0.22679   0.24999   0.00000  Uiso   1.00
O179   O     0.68519   0.16668   0.31491   0.00000  Uiso   1.00
O180   O     0.98148   0.16666   0.18508   0.00000  Uiso   1.00
O181   O     0.93933   0.16667   0.31492   0.00000  Uiso   1.00
O182   O     0.72733   0.16667   0.18508   0.00000  Uiso   1.00
Br183  Br    0.94089   0.17927   0.10992   0.00000  Uiso   1.00
Br184  Br    0.72578   0.15407   0.39008   0.00000  Uiso   1.00
Br185  Br    0.76872   0.09008   0.30469   0.00000  Uiso   1.00
Br186  Br    0.89795   0.24325   0.19531   0.00000  Uiso   1.00
C187   C     0.00022   0.42076   0.25017   0.00000  Uiso   1.00
C188   C     0.33311   0.57924   0.24983   0.00000  Uiso   1.00
C189   C     0.19107   0.47601   0.04517   0.00000  Uiso   1.00
C190   C     0.14226   0.52399   0.45483   0.00000  Uiso   1.00
C191   C     0.23933   0.47091   0.02318   0.00000  Uiso   1.00
C192   C     0.09401   0.52909   0.47681   0.00000  Uiso   1.00
C193   C     0.28968   0.35512   0.26063   0.00000  Uiso   1.00
C194   C     0.04365   0.64488   0.23937   0.00000  Uiso   1.00
C195   C     0.28939   0.64583   0.26035   0.00000  Uiso   1.00
C196   C     0.04394   0.35417   0.23965   0.00000  Uiso   1.00
C197   C     0.33303   0.62390   0.24968   0.00000  Uiso   1.00
C198   C     0.00030   0.37610   0.25032   0.00000  Uiso   1.00
C199   C     0.18637   0.46971   0.27226   0.00000  Uiso   1.00
C200   C     0.14697   0.53029   0.22774   0.00000  Uiso   1.00
C201   C     0.13724   0.46935   0.27228   0.00000  Uiso   1.00
C202   C     0.19610   0.53065   0.22772   0.00000  Uiso   1.00
C203   C     0.30627   0.49999   0.33621   0.00000  Uiso   1.00
C204   C     0.02707   0.50001   0.16379   0.00000  Uiso   1.00
C205   C     0.29146   0.49804   0.38581   0.00000  Uiso   1.00
C206   C     0.04187   0.50196   0.11419   0.00000  Uiso   1.00
C207   C     0.30573   0.47920   0.45770   0.00000  Uiso   1.00
C208   C     0.02760   0.52080   0.04230   0.00000  Uiso   1.00
C209   C     0.32372   0.48840   0.41223   0.00000  Uiso   1.00
C210   C     0.00961   0.51160   0.08777   0.00000  Uiso   1.00
C211   C     0.24234   0.50367   0.40726   0.00000  Uiso   1.00
C212   C     0.09099   0.49633   0.09274   0.00000  Uiso   1.00
C213   C     0.22428   0.49795   0.45392   0.00000  Uiso   1.00
C214   C     0.10905   0.50205   0.04608   0.00000  Uiso   1.00
C215   C     0.25648   0.48281   0.47837   0.00000  Uiso   1.00
C216   C     0.07685   0.51719   0.02163   0.00000  Uiso   1.00
C217   C     0.17504   0.50537   0.47673   0.00000  Uiso   1.00
C218   C     0.15830   0.49463   0.02327   0.00000  Uiso   1.00
Cu219  Cu    0.04689   0.50001   0.25000   0.00000  Uiso   1.00
Cu220  Cu    0.28645   0.49999   0.25000   0.00000  Uiso   1.00
H221   H     0.26343   0.45689   0.04127   0.00000  Uiso   1.00
H222   H     0.06991   0.54310   0.45873   0.00000  Uiso   1.00
H223   H     0.11489   0.48881   0.11342   0.00000  Uiso   1.00
H224   H     0.21844   0.51118   0.38658   0.00000  Uiso   1.00
H225   H     0.33053   0.46929   0.47709   0.00000  Uiso   1.00
H226   H     0.00281   0.53071   0.02291   0.00000  Uiso   1.00
H227   H     0.18059   0.46454   0.07936   0.00000  Uiso   1.00
H228   H     0.15274   0.53546   0.42064   0.00000  Uiso   1.00
H229   H     0.25551   0.37158   0.26923   0.00000  Uiso   1.00
H230   H     0.07782   0.62842   0.23077   0.00000  Uiso   1.00
H231   H     0.25514   0.63012   0.26894   0.00000  Uiso   1.00
H232   H     0.07819   0.36988   0.23106   0.00000  Uiso   1.00
H233   H     0.20078   0.44554   0.29020   0.00000  Uiso   1.00
H234   H     0.13255   0.55446   0.20980   0.00000  Uiso   1.00
N235   N     0.11736   0.50001   0.24999   0.00000  Uiso   1.00
N236   N     0.21597   0.49999   0.25001   0.00000  Uiso   1.00
O237   O     0.03958   0.43989   0.25000   0.00000  Uiso   1.00
O238   O     0.29375   0.56011   0.25000   0.00000  Uiso   1.00
O239   O     0.29372   0.43988   0.25000   0.00000  Uiso   1.00
O240   O     0.03961   0.56012   0.24999   0.00000  Uiso   1.00
O241   O     0.01852   0.50001   0.31491   0.00000  Uiso   1.00
O242   O     0.31481   0.49999   0.18508   0.00000  Uiso   1.00
O243   O     0.27267   0.50000   0.31492   0.00000  Uiso   1.00
O244   O     0.06067   0.50000   0.18508   0.00000  Uiso   1.00
Br245  Br    0.27422   0.51260   0.10992   0.00000  Uiso   1.00
Br246  Br    0.05912   0.48740   0.39008   0.00000  Uiso   1.00
Br247  Br    0.10205   0.42342   0.30469   0.00000  Uiso   1.00
Br248  Br    0.23128   0.57658   0.19531   0.00000  Uiso   1.00
C249   C     0.33356   0.42076   0.25017   0.00000  Uiso   1.00
C250   C     0.66644   0.57924   0.24983   0.00000  Uiso   1.00
C251   C     0.52441   0.47601   0.04517   0.00000  Uiso   1.00
C252   C     0.47559   0.52399   0.45483   0.00000  Uiso   1.00
C253   C     0.57266   0.47091   0.02318   0.00000  Uiso   1.00
C254   C     0.42734   0.52909   0.47681   0.00000  Uiso   1.00
C255   C     0.62301   0.35512   0.26063   0.00000  Uiso   1.00
C256   C     0.37699   0.64488   0.23937   0.00000  Uiso   1.00
C257   C     0.62272   0.64583   0.26035   0.00000  Uiso   1.00
C258   C     0.37728   0.35417   0.23965   0.00000  Uiso   1.00
C259   C     0.66636   0.62390   0.24968   0.00000  Uiso   1.00
C260   C     0.33364   0.37610   0.25032   0.00000  Uiso   1.00
C261   C     0.51970   0.46971   0.27226   0.00000  Uiso   1.00
C262   C     0.48030   0.53029   0.22774   0.00000  Uiso   1.00
C263   C     0.47057   0.46935   0.27228   0.00000  Uiso   1.00
C264   C     0.52943   0.53065   0.22772   0.00000  Uiso   1.00
C265   C     0.63960   0.49999   0.33621   0.00000  Uiso   1.00
C266   C     0.36040   0.50001   0.16379   0.00000  Uiso   1.00
C267   C     0.62479   0.49804   0.38581   0.00000  Uiso   1.00
C268   C     0.37521   0.50196   0.11419   0.00000  Uiso   1.00
C269   C     0.63906   0.47920   0.45770   0.00000  Uiso   1.00
C270   C     0.36094   0.52080   0.04230   0.00000  Uiso   1.00
C271   C     0.65706   0.48840   0.41223   0.00000  Uiso   1.00
C272   C     0.34294   0.51160   0.08777   0.00000  Uiso   1.00
C273   C     0.57568   0.50367   0.40726   0.00000  Uiso   1.00
C274   C     0.42432   0.49633   0.09274   0.00000  Uiso   1.00
C275   C     0.55762   0.49795   0.45392   0.00000  Uiso   1.00
C276   C     0.44238   0.50205   0.04608   0.00000  Uiso   1.00
C277   C     0.58981   0.48281   0.47837   0.00000  Uiso   1.00
C278   C     0.41019   0.51719   0.02163   0.00000  Uiso   1.00
C279   C     0.50837   0.50537   0.47673   0.00000  Uiso   1.00
C280   C     0.49163   0.49463   0.02327   0.00000  Uiso   1.00
Cu281  Cu    0.38022   0.50001   0.25000   0.00000  Uiso   1.00
Cu282  Cu    0.61978   0.49999   0.25000   0.00000  Uiso   1.00
H283   H     0.59676   0.45689   0.04127   0.00000  Uiso   1.00
H284   H     0.40324   0.54310   0.45873   0.00000  Uiso   1.00
H285   H     0.44822   0.48881   0.11342   0.00000  Uiso   1.00
H286   H     0.55178   0.51118   0.38658   0.00000  Uiso   1.00
H287   H     0.66386   0.46929   0.47709   0.00000  Uiso   1.00
H288   H     0.33614   0.53071   0.02291   0.00000  Uiso   1.00
H289   H     0.51393   0.46454   0.07936   0.00000  Uiso   1.00
H290   H     0.48607   0.53546   0.42064   0.00000  Uiso   1.00
H291   H     0.58884   0.37158   0.26923   0.00000  Uiso   1.00
H292   H     0.41116   0.62842   0.23077   0.00000  Uiso   1.00
H293   H     0.58848   0.63012   0.26894   0.00000  Uiso   1.00
H294   H     0.41152   0.36988   0.23106   0.00000  Uiso   1.00
H295   H     0.53412   0.44554   0.29020   0.00000  Uiso   1.00
H296   H     0.46588   0.55446   0.20980   0.00000  Uiso   1.00
N297   N     0.45069   0.50001   0.24999   0.00000  Uiso   1.00
N298   N     0.54931   0.49999   0.25001   0.00000  Uiso   1.00
O299   O     0.37291   0.43989   0.25000   0.00000  Uiso   1.00
O300   O     0.62709   0.56011   0.25000   0.00000  Uiso   1.00
O301   O     0.62706   0.43988   0.25000   0.00000  Uiso   1.00
O302   O     0.37294   0.56012   0.24999   0.00000  Uiso   1.00
O303   O     0.35186   0.50001   0.31491   0.00000  Uiso   1.00
O304   O     0.64814   0.49999   0.18508   0.00000  Uiso   1.00
O305   O     0.60600   0.50000   0.31492   0.00000  Uiso   1.00
O306   O     0.39400   0.50000   0.18508   0.00000  Uiso   1.00
Br307  Br    0.60755   0.51260   0.10992   0.00000  Uiso   1.00
Br308  Br    0.39245   0.48740   0.39008   0.00000  Uiso   1.00
Br309  Br    0.43538   0.42342   0.30469   0.00000  Uiso   1.00
Br310  Br    0.56462   0.57658   0.19531   0.00000  Uiso   1.00
C311   C     0.66689   0.42076   0.25017   0.00000  Uiso   1.00
C312   C     0.99978   0.57924   0.24983   0.00000  Uiso   1.00
C313   C     0.85774   0.47601   0.04517   0.00000  Uiso   1.00
C314   C     0.80893   0.52399   0.45483   0.00000  Uiso   1.00
C315   C     0.90600   0.47091   0.02318   0.00000  Uiso   1.00
C316   C     0.76067   0.52909   0.47681   0.00000  Uiso   1.00
C317   C     0.95635   0.35512   0.26063   0.00000  Uiso   1.00
C318   C     0.71032   0.64488   0.23937   0.00000  Uiso   1.00
C319   C     0.95606   0.64583   0.26035   0.00000  Uiso   1.00
C320   C     0.71061   0.35417   0.23965   0.00000  Uiso   1.00
C321   C     0.99970   0.62390   0.24968   0.00000  Uiso   1.00
C322   C     0.66697   0.37610   0.25032   0.00000  Uiso   1.00
C323   C     0.85303   0.46971   0.27226   0.00000  Uiso   1.00
C324   C     0.81363   0.53029   0.22774   0.00000  Uiso   1.00
C325   C     0.80390   0.46935   0.27228   0.00000  Uiso   1.00
C326   C     0.86276   0.53065   0.22772   0.00000  Uiso   1.00
C327   C     0.97293   0.49999   0.33621   0.00000  Uiso   1.00
C328   C     0.69373   0.50001   0.16379   0.00000  Uiso   1.00
C329   C     0.95813   0.49804   0.38581   0.00000  Uiso   1.00
C330   C     0.70854   0.50196   0.11419   0.00000  Uiso   1.00
C331   C     0.97240   0.47920   0.45770   0.00000  Uiso   1.00
C332   C     0.69427   0.52080   0.04230   0.00000  Uiso   1.00
C333   C     0.99039   0.48840   0.41223   0.00000  Uiso   1.00
C334   C     0.67628   0.51160   0.08777   0.00000  Uiso   1.00
C335   C     0.90901   0.50367   0.40726   0.00000  Uiso   1.00
C336   C     0.75766   0.49633   0.09274   0.00000  Uiso   1.00
C337   C     0.89095   0.49795   0.45392   0.00000  Uiso   1.00
C338   C     0.77572   0.50205   0.04608   0.00000  Uiso   1.00
C339   C     0.92315   0.48281   0.47837   0.00000  Uiso   1.00
C340   C     0.74352   0.51719   0.02163   0.00000  Uiso   1.00
C341   C     0.84170   0.50537   0.47673   0.00000  Uiso   1.00
C342   C     0.82496   0.49463   0.02327   0.00000  Uiso   1.00
Cu343  Cu    0.71355   0.50001   0.25000   0.00000  Uiso   1.00
Cu344  Cu    0.95311   0.49999   0.25000   0.00000  Uiso   1.00
H345   H     0.93009   0.45689   0.04127   0.00000  Uiso   1.00
H346   H     0.73657   0.54310   0.45873   0.00000  Uiso   1.00
H347   H     0.78156   0.48881   0.11342   0.00000  Uiso   1.00
H348   H     0.88511   0.51118   0.38658   0.00000  Uiso   1.00
H349   H     0.99719   0.46929   0.47709   0.00000  Uiso   1.00
H350   H     0.66947   0.53071   0.02291   0.00000  Uiso   1.00
H351   H     0.84726   0.46454   0.07936   0.00000  Uiso   1.00
H352   H     0.81941   0.53546   0.42064   0.00000  Uiso   1.00
H353   H     0.92218   0.37158   0.26923   0.00000  Uiso   1.00
H354   H     0.74449   0.62842   0.23077   0.00000  Uiso   1.00
H355   H     0.92181   0.63012   0.26894   0.00000  Uiso   1.00
H356   H     0.74486   0.36988   0.23106   0.00000  Uiso   1.00
H357   H     0.86745   0.44554   0.29020   0.00000  Uiso   1.00
H358   H     0.79922   0.55446   0.20980   0.00000  Uiso   1.00
N359   N     0.78403   0.50001   0.24999   0.00000  Uiso   1.00
N360   N     0.88264   0.49999   0.25001   0.00000  Uiso   1.00
O361   O     0.70625   0.43989   0.25000   0.00000  Uiso   1.00
O362   O     0.96042   0.56011   0.25000   0.00000  Uiso   1.00
O363   O     0.96039   0.43988   0.25000   0.00000  Uiso   1.00
O364   O     0.70628   0.56012   0.24999   0.00000  Uiso   1.00
O365   O     0.68519   0.50001   0.31491   0.00000  Uiso   1.00
O366   O     0.98148   0.49999   0.18508   0.00000  Uiso   1.00
O367   O     0.93933   0.50000   0.31492   0.00000  Uiso   1.00
O368   O     0.72733   0.50000   0.18508   0.00000  Uiso   1.00
Br369  Br    0.94089   0.51260   0.10992   0.00000  Uiso   1.00
Br370  Br    0.72578   0.48740   0.39008   0.00000  Uiso   1.00
Br371  Br    0.76872   0.42342   0.30469   0.00000  Uiso   1.00
Br372  Br    0.89795   0.57658   0.19531   0.00000  Uiso   1.00
C373   C     0.00022   0.75409   0.25017   0.00000  Uiso   1.00
C374   C     0.33311   0.91257   0.24983   0.00000  Uiso   1.00
C375   C     0.19107   0.80934   0.04517   0.00000  Uiso   1.00
C376   C     0.14226   0.85733   0.45483   0.00000  Uiso   1.00
C377   C     0.23933   0.80424   0.02318   0.00000  Uiso   1.00
C378   C     0.09401   0.86242   0.47681   0.00000  Uiso   1.00
C379   C     0.28968   0.68846   0.26063   0.00000  Uiso   1.00
C380   C     0.04365   0.97821   0.23937   0.00000  Uiso   1.00
C381   C     0.28939   0.97916   0.26035   0.00000  Uiso   1.00
C382   C     0.04394   0.68750   0.23965   0.00000  Uiso   1.00
C383   C     0.33303   0.95723   0.24968   0.00000  Uiso   1.00
C384   C     0.00030   0.70943   0.25032   0.00000  Uiso   1.00
C385   C     0.18637   0.80305   0.27226   0.00000  Uiso   1.00
C386   C     0.14697   0.86362   0.22774   0.00000  Uiso   1.00
C387   C     0.13724   0.80269   0.27228   0.00000  Uiso   1.00
C388   C     0.19610   0.86398   0.22772   0.00000  Uiso   1.00
C389   C     0.30627   0.83332   0.33621   0.00000  Uiso   1.00
C390   C     0.02707   0.83334   0.16379   0.00000  Uiso   1.00
C391   C     0.29146   0.83137   0.38581   0.00000  Uiso   1.00
C392   C     0.04187   0.83530   0.11419   0.00000  Uiso   1.00
C393   C     0.30573   0.81254   0.45770   0.00000  Uiso   1.00
C394   C     0.02760   0.85413   0.04230   0.00000  Uiso   1.00
C395   C     0.32372   0.82174   0.41223   0.00000  Uiso   1.00
C396   C     0.00961   0.84493   0.08777   0.00000  Uiso   1.00
C397   C     0.24234   0.83700   0.40726   0.00000  Uiso   1.00
C398   C     0.09099   0.82967   0.09274   0.00000  Uiso   1.00
C399   C     0.22428   0.83128   0.45392   0.00000  Uiso   1.00
C400   C     0.10905   0.83538   0.04608   0.00000  Uiso   1.00
C401   C     0.25648   0.81614   0.47837   0.00000  Uiso   1.00
C402   C     0.07685   0.85052   0.02163   0.00000  Uiso   1.00
C403   C     0.17504   0.83870   0.47673   0.00000  Uiso   1.00
C404   C     0.15830   0.82796   0.02327   0.00000  Uiso   1.00
Cu405  Cu    0.04689   0.83334   0.25000   0.00000  Uiso   1.00
Cu406  Cu    0.28645   0.83333   0.25000   0.00000  Uiso   1.00
H407   H     0.26343   0.79023   0.04127   0.00000  Uiso   1.00
H408   H     0.06991   0.87644   0.45873   0.00000  Uiso   1.00
H409   H     0.11489   0.82215   0.11342   0.00000  Uiso   1.00
H410   H     0.21844   0.84452   0.38658   0.00000  Uiso   1.00
H411   H     0.33053   0.80263   0.47709   0.00000  Uiso   1.00
H412   H     0.00281   0.86404   0.02291   0.00000  Uiso   1.00
H413   H     0.18059   0.79787   0.07936   0.00000  Uiso   1.00
H414   H     0.15274   0.86879   0.42064   0.00000  Uiso   1.00
H415   H     0.25551   0.70491   0.26923   0.00000  Uiso   1.00
H416   H     0.07782   0.96176   0.23077   0.00000  Uiso   1.00
H417   H     0.25514   0.96345   0.26894   0.00000  Uiso   1.00
H418   H     0.07819   0.70322   0.23106   0.00000  Uiso   1.00
H419   H     0.20078   0.77888   0.29020   0.00000  Uiso   1.00
H420   H     0.13255   0.88779   0.20980   0.00000  Uiso   1.00
N421   N     0.11736   0.83334   0.24999   0.00000  Uiso   1.00
N422   N     0.21597   0.83332   0.25001   0.00000  Uiso   1.00
O423   O     0.03958   0.77322   0.25000   0.00000  Uiso   1.00
O424   O     0.29375   0.89345   0.25000   0.00000  Uiso   1.00
O425   O     0.29372   0.77321   0.25000   0.00000  Uiso   1.00
O426   O     0.03961   0.89346   0.24999   0.00000  Uiso   1.00
O427   O     0.01852   0.83334   0.31491   0.00000  Uiso   1.00
O428   O     0.31481   0.83332   0.18508   0.00000  Uiso   1.00
O429   O     0.27267   0.83333   0.31492   0.00000  Uiso   1.00
O430   O     0.06067   0.83333   0.18508   0.00000  Uiso   1.00
Br431  Br    0.27422   0.84593   0.10992   0.00000  Uiso   1.00
Br432  Br    0.05912   0.82073   0.39008   0.00000  Uiso   1.00
Br433  Br    0.10205   0.75675   0.30469   0.00000  Uiso   1.00
Br434  Br    0.23128   0.90992   0.19531   0.00000  Uiso   1.00
C435   C     0.33356   0.75409   0.25017   0.00000  Uiso   1.00
C436   C     0.66644   0.91257   0.24983   0.00000  Uiso   1.00
C437   C     0.52441   0.80934   0.04517   0.00000  Uiso   1.00
C438   C     0.47559   0.85733   0.45483   0.00000  Uiso   1.00
C439   C     0.57266   0.80424   0.02318   0.00000  Uiso   1.00
C440   C     0.42734   0.86242   0.47681   0.00000  Uiso   1.00
C441   C     0.62301   0.68846   0.26063   0.00000  Uiso   1.00
C442   C     0.37699   0.97821   0.23937   0.00000  Uiso   1.00
C443   C     0.62272   0.97916   0.26035   0.00000  Uiso   1.00
C444   C     0.37728   0.68750   0.23965   0.00000  Uiso   1.00
C445   C     0.66636   0.95723   0.24968   0.00000  Uiso   1.00
C446   C     0.33364   0.70943   0.25032   0.00000  Uiso   1.00
C447   C     0.51970   0.80305   0.27226   0.00000  Uiso   1.00
C448   C     0.48030   0.86362   0.22774   0.00000  Uiso   1.00
C449   C     0.47057   0.80269   0.27228   0.00000  Uiso   1.00
C450   C     0.52943   0.86398   0.22772   0.00000  Uiso   1.00
C451   C     0.63960   0.83332   0.33621   0.00000  Uiso   1.00
C452   C     0.36040   0.83334   0.16379   0.00000  Uiso   1.00
C453   C     0.62479   0.83137   0.38581   0.00000  Uiso   1.00
C454   C     0.37521   0.83530   0.11419   0.00000  Uiso   1.00
C455   C     0.63906   0.81254   0.45770   0.00000  Uiso   1.00
C456   C     0.36094   0.85413   0.04230   0.00000  Uiso   1.00
C457   C     0.65706   0.82174   0.41223   0.00000  Uiso   1.00
C458   C     0.34294   0.84493   0.08777   0.00000  Uiso   1.00
C459   C     0.57568   0.83700   0.40726   0.00000  Uiso   1.00
C460   C     0.42432   0.82967   0.09274   0.00000  Uiso   1.00
C461   C     0.55762   0.83128   0.45392   0.00000  Uiso   1.00
C462   C     0.44238   0.83538   0.04608   0.00000  Uiso   1.00
C463   C     0.58981   0.81614   0.47837   0.00000  Uiso   1.00
C464   C     0.41019   0.85052   0.02163   0.00000  Uiso   1.00
C465   C     0.50837   0.83870   0.47673   0.00000  Uiso   1.00
C466   C     0.49163   0.82796   0.02327   0.00000  Uiso   1.00
Cu467  Cu    0.38022   0.83334   0.25000   0.00000  Uiso   1.00
Cu468  Cu    0.61978   0.83333   0.25000   0.00000  Uiso   1.00
H469   H     0.59676   0.79023   0.04127   0.00000  Uiso   1.00
H470   H     0.40324   0.87644   0.45873   0.00000  Uiso   1.00
H471   H     0.44822   0.82215   0.11342   0.00000  Uiso   1.00
H472   H     0.55178   0.84452   0.38658   0.00000  Uiso   1.00
H473   H     0.66386   0.80263   0.47709   0.00000  Uiso   1.00
H474   H     0.33614   0.86404   0.02291   0.00000  Uiso   1.00
H475   H     0.51393   0.79787   0.07936   0.00000  Uiso   1.00
H476   H     0.48607   0.86879   0.42064   0.00000  Uiso   1.00
H477   H     0.58884   0.70491   0.26923   0.00000  Uiso   1.00
H478   H     0.41116   0.96176   0.23077   0.00000  Uiso   1.00
H479   H     0.58848   0.96345   0.26894   0.00000  Uiso   1.00
H480   H     0.41152   0.70322   0.23106   0.00000  Uiso   1.00
H481   H     0.53412   0.77888   0.29020   0.00000  Uiso   1.00
H482   H     0.46588   0.88779   0.20980   0.00000  Uiso   1.00
N483   N     0.45069   0.83334   0.24999   0.00000  Uiso   1.00
N484   N     0.54931   0.83332   0.25001   0.00000  Uiso   1.00
O485   O     0.37291   0.77322   0.25000   0.00000  Uiso   1.00
O486   O     0.62709   0.89345   0.25000   0.00000  Uiso   1.00
O487   O     0.62706   0.77321   0.25000   0.00000  Uiso   1.00
O488   O     0.37294   0.89346   0.24999   0.00000  Uiso   1.00
O489   O     0.35186   0.83334   0.31491   0.00000  Uiso   1.00
O490   O     0.64814   0.83332   0.18508   0.00000  Uiso   1.00
O491   O     0.60600   0.83333   0.31492   0.00000  Uiso   1.00
O492   O     0.39400   0.83333   0.18508   0.00000  Uiso   1.00
Br493  Br    0.60755   0.84593   0.10992   0.00000  Uiso   1.00
Br494  Br    0.39245   0.82073   0.39008   0.00000  Uiso   1.00
Br495  Br    0.43538   0.75675   0.30469   0.00000  Uiso   1.00
Br496  Br    0.56462   0.90992   0.19531   0.00000  Uiso   1.00
C497   C     0.66689   0.75409   0.25017   0.00000  Uiso   1.00
C498   C     0.99978   0.91257   0.24983   0.00000  Uiso   1.00
C499   C     0.85774   0.80934   0.04517   0.00000  Uiso   1.00
C500   C     0.80893   0.85733   0.45483   0.00000  Uiso   1.00
C501   C     0.90600   0.80424   0.02318   0.00000  Uiso   1.00
C502   C     0.76067   0.86242   0.47681   0.00000  Uiso   1.00
C503   C     0.95635   0.68846   0.26063   0.00000  Uiso   1.00
C504   C     0.71032   0.97821   0.23937   0.00000  Uiso   1.00
C505   C     0.95606   0.97916   0.26035   0.00000  Uiso   1.00
C506   C     0.71061   0.68750   0.23965   0.00000  Uiso   1.00
C507   C     0.99970   0.95723   0.24968   0.00000  Uiso   1.00
C508   C     0.66697   0.70943   0.25032   0.00000  Uiso   1.00
C509   C     0.85303   0.80305   0.27226   0.00000  Uiso   1.00
C510   C     0.81363   0.86362   0.22774   0.00000  Uiso   1.00
C511   C     0.80390   0.80269   0.27228   0.00000  Uiso   1.00
C512   C     0.86276   0.86398   0.22772   0.00000  Uiso   1.00
C513   C     0.97293   0.83332   0.33621   0.00000  Uiso   1.00
C514   C     0.69373   0.83334   0.16379   0.00000  Uiso   1.00
C515   C     0.95813   0.83137   0.38581   0.00000  Uiso   1.00
C516   C     0.70854   0.83530   0.11419   0.00000  Uiso   1.00
C517   C     0.97240   0.81254   0.45770   0.00000  Uiso   1.00
C518   C     0.69427   0.85413   0.04230   0.00000  Uiso   1.00
C519   C     0.99039   0.82174   0.41223   0.00000  Uiso   1.00
C520   C     0.67628   0.84493   0.08777   0.00000  Uiso   1.00
C521   C     0.90901   0.83700   0.40726   0.00000  Uiso   1.00
C522   C     0.75766   0.82967   0.09274   0.00000  Uiso   1.00
C523   C     0.89095   0.83128   0.45392   0.00000  Uiso   1.00
C524   C     0.77572   0.83538   0.04608   0.00000  Uiso   1.00
C525   C     0.92315   0.81614   0.47837   0.00000  Uiso   1.00
C526   C     0.74352   0.85052   0.02163   0.00000  Uiso   1.00
C527   C     0.84170   0.83870   0.47673   0.00000  Uiso   1.00
C528   C     0.82496   0.82796   0.02327   0.00000  Uiso   1.00
Cu529  Cu    0.71355   0.83334   0.25000   0.00000  Uiso   1.00
Cu530  Cu    0.95311   0.83333   0.25000   0.00000  Uiso   1.00
H531   H     0.93009   0.79023   0.04127   0.00000  Uiso   1.00
H532   H     0.73657   0.87644   0.45873   0.00000  Uiso   1.00
H533   H     0.78156   0.82215   0.11342   0.00000  Uiso   1.00
H534   H     0.88511   0.84452   0.38658   0.00000  Uiso   1.00
H535   H     0.99719   0.80263   0.47709   0.00000  Uiso   1.00
H536   H     0.66947   0.86404   0.02291   0.00000  Uiso   1.00
H537   H     0.84726   0.79787   0.07936   0.00000  Uiso   1.00
H538   H     0.81941   0.86879   0.42064   0.00000  Uiso   1.00
H539   H     0.92218   0.70491   0.26923   0.00000  Uiso   1.00
H540   H     0.74449   0.96176   0.23077   0.00000  Uiso   1.00
H541   H     0.92181   0.96345   0.26894   0.00000  Uiso   1.00
H542   H     0.74486   0.70322   0.23106   0.00000  Uiso   1.00
H543   H     0.86745   0.77888   0.29020   0.00000  Uiso   1.00
H544   H     0.79922   0.88779   0.20980   0.00000  Uiso   1.00
N545   N     0.78403   0.83334   0.24999   0.00000  Uiso   1.00
N546   N     0.88264   0.83332   0.25001   0.00000  Uiso   1.00
O547   O     0.70625   0.77322   0.25000   0.00000  Uiso   1.00
O548   O     0.96042   0.89345   0.25000   0.00000  Uiso   1.00
O549   O     0.96039   0.77321   0.25000   0.00000  Uiso   1.00
O550   O     0.70628   0.89346   0.24999   0.00000  Uiso   1.00
O551   O     0.68519   0.83334   0.31491   0.00000  Uiso   1.00
O552   O     0.98148   0.83332   0.18508   0.00000  Uiso   1.00
O553   O     0.93933   0.83333   0.31492   0.00000  Uiso   1.00
O554   O     0.72733   0.83333   0.18508   0.00000  Uiso   1.00
Br555  Br    0.94089   0.84593   0.10992   0.00000  Uiso   1.00
Br556  Br    0.72578   0.82073   0.39008   0.00000  Uiso   1.00
Br557  Br    0.76872   0.75675   0.30469   0.00000  Uiso   1.00
Br558  Br    0.89795   0.90992   0.19531   0.00000  Uiso   1.00
C559   C     0.00022   0.08743   0.75017   0.00000  Uiso   1.00
C560   C     0.33311   0.24591   0.74983   0.00000  Uiso   1.00
C561   C     0.19107   0.14267   0.54517   0.00000  Uiso   1.00
C562   C     0.14226   0.19066   0.95483   0.00000  Uiso   1.00
C563   C     0.23933   0.13758   0.52318   0.00000  Uiso   1.00
C564   C     0.09401   0.19575   0.97681   0.00000  Uiso   1.00
C565   C     0.28968   0.02179   0.76063   0.00000  Uiso   1.00
C566   C     0.04365   0.31154   0.73937   0.00000  Uiso   1.00
C567   C     0.28939   0.31250   0.76035   0.00000  Uiso   1.00
C568   C     0.04394   0.02084   0.73965   0.00000  Uiso   1.00
C569   C     0.33303   0.29057   0.74968   0.00000  Uiso   1.00
C570   C     0.00030   0.04277   0.75032   0.00000  Uiso   1.00
C571   C     0.18637   0.13638   0.77226   0.00000  Uiso   1.00
C572   C     0.14697   0.19695   0.72774   0.00000  Uiso   1.00
C573   C     0.13724   0.13602   0.77228   0.00000  Uiso   1.00
C574   C     0.19610   0.19731   0.72772   0.00000  Uiso   1.00
C575   C     0.30627   0.16666   0.83621   0.00000  Uiso   1.00
C576   C     0.02707   0.16667   0.66379   0.00000  Uiso   1.00
C577   C     0.29146   0.16470   0.88581   0.00000  Uiso   1.00
C578   C     0.04187   0.16863   0.61419   0.00000  Uiso   1.00
C579   C     0.30573   0.14587   0.95770   0.00000  Uiso   1.00
C580   C     0.02760   0.18746   0.54230   0.00000  Uiso   1.00
C581   C     0.32372   0.15507   0.91223   0.00000  Uiso   1.00
C582   C     0.00961   0.17826   0.58777   0.00000  Uiso   1.00
C583   C     0.24234   0.17033   0.90726   0.00000  Uiso   1.00
C584   C     0.09099   0.16300   0.59274   0.00000  Uiso   1.00
C585   C     0.22428   0.16462   0.95392   0.00000  Uiso   1.00
C586   C     0.10905   0.16872   0.54608   0.00000  Uiso   1.00
C587   C     0.25648   0.14948   0.97837   0.00000  Uiso   1.00
C588   C     0.07685   0.18386   0.52163   0.00000  Uiso   1.00
C589   C     0.17504   0.17204   0.97673   0.00000  Uiso   1.00
C590   C     0.15830   0.16130   0.52327   0.00000  Uiso   1.00
Cu591  Cu    0.04689   0.16667   0.75000   0.00000  Uiso   1.00
Cu592  Cu    0.28645   0.16666   0.75000   0.00000  Uiso   1.00
H593   H     0.26343   0.12356   0.54127   0.00000  Uiso   1.00
H594   H     0.06991   0.20977   0.95873   0.00000  Uiso   1.00
H595   H     0.11489   0.15548   0.61342   0.00000  Uiso   1.00
H596   H     0.21844   0.17785   0.88658   0.00000  Uiso   1.00
H597   H     0.33053   0.13596   0.97709   0.00000  Uiso   1.00
H598   H     0.00281   0.19737   0.52291   0.00000  Uiso   1.00
H599   H     0.18059   0.13121   0.57936   0.00000  Uiso   1.00
H600   H     0.15274   0.20213   0.92064   0.00000  Uiso   1.00
H601   H     0.25551   0.03824   0.76923   0.00000  Uiso   1.00
H602   H     0.07782   0.29509   0.73077   0.00000  Uiso   1.00
H603   H     0.25514   0.29678   0.76894   0.00000  Uiso   1.00
H604   H     0.07819   0.03655   0.73106   0.00000  Uiso   1.00
H605   H     0.20078   0.11221   0.79020   0.00000  Uiso   1.00
H606   H     0.13255   0.22112   0.70980   0.00000  Uiso   1.00
N607   N     0.11736   0.16668   0.74999   0.00000  Uiso   1.00
N608   N     0.21597   0.16666   0.75001   0.00000  Uiso   1.00
O609   O     0.03958   0.10655   0.75000   0.00000  Uiso   1.00
O610   O     0.29375   0.22678   0.75000   0.00000  Uiso   1.00
O611   O     0.29372   0.10654   0.75000   0.00000  Uiso   1.00
O612   O     0.03961   0.22679   0.74999   0.00000  Uiso   1.00
O613   O     0.01852   0.16668   0.81491   0.00000  Uiso   1.00
O614   O     0.31481   0.16666   0.68508   0.00000  Uiso   1.00
O615   O     0.27267   0.16667   0.81492   0.00000  Uiso   1.00
O616   O     0.06067   0.16667   0.68508   0.00000  Uiso   1.00
Br617  Br    0.27422   0.17927   0.60992   0.00000  Uiso   1.00
Br618  Br    0.05912   0.15407   0.89008   0.00000  Uiso   1.00
Br619  Br    0.10205   0.09008   0.80469   0.00000  Uiso   1.00
Br620  Br    0.23128   0.24325   0.69531   0.00000  Uiso   1.00
C621   C     0.33356   0.08743   0.75017   0.00000  Uiso   1.00
C622   C     0.66644   0.24591   0.74983   0.00000  Uiso   1.00
C623   C     0.52441   0.14267   0.54517   0.00000  Uiso   1.00
C624   C     0.47559   0.19066   0.95483   0.00000  Uiso   1.00
C625   C     0.57266   0.13758   0.52318   0.00000  Uiso   1.00
C626   C     0.42734   0.19575   0.97681   0.00000  Uiso   1.00
C627   C     0.62301   0.02179   0.76063   0.00000  Uiso   1.00
C628   C     0.37699   0.31154   0.73937   0.00000  Uiso   1.00
C629   C     0.62272   0.31250   0.76035   0.00000  Uiso   1.00
C630   C     0.37728   0.02084   0.73965   0.00000  Uiso   1.00
C631   C     0.66636   0.29057   0.74968   0.00000  Uiso   1.00
C632   C     0.33364   0.04277   0.75032   0.00000  Uiso   1.00
C633   C     0.51970   0.13638   0.77226   0.00000  Uiso   1.00
C634   C     0.48030   0.19695   0.72774   0.00000  Uiso   1.00
C635   C     0.47057   0.13602   0.77228   0.00000  Uiso   1.00
C636   C     0.52943   0.19731   0.72772   0.00000  Uiso   1.00
C637   C     0.63960   0.16666   0.83621   0.00000  Uiso   1.00
C638   C     0.36040   0.16667   0.66379   0.00000  Uiso   1.00
C639   C     0.62479   0.16470   0.88581   0.00000  Uiso   1.00
C640   C     0.37521   0.16863   0.61419   0.00000  Uiso   1.00
C641   C     0.63906   0.14587   0.95770   0.00000  Uiso   1.00
C642   C     0.36094   0.18746   0.54230   0.00000  Uiso   1.00
C643   C     0.65706   0.15507   0.91223   0.00000  Uiso   1.00
C644   C     0.34294   0.17826   0.58777   0.00000  Uiso   1.00
C645   C     0.57568   0.17033   0.90726   0.00000  Uiso   1.00
C646   C     0.42432   0.16300   0.59274   0.00000  Uiso   1.00
C647   C     0.55762   0.16462   0.95392   0.00000  Uiso   1.00
C648   C     0.44238   0.16872   0.54608   0.00000  Uiso   1.00
C649   C     0.58981   0.14948   0.97837   0.00000  Uiso   1.00
C650   C     0.41019   0.18386   0.52163   0.00000  Uiso   1.00
C651   C     0.50837   0.17204   0.97673   0.00000  Uiso   1.00
C652   C     0.49163   0.16130   0.52327   0.00000  Uiso   1.00
Cu653  Cu    0.38022   0.16667   0.75000   0.00000  Uiso   1.00
Cu654  Cu    0.61978   0.16666   0.75000   0.00000  Uiso   1.00
H655   H     0.59676   0.12356   0.54127   0.00000  Uiso   1.00
H656   H     0.40324   0.20977   0.95873   0.00000  Uiso   1.00
H657   H     0.44822   0.15548   0.61342   0.00000  Uiso   1.00
H658   H     0.55178   0.17785   0.88658   0.00000  Uiso   1.00
H659   H     0.66386   0.13596   0.97709   0.00000  Uiso   1.00
H660   H     0.33614   0.19737   0.52291   0.00000  Uiso   1.00
H661   H     0.51393   0.13121   0.57936   0.00000  Uiso   1.00
H662   H     0.48607   0.20213   0.92064   0.00000  Uiso   1.00
H663   H     0.58884   0.03824   0.76923   0.00000  Uiso   1.00
H664   H     0.41116   0.29509   0.73077   0.00000  Uiso   1.00
H665   H     0.58848   0.29678   0.76894   0.00000  Uiso   1.00
H666   H     0.41152   0.03655   0.73106   0.00000  Uiso   1.00
H667   H     0.53412   0.11221   0.79020   0.00000  Uiso   1.00
H668   H     0.46588   0.22112   0.70980   0.00000  Uiso   1.00
N669   N     0.45069   0.16668   0.74999   0.00000  Uiso   1.00
N670   N     0.54931   0.16666   0.75001   0.00000  Uiso   1.00
O671   O     0.37291   0.10655   0.75000   0.00000  Uiso   1.00
O672   O     0.62709   0.22678   0.75000   0.00000  Uiso   1.00
O673   O     0.62706   0.10654   0.75000   0.00000  Uiso   1.00
O674   O     0.37294   0.22679   0.74999   0.00000  Uiso   1.00
O675   O     0.35186   0.16668   0.81491   0.00000  Uiso   1.00
O676   O     0.64814   0.16666   0.68508   0.00000  Uiso   1.00
O677   O     0.60600   0.16667   0.81492   0.00000  Uiso   1.00
O678   O     0.39400   0.16667   0.68508   0.00000  Uiso   1.00
Br679  Br    0.60755   0.17927   0.60992   0.00000  Uiso   1.00
Br680  Br    0.39245   0.15407   0.89008   0.00000  Uiso   1.00
Br681  Br    0.43538   0.09008   0.80469   0.00000  Uiso   1.00
Br682  Br    0.56462   0.24325   0.69531   0.00000  Uiso   1.00
C683   C     0.66689   0.08743   0.75017   0.00000  Uiso   1.00
C684   C     0.99978   0.24591   0.74983   0.00000  Uiso   1.00
C685   C     0.85774   0.14267   0.54517   0.00000  Uiso   1.00
C686   C     0.80893   0.19066   0.95483   0.00000  Uiso   1.00
C687   C     0.90600   0.13758   0.52318   0.00000  Uiso   1.00
C688   C     0.76067   0.19575   0.97681   0.00000  Uiso   1.00
C689   C     0.95635   0.02179   0.76063   0.00000  Uiso   1.00
C690   C     0.71032   0.31154   0.73937   0.00000  Uiso   1.00
C691   C     0.95606   0.31250   0.76035   0.00000  Uiso   1.00
C692   C     0.71061   0.02084   0.73965   0.00000  Uiso   1.00
C693   C     0.99970   0.29057   0.74968   0.00000  Uiso   1.00
C694   C     0.66697   0.04277   0.75032   0.00000  Uiso   1.00
C695   C     0.85303   0.13638   0.77226   0.00000  Uiso   1.00
C696   C     0.81363   0.19695   0.72774   0.00000  Uiso   1.00
C697   C     0.80390   0.13602   0.77228   0.00000  Uiso   1.00
C698   C     0.86276   0.19731   0.72772   0.00000  Uiso   1.00
C699   C     0.97293   0.16666   0.83621   0.00000  Uiso   1.00
C700   C     0.69373   0.16667   0.66379   0.00000  Uiso   1.00
C701   C     0.95813   0.16470   0.88581   0.00000  Uiso   1.00
C702   C     0.70854   0.16863   0.61419   0.00000  Uiso   1.00
C703   C     0.97240   0.14587   0.95770   0.00000  Uiso   1.00
C704   C     0.69427   0.18746   0.54230   0.00000  Uiso   1.00
C705   C     0.99039   0.15507   0.91223   0.00000  Uiso   1.00
C706   C     0.67628   0.17826   0.58777   0.00000  Uiso   1.00
C707   C     0.90901   0.17033   0.90726   0.00000  Uiso   1.00
C708   C     0.75766   0.16300   0.59274   0.00000  Uiso   1.00
C709   C     0.89095   0.16462   0.95392   0.00000  Uiso   1.00
C710   C     0.77572   0.16872   0.54608   0.00000  Uiso   1.00
C711   C     0.92315   0.14948   0.97837   0.00000  Uiso   1.00
C712   C     0.74352   0.18386   0.52163   0.00000  Uiso   1.00
C713   C     0.84170   0.17204   0.97673   0.00000  Uiso   1.00
C714   C     0.82496   0.16130   0.52327   0.00000  Uiso   1.00
Cu715  Cu    0.71355   0.16667   0.75000   0.00000  Uiso   1.00
Cu716  Cu    0.95311   0.16666   0.75000   0.00000  Uiso   1.00
H717   H     0.93009   0.12356   0.54127   0.00000  Uiso   1.00
H718   H     0.73657   0.20977   0.95873   0.00000  Uiso   1.00
H719   H     0.78156   0.15548   0.61342   0.00000  Uiso   1.00
H720   H     0.88511   0.17785   0.88658   0.00000  Uiso   1.00
H721   H     0.99719   0.13596   0.97709   0.00000  Uiso   1.00
H722   H     0.66947   0.19737   0.52291   0.00000  Uiso   1.00
H723   H     0.84726   0.13121   0.57936   0.00000  Uiso   1.00
H724   H     0.81941   0.20213   0.92064   0.00000  Uiso   1.00
H725   H     0.92218   0.03824   0.76923   0.00000  Uiso   1.00
H726   H     0.74449   0.29509   0.73077   0.00000  Uiso   1.00
H727   H     0.92181   0.29678   0.76894   0.00000  Uiso   1.00
H728   H     0.74486   0.03655   0.73106   0.00000  Uiso   1.00
H729   H     0.86745   0.11221   0.79020   0.00000  Uiso   1.00
H730   H     0.79922   0.22112   0.70980   0.00000  Uiso   1.00
N731   N     0.78403   0.16668   0.74999   0.00000  Uiso   1.00
N732   N     0.88264   0.16666   0.75001   0.00000  Uiso   1.00
O733   O     0.70625   0.10655   0.75000   0.00000  Uiso   1.00
O734   O     0.96042   0.22678   0.75000   0.00000  Uiso   1.00
O735   O     0.96039   0.10654   0.75000   0.00000  Uiso   1.00
O736   O     0.70628   0.22679   0.74999   0.00000  Uiso   1.00
O737   O     0.68519   0.16668   0.81491   0.00000  Uiso   1.00
O738   O     0.98148   0.16666   0.68508   0.00000  Uiso   1.00
O739   O     0.93933   0.16667   0.81492   0.00000  Uiso   1.00
O740   O     0.72733   0.16667   0.68508   0.00000  Uiso   1.00
Br741  Br    0.94089   0.17927   0.60992   0.00000  Uiso   1.00
Br742  Br    0.72578   0.15407   0.89008   0.00000  Uiso   1.00
Br743  Br    0.76872   0.09008   0.80469   0.00000  Uiso   1.00
Br744  Br    0.89795   0.24325   0.69531   0.00000  Uiso   1.00
C745   C     0.00022   0.42076   0.75017   0.00000  Uiso   1.00
C746   C     0.33311   0.57924   0.74983   0.00000  Uiso   1.00
C747   C     0.19107   0.47601   0.54517   0.00000  Uiso   1.00
C748   C     0.14226   0.52399   0.95483   0.00000  Uiso   1.00
C749   C     0.23933   0.47091   0.52318   0.00000  Uiso   1.00
C750   C     0.09401   0.52909   0.97681   0.00000  Uiso   1.00
C751   C     0.28968   0.35512   0.76063   0.00000  Uiso   1.00
C752   C     0.04365   0.64488   0.73937   0.00000  Uiso   1.00
C753   C     0.28939   0.64583   0.76035   0.00000  Uiso   1.00
C754   C     0.04394   0.35417   0.73965   0.00000  Uiso   1.00
C755   C     0.33303   0.62390   0.74968   0.00000  Uiso   1.00
C756   C     0.00030   0.37610   0.75032   0.00000  Uiso   1.00
C757   C     0.18637   0.46971   0.77226   0.00000  Uiso   1.00
C758   C     0.14697   0.53029   0.72774   0.00000  Uiso   1.00
C759   C     0.13724   0.46935   0.77228   0.00000  Uiso   1.00
C760   C     0.19610   0.53065   0.72772   0.00000  Uiso   1.00
C761   C     0.30627   0.49999   0.83621   0.00000  Uiso   1.00
C762   C     0.02707   0.50001   0.66379   0.00000  Uiso   1.00
C763   C     0.29146   0.49804   0.88581   0.00000  Uiso   1.00
C764   C     0.04187   0.50196   0.61419   0.00000  Uiso   1.00
C765   C     0.30573   0.47920   0.95770   0.00000  Uiso   1.00
C766   C     0.02760   0.52080   0.54230   0.00000  Uiso   1.00
C767   C     0.32372   0.48840   0.91223   0.00000  Uiso   1.00
C768   C     0.00961   0.51160   0.58777   0.00000  Uiso   1.00
C769   C     0.24234   0.50367   0.90726   0.00000  Uiso   1.00
C770   C     0.09099   0.49633   0.59274   0.00000  Uiso   1.00
C771   C     0.22428   0.49795   0.95392   0.00000  Uiso   1.00
C772   C     0.10905   0.50205   0.54608   0.00000  Uiso   1.00
C773   C     0.25648   0.48281   0.97837   0.00000  Uiso   1.00
C774   C     0.07685   0.51719   0.52163   0.00000  Uiso   1.00
C775   C     0.17504   0.50537   0.97673   0.00000  Uiso   1.00
C776   C     0.15830   0.49463   0.52327   0.00000  Uiso   1.00
Cu777  Cu    0.04689   0.50001   0.75000   0.00000  Uiso   1.00
Cu778  Cu    0.28645   0.49999   0.75000   0.00000  Uiso   1.00
H779   H     0.26343   0.45689   0.54127   0.00000  Uiso   1.00
H780   H     0.06991   0.54310   0.95873   0.00000  Uiso   1.00
H781   H     0.11489   0.48881   0.61342   0.00000  Uiso   1.00
H782   H     0.21844   0.51118   0.88658   0.00000  Uiso   1.00
H783   H     0.33053   0.46929   0.97709   0.00000  Uiso   1.00
H784   H     0.00281   0.53071   0.52291   0.00000  Uiso   1.00
H785   H     0.18059   0.46454   0.57936   0.00000  Uiso   1.00
H786   H     0.15274   0.53546   0.92064   0.00000  Uiso   1.00
H787   H     0.25551   0.37158   0.76923   0.00000  Uiso   1.00
H788   H     0.07782   0.62842   0.73077   0.00000  Uiso   1.00
H789   H     0.25514   0.63012   0.76894   0.00000  Uiso   1.00
H790   H     0.07819   0.36988   0.73106   0.00000  Uiso   1.00
H791   H     0.20078   0.44554   0.79020   0.00000  Uiso   1.00
H792   H     0.13255   0.55446   0.70980   0.00000  Uiso   1.00
N793   N     0.11736   0.50001   0.74999   0.00000  Uiso   1.00
N794   N     0.21597   0.49999   0.75001   0.00000  Uiso   1.00
O795   O     0.03958   0.43989   0.75000   0.00000  Uiso   1.00
O796   O     0.29375   0.56011   0.75000   0.00000  Uiso   1.00
O797   O     0.29372   0.43988   0.75000   0.00000  Uiso   1.00
O798   O     0.03961   0.56012   0.74999   0.00000  Uiso   1.00
O799   O     0.01852   0.50001   0.81491   0.00000  Uiso   1.00
O800   O     0.31481   0.49999   0.68508   0.00000  Uiso   1.00
O801   O     0.27267   0.50000   0.81492   0.00000  Uiso   1.00
O802   O     0.06067   0.50000   0.68508   0.00000  Uiso   1.00
Br803  Br    0.27422   0.51260   0.60992   0.00000  Uiso   1.00
Br804  Br    0.05912   0.48740   0.89008   0.00000  Uiso   1.00
Br805  Br    0.10205   0.42342   0.80469   0.00000  Uiso   1.00
Br806  Br    0.23128   0.57658   0.69531   0.00000  Uiso   1.00
C807   C     0.33356   0.42076   0.75017   0.00000  Uiso   1.00
C808   C     0.66644   0.57924   0.74983   0.00000  Uiso   1.00
C809   C     0.52441   0.47601   0.54517   0.00000  Uiso   1.00
C810   C     0.47559   0.52399   0.95483   0.00000  Uiso   1.00
C811   C     0.57266   0.47091   0.52318   0.00000  Uiso   1.00
C812   C     0.42734   0.52909   0.97681   0.00000  Uiso   1.00
C813   C     0.62301   0.35512   0.76063   0.00000  Uiso   1.00
C814   C     0.37699   0.64488   0.73937   0.00000  Uiso   1.00
C815   C     0.62272   0.64583   0.76035   0.00000  Uiso   1.00
C816   C     0.37728   0.35417   0.73965   0.00000  Uiso   1.00
C817   C     0.66636   0.62390   0.74968   0.00000  Uiso   1.00
C818   C     0.33364   0.37610   0.75032   0.00000  Uiso   1.00
C819   C     0.51970   0.46971   0.77226   0.00000  Uiso   1.00
C820   C     0.48030   0.53029   0.72774   0.00000  Uiso   1.00
C821   C     0.47057   0.46935   0.77228   0.00000  Uiso   1.00
C822   C     0.52943   0.53065   0.72772   0.00000  Uiso   1.00
C823   C     0.63960   0.49999   0.83621   0.00000  Uiso   1.00
C824   C     0.36040   0.50001   0.66379   0.00000  Uiso   1.00
C825   C     0.62479   0.49804   0.88581   0.00000  Uiso   1.00
C826   C     0.37521   0.50196   0.61419   0.00000  Uiso   1.00
C827   C     0.63906   0.47920   0.95770   0.00000  Uiso   1.00
C828   C     0.36094   0.52080   0.54230   0.00000  Uiso   1.00
C829   C     0.65706   0.48840   0.91223   0.00000  Uiso   1.00
C830   C     0.34294   0.51160   0.58777   0.00000  Uiso   1.00
C831   C     0.57568   0.50367   0.90726   0.00000  Uiso   1.00
C832   C     0.42432   0.49633   0.59274   0.00000  Uiso   1.00
C833   C     0.55762   0.49795   0.95392   0.00000  Uiso   1.00
C834   C     0.44238   0.50205   0.54608   0.00000  Uiso   1.00
C835   C     0.58981   0.48281   0.97837   0.00000  Uiso   1.00
C836   C     0.41019   0.51719   0.52163   0.00000  Uiso   1.00
C837   C     0.50837   0.50537   0.97673   0.00000  Uiso   1.00
C838   C     0.49163   0.49463   0.52327   0.00000  Uiso   1.00
Cu839  Cu    0.38022   0.50001   0.75000   0.00000  Uiso   1.00
Cu840  Cu    0.61978   0.49999   0.75000   0.00000  Uiso   1.00
H841   H     0.59676   0.45689   0.54127   0.00000  Uiso   1.00
H842   H     0.40324   0.54310   0.95873   0.00000  Uiso   1.00
H843   H     0.44822   0.48881   0.61342   0.00000  Uiso   1.00
H844   H     0.55178   0.51118   0.88658   0.00000  Uiso   1.00
H845   H     0.66386   0.46929   0.97709   0.00000  Uiso   1.00
H846   H     0.33614   0.53071   0.52291   0.00000  Uiso   1.00
H847   H     0.51393   0.46454   0.57936   0.00000  Uiso   1.00
H848   H     0.48607   0.53546   0.92064   0.00000  Uiso   1.00
H849   H     0.58884   0.37158   0.76923   0.00000  Uiso   1.00
H850   H     0.41116   0.62842   0.73077   0.00000  Uiso   1.00
H851   H     0.58848   0.63012   0.76894   0.00000  Uiso   1.00
H852   H     0.41152   0.36988   0.73106   0.00000  Uiso   1.00
H853   H     0.53412   0.44554   0.79020   0.00000  Uiso   1.00
H854   H     0.46588   0.55446   0.70980   0.00000  Uiso   1.00
N855   N     0.45069   0.50001   0.74999   0.00000  Uiso   1.00
N856   N     0.54931   0.49999   0.75001   0.00000  Uiso   1.00
O857   O     0.37291   0.43989   0.75000   0.00000  Uiso   1.00
O858   O     0.62709   0.56011   0.75000   0.00000  Uiso   1.00
O859   O     0.62706   0.43988   0.75000   0.00000  Uiso   1.00
O860   O     0.37294   0.56012   0.74999   0.00000  Uiso   1.00
O861   O     0.35186   0.50001   0.81491   0.00000  Uiso   1.00
O862   O     0.64814   0.49999   0.68508   0.00000  Uiso   1.00
O863   O     0.60600   0.50000   0.81492   0.00000  Uiso   1.00
O864   O     0.39400   0.50000   0.68508   0.00000  Uiso   1.00
Br865  Br    0.60755   0.51260   0.60992   0.00000  Uiso   1.00
Br866  Br    0.39245   0.48740   0.89008   0.00000  Uiso   1.00
Br867  Br    0.43538   0.42342   0.80469   0.00000  Uiso   1.00
Br868  Br    0.56462   0.57658   0.69531   0.00000  Uiso   1.00
C869   C     0.66689   0.42076   0.75017   0.00000  Uiso   1.00
C870   C     0.99978   0.57924   0.74983   0.00000  Uiso   1.00
C871   C     0.85774   0.47601   0.54517   0.00000  Uiso   1.00
C872   C     0.80893   0.52399   0.95483   0.00000  Uiso   1.00
C873   C     0.90600   0.47091   0.52318   0.00000  Uiso   1.00
C874   C     0.76067   0.52909   0.97681   0.00000  Uiso   1.00
C875   C     0.95635   0.35512   0.76063   0.00000  Uiso   1.00
C876   C     0.71032   0.64488   0.73937   0.00000  Uiso   1.00
C877   C     0.95606   0.64583   0.76035   0.00000  Uiso   1.00
C878   C     0.71061   0.35417   0.73965   0.00000  Uiso   1.00
C879   C     0.99970   0.62390   0.74968   0.00000  Uiso   1.00
C880   C     0.66697   0.37610   0.75032   0.00000  Uiso   1.00
C881   C     0.85303   0.46971   0.77226   0.00000  Uiso   1.00
C882   C     0.81363   0.53029   0.72774   0.00000  Uiso   1.00
C883   C     0.80390   0.46935   0.77228   0.00000  Uiso   1.00
C884   C     0.86276   0.53065   0.72772   0.00000  Uiso   1.00
C885   C     0.97293   0.49999   0.83621   0.00000  Uiso   1.00
C886   C     0.69373   0.50001   0.66379   0.00000  Uiso   1.00
C887   C     0.95813   0.49804   0.88581   0.00000  Uiso   1.00
C888   C     0.70854   0.50196   0.61419   0.00000  Uiso   1.00
C889   C     0.97240   0.47920   0.95770   0.00000  Uiso   1.00
C890   C     0.69427   0.52080   0.54230   0.00000  Uiso   1.00
C891   C     0.99039   0.48840   0.91223   0.00000  Uiso   1.00
C892   C     0.67628   0.51160   0.58777   0.00000  Uiso   1.00
C893   C     0.90901   0.50367   0.90726   0.00000  Uiso   1.00
C894   C     0.75766   0.49633   0.59274   0.00000  Uiso   1.00
C895   C     0.89095   0.49795   0.95392   0.00000  Uiso   1.00
C896   C     0.77572   0.50205   0.54608   0.00000  Uiso   1.00
C897   C     0.92315   0.48281   0.97837   0.00000  Uiso   1.00
C898   C     0.74352   0.51719   0.52163   0.00000  Uiso   1.00
C899   C     0.84170   0.50537   0.97673   0.00000  Uiso   1.00
C900   C     0.82496   0.49463   0.52327   0.00000  Uiso   1.00
Cu901  Cu    0.71355   0.50001   0.75000   0.00000  Uiso   1.00
Cu902  Cu    0.95311   0.49999   0.75000   0.00000  Uiso   1.00
H903   H     0.93009   0.45689   0.54127   0.00000  Uiso   1.00
H904   H     0.73657   0.54310   0.95873   0.00000  Uiso   1.00
H905   H     0.78156   0.48881   0.61342   0.00000  Uiso   1.00
H906   H     0.88511   0.51118   0.88658   0.00000  Uiso   1.00
H907   H     0.99719   0.46929   0.97709   0.00000  Uiso   1.00
H908   H     0.66947   0.53071   0.52291   0.00000  Uiso   1.00
H909   H     0.84726   0.46454   0.57936   0.00000  Uiso   1.00
H910   H     0.81941   0.53546   0.92064   0.00000  Uiso   1.00
H911   H     0.92218   0.37158   0.76923   0.00000  Uiso   1.00
H912   H     0.74449   0.62842   0.73077   0.00000  Uiso   1.00
H913   H     0.92181   0.63012   0.76894   0.00000  Uiso   1.00
H914   H     0.74486   0.36988   0.73106   0.00000  Uiso   1.00
H915   H     0.86745   0.44554   0.79020   0.00000  Uiso   1.00
H916   H     0.79922   0.55446   0.70980   0.00000  Uiso   1.00
N917   N     0.78403   0.50001   0.74999   0.00000  Uiso   1.00
N918   N     0.88264   0.49999   0.75001   0.00000  Uiso   1.00
O919   O     0.70625   0.43989   0.75000   0.00000  Uiso   1.00
O920   O     0.96042   0.56011   0.75000   0.00000  Uiso   1.00
O921   O     0.96039   0.43988   0.75000   0.00000  Uiso   1.00
O922   O     0.70628   0.56012   0.74999   0.00000  Uiso   1.00
O923   O     0.68519   0.50001   0.81491   0.00000  Uiso   1.00
O924   O     0.98148   0.49999   0.68508   0.00000  Uiso   1.00
O925   O     0.93933   0.50000   0.81492   0.00000  Uiso   1.00
O926   O     0.72733   0.50000   0.68508   0.00000  Uiso   1.00
Br927  Br    0.94089   0.51260   0.60992   0.00000  Uiso   1.00
Br928  Br    0.72578   0.48740   0.89008   0.00000  Uiso   1.00
Br929  Br    0.76872   0.42342   0.80469   0.00000  Uiso   1.00
Br930  Br    0.89795   0.57658   0.69531   0.00000  Uiso   1.00
C931   C     0.00022   0.75409   0.75017   0.00000  Uiso   1.00
C932   C     0.33311   0.91257   0.74983   0.00000  Uiso   1.00
C933   C     0.19107   0.80934   0.54517   0.00000  Uiso   1.00
C934   C     0.14226   0.85733   0.95483   0.00000  Uiso   1.00
C935   C     0.23933   0.80424   0.52318   0.00000  Uiso   1.00
C936   C     0.09401   0.86242   0.97681   0.00000  Uiso   1.00
C937   C     0.28968   0.68846   0.76063   0.00000  Uiso   1.00
C938   C     0.04365   0.97821   0.73937   0.00000  Uiso   1.00
C939   C     0.28939   0.97916   0.76035   0.00000  Uiso   1.00
C940   C     0.04394   0.68750   0.73965   0.00000  Uiso   1.00
C941   C     0.33303   0.95723   0.74968   0.00000  Uiso   1.00
C942   C     0.00030   0.70943   0.75032   0.00000  Uiso   1.00
C943   C     0.18637   0.80305   0.77226   0.00000  Uiso   1.00
C944   C     0.14697   0.86362   0.72774   0.00000  Uiso   1.00
C945   C     0.13724   0.80269   0.77228   0.00000  Uiso   1.00
C946   C     0.19610   0.86398   0.72772   0.00000  Uiso   1.00
C947   C     0.30627   0.83332   0.83621   0.00000  Uiso   1.00
C948   C     0.02707   0.83334   0.66379   0.00000  Uiso   1.00
C949   C     0.29146   0.83137   0.88581   0.00000  Uiso   1.00
C950   C     0.04187   0.83530   0.61419   0.00000  Uiso   1.00
C951   C     0.30573   0.81254   0.95770   0.00000  Uiso   1.00
C952   C     0.02760   0.85413   0.54230   0.00000  Uiso   1.00
C953   C     0.32372   0.82174   0.91223   0.00000  Uiso   1.00
C954   C     0.00961   0.84493   0.58777   0.00000  Uiso   1.00
C955   C     0.24234   0.83700   0.90726   0.00000  Uiso   1.00
C956   C     0.09099   0.82967   0.59274   0.00000  Uiso   1.00
C957   C     0.22428   0.83128   0.95392   0.00000  Uiso   1.00
C958   C     0.10905   0.83538   0.54608   0.00000  Uiso   1.00
C959   C     0.25648   0.81614   0.97837   0.00000  Uiso   1.00
C960   C     0.07685   0.85052   0.52163   0.00000  Uiso   1.00
C961   C     0.17504   0.83870   0.97673   0.00000  Uiso   1.00
C962   C     0.15830   0.82796   0.52327   0.00000  Uiso   1.00
Cu963  Cu    0.04689   0.83334   0.75000   0.00000  Uiso   1.00
Cu964  Cu    0.28645   0.83333   0.75000   0.00000  Uiso   1.00
H965   H     0.26343   0.79023   0.54127   0.00000  Uiso   1.00
H966   H     0.06991   0.87644   0.95873   0.00000  Uiso   1.00
H967   H     0.11489   0.82215   0.61342   0.00000  Uiso   1.00
H968   H     0.21844   0.84452   0.88658   0.00000  Uiso   1.00
H969   H     0.33053   0.80263   0.97709   0.00000  Uiso   1.00
H970   H     0.00281   0.86404   0.52291   0.00000  Uiso   1.00
H971   H     0.18059   0.79787   0.57936   0.00000  Uiso   1.00
H972   H     0.15274   0.86879   0.92064   0.00000  Uiso   1.00
H973   H     0.25551   0.70491   0.76923   0.00000  Uiso   1.00
H974   H     0.07782   0.96176   0.73077   0.00000  Uiso   1.00
H975   H     0.25514   0.96345   0.76894   0.00000  Uiso   1.00
H976   H     0.07819   0.70322   0.73106   0.00000  Uiso   1.00
H977   H     0.20078   0.77888   0.79020   0.00000  Uiso   1.00
H978   H     0.13255   0.88779   0.70980   0.00000  Uiso   1.00
N979   N     0.11736   0.83334   0.74999   0.00000  Uiso   1.00
N980   N     0.21597   0.83332   0.75001   0.00000  Uiso   1.00
O981   O     0.03958   0.77322   0.75000   0.00000  Uiso   1.00
O982   O     0.29375   0.89345   0.75000   0.00000  Uiso   1.00
O983   O     0.29372   0.77321   0.75000   0.00000  Uiso   1.00
O984   O     0.03961   0.89346   0.74999   0.00000  Uiso   1.00
O985   O     0.01852   0.83334   0.81491   0.00000  Uiso   1.00
O986   O     0.31481   0.83332   0.68508   0.00000  Uiso   1.00
O987   O     0.27267   0.83333   0.81492   0.00000  Uiso   1.00
O988   O     0.06067   0.83333   0.68508   0.00000  Uiso   1.00
Br989  Br    0.27422   0.84593   0.60992   0.00000  Uiso   1.00
Br990  Br    0.05912   0.82073   0.89008   0.00000  Uiso   1.00
Br991  Br    0.10205   0.75675   0.80469   0.00000  Uiso   1.00
Br992  Br    0.23128   0.90992   0.69531   0.00000  Uiso   1.00
C993   C     0.33356   0.75409   0.75017   0.00000  Uiso   1.00
C994   C     0.66644   0.91257   0.74983   0.00000  Uiso   1.00
C995   C     0.52441   0.80934   0.54517   0.00000  Uiso   1.00
C996   C     0.47559   0.85733   0.95483   0.00000  Uiso   1.00
C997   C     0.57266   0.80424   0.52318   0.00000  Uiso   1.00
C998   C     0.42734   0.86242   0.97681   0.00000  Uiso   1.00
C999   C     0.62301   0.68846   0.76063   0.00000  Uiso   1.00
C1000  C     0.37699   0.97821   0.73937   0.00000  Uiso   1.00
C1001  C     0.62272   0.97916   0.76035   0.00000  Uiso   1.00
C1002  C     0.37728   0.68750   0.73965   0.00000  Uiso   1.00
C1003  C     0.66636   0.95723   0.74968   0.00000  Uiso   1.00
C1004  C     0.33364   0.70943   0.75032   0.00000  Uiso   1.00
C1005  C     0.51970   0.80305   0.77226   0.00000  Uiso   1.00
C1006  C     0.48030   0.86362   0.72774   0.00000  Uiso   1.00
C1007  C     0.47057   0.80269   0.77228   0.00000  Uiso   1.00
C1008  C     0.52943   0.86398   0.72772   0.00000  Uiso   1.00
C1009  C     0.63960   0.83332   0.83621   0.00000  Uiso   1.00
C1010  C     0.36040   0.83334   0.66379   0.00000  Uiso   1.00
C1011  C     0.62479   0.83137   0.88581   0.00000  Uiso   1.00
C1012  C     0.37521   0.83530   0.61419   0.00000  Uiso   1.00
C1013  C     0.63906   0.81254   0.95770   0.00000  Uiso   1.00
C1014  C     0.36094   0.85413   0.54230   0.00000  Uiso   1.00
C1015  C     0.65706   0.82174   0.91223   0.00000  Uiso   1.00
C1016  C     0.34294   0.84493   0.58777   0.00000  Uiso   1.00
C1017  C     0.57568   0.83700   0.90726   0.00000  Uiso   1.00
C1018  C     0.42432   0.82967   0.59274   0.00000  Uiso   1.00
C1019  C     0.55762   0.83128   0.95392   0.00000  Uiso   1.00
C1020  C     0.44238   0.83538   0.54608   0.00000  Uiso   1.00
C1021  C     0.58981   0.81614   0.97837   0.00000  Uiso   1.00
C1022  C     0.41019   0.85052   0.52163   0.00000  Uiso   1.00
C1023  C     0.50837   0.83870   0.97673   0.00000  Uiso   1.00
C1024  C     0.49163   0.82796   0.52327   0.00000  Uiso   1.00
Cu1025 Cu    0.38022   0.83334   0.75000   0.00000  Uiso   1.00
Cu1026 Cu    0.61978   0.83333   0.75000   0.00000  Uiso   1.00
H1027  H     0.59676   0.79023   0.54127   0.00000  Uiso   1.00
H1028  H     0.40324   0.87644   0.95873   0.00000  Uiso   1.00
H1029  H     0.44822   0.82215   0.61342   0.00000  Uiso   1.00
H1030  H     0.55178   0.84452   0.88658   0.00000  Uiso   1.00
H1031  H     0.66386   0.80263   0.97709   0.00000  Uiso   1.00
H1032  H     0.33614   0.86404   0.52291   0.00000  Uiso   1.00
H1033  H     0.51393   0.79787   0.57936   0.00000  Uiso   1.00
H1034  H     0.48607   0.86879   0.92064   0.00000  Uiso   1.00
H1035  H     0.58884   0.70491   0.76923   0.00000  Uiso   1.00
H1036  H     0.41116   0.96176   0.73077   0.00000  Uiso   1.00
H1037  H     0.58848   0.96345   0.76894   0.00000  Uiso   1.00
H1038  H     0.41152   0.70322   0.73106   0.00000  Uiso   1.00
H1039  H     0.53412   0.77888   0.79020   0.00000  Uiso   1.00
H1040  H     0.46588   0.88779   0.70980   0.00000  Uiso   1.00
N1041  N     0.45069   0.83334   0.74999   0.00000  Uiso   1.00
N1042  N     0.54931   0.83332   0.75001   0.00000  Uiso   1.00
O1043  O     0.37291   0.77322   0.75000   0.00000  Uiso   1.00
O1044  O     0.62709   0.89345   0.75000   0.00000  Uiso   1.00
O1045  O     0.62706   0.77321   0.75000   0.00000  Uiso   1.00
O1046  O     0.37294   0.89346   0.74999   0.00000  Uiso   1.00
O1047  O     0.35186   0.83334   0.81491   0.00000  Uiso   1.00
O1048  O     0.64814   0.83332   0.68508   0.00000  Uiso   1.00
O1049  O     0.60600   0.83333   0.81492   0.00000  Uiso   1.00
O1050  O     0.39400   0.83333   0.68508   0.00000  Uiso   1.00
Br1051 Br    0.60755   0.84593   0.60992   0.00000  Uiso   1.00
Br1052 Br    0.39245   0.82073   0.89008   0.00000  Uiso   1.00
Br1053 Br    0.43538   0.75675   0.80469   0.00000  Uiso   1.00
Br1054 Br    0.56462   0.90992   0.69531   0.00000  Uiso   1.00
C1055  C     0.66689   0.75409   0.75017   0.00000  Uiso   1.00
C1056  C     0.99978   0.91257   0.74983   0.00000  Uiso   1.00
C1057  C     0.85774   0.80934   0.54517   0.00000  Uiso   1.00
C1058  C     0.80893   0.85733   0.95483   0.00000  Uiso   1.00
C1059  C     0.90600   0.80424   0.52318   0.00000  Uiso   1.00
C1060  C     0.76067   0.86242   0.97681   0.00000  Uiso   1.00
C1061  C     0.95635   0.68846   0.76063   0.00000  Uiso   1.00
C1062  C     0.71032   0.97821   0.73937   0.00000  Uiso   1.00
C1063  C     0.95606   0.97916   0.76035   0.00000  Uiso   1.00
C1064  C     0.71061   0.68750   0.73965   0.00000  Uiso   1.00
C1065  C     0.99970   0.95723   0.74968   0.00000  Uiso   1.00
C1066  C     0.66697   0.70943   0.75032   0.00000  Uiso   1.00
C1067  C     0.85303   0.80305   0.77226   0.00000  Uiso   1.00
C1068  C     0.81363   0.86362   0.72774   0.00000  Uiso   1.00
C1069  C     0.80390   0.80269   0.77228   0.00000  Uiso   1.00
C1070  C     0.86276   0.86398   0.72772   0.00000  Uiso   1.00
C1071  C     0.97293   0.83332   0.83621   0.00000  Uiso   1.00
C1072  C     0.69373   0.83334   0.66379   0.00000  Uiso   1.00
C1073  C     0.95813   0.83137   0.88581   0.00000  Uiso   1.00
C1074  C     0.70854   0.83530   0.61419   0.00000  Uiso   1.00
C1075  C     0.97240   0.81254   0.95770   0.00000  Uiso   1.00
C1076  C     0.69427   0.85413   0.54230   0.00000  Uiso   1.00
C1077  C     0.99039   0.82174   0.91223   0.00000  Uiso   1.00
C1078  C     0.67628   0.84493   0.58777   0.00000  Uiso   1.00
C1079  C     0.90901   0.83700   0.90726   0.00000  Uiso   1.00
C1080  C     0.75766   0.82967   0.59274   0.00000  Uiso   1.00
C1081  C     0.89095   0.83128   0.95392   0.00000  Uiso   1.00
C1082  C     0.77572   0.83538   0.54608   0.00000  Uiso   1.00
C1083  C     0.92315   0.81614   0.97837   0.00000  Uiso   1.00
C1084  C     0.74352   0.85052   0.52163   0.00000  Uiso   1.00
C1085  C     0.84170   0.83870   0.97673   0.00000  Uiso   1.00
C1086  C     0.82496   0.82796   0.52327   0.00000  Uiso   1.00
Cu1087 Cu    0.71355   0.83334   0.75000   0.00000  Uiso   1.00
Cu1088 Cu    0.95311   0.83333   0.75000   0.00000  Uiso   1.00
H1089  H     0.93009   0.79023   0.54127   0.00000  Uiso   1.00
H1090  H     0.73657   0.87644   0.95873   0.00000  Uiso   1.00
H1091  H     0.78156   0.82215   0.61342   0.00000  Uiso   1.00
H1092  H     0.88511   0.84452   0.88658   0.00000  Uiso   1.00
H1093  H     0.99719   0.80263   0.97709   0.00000  Uiso   1.00
H1094  H     0.66947   0.86404   0.52291   0.00000  Uiso   1.00
H1095  H     0.84726   0.79787   0.57936   0.00000  Uiso   1.00
H1096  H     0.81941   0.86879   0.92064   0.00000  Uiso   1.00
H1097  H     0.92218   0.70491   0.76923   0.00000  Uiso   1.00
H1098  H     0.74449   0.96176   0.73077   0.00000  Uiso   1.00
H1099  H     0.92181   0.96345   0.76894   0.00000  Uiso   1.00
H1100  H     0.74486   0.70322   0.73106   0.00000  Uiso   1.00
H1101  H     0.86745   0.77888   0.79020   0.00000  Uiso   1.00
H1102  H     0.79922   0.88779   0.70980   0.00000  Uiso   1.00
N1103  N     0.78403   0.83334   0.74999   0.00000  Uiso   1.00
N1104  N     0.88264   0.83332   0.75001   0.00000  Uiso   1.00
O1105  O     0.70625   0.77322   0.75000   0.00000  Uiso   1.00
O1106  O     0.96042   0.89345   0.75000   0.00000  Uiso   1.00
O1107  O     0.96039   0.77321   0.75000   0.00000  Uiso   1.00
O1108  O     0.70628   0.89346   0.74999   0.00000  Uiso   1.00
O1109  O     0.68519   0.83334   0.81491   0.00000  Uiso   1.00
O1110  O     0.98148   0.83332   0.68508   0.00000  Uiso   1.00
O1111  O     0.93933   0.83333   0.81492   0.00000  Uiso   1.00
O1112  O     0.72733   0.83333   0.68508   0.00000  Uiso   1.00
Br1113 Br    0.94089   0.84593   0.60992   0.00000  Uiso   1.00
Br1114 Br    0.72578   0.82073   0.89008   0.00000  Uiso   1.00
Br1115 Br    0.76872   0.75675   0.80469   0.00000  Uiso   1.00
Br1116 Br    0.89795   0.90992   0.69531   0.00000  Uiso   1.00
loop_
_geom_bond_atom_site_label_1
_geom_bond_atom_site_label_2
_geom_bond_distance
_geom_bond_site_symmetry_2
_ccdc_geom_bond_type
C1     O51     1.301   .     A
C1     C12     1.449   .     S
C1     O177    1.293   1_455 S
C2     O52     1.301   .     A
C2     C11     1.449   .     S
C2     O116    1.293   .     S
C3     C5      1.386   .     A
C3     C32     1.413   .     A
C3     H41     1.077   .     S
C4     H42     1.077   .     S
C4     C6      1.386   .     A
C4     C31     1.413   .     A
C5     H35     1.084   .     S
C5     C587    1.389   1_554 S
C6     H36     1.084   .     S
C6     C588    1.389   .     S
C7     H43     1.083   .     S
C7     C381    1.383   1_545 S
C7     C74     1.403   .     S
C8     H44     1.083   .     S
C8     C196    1.383   .     S
C8     C135    1.403   1_455 S
C9     H45     1.083   .     S
C9     C11     1.398   .     A
C9     C193    1.383   .     S
C10    C12     1.398   .     A
C10    H46     1.083   .     S
C10    C380    1.383   1_545 S
C11    C70     1.403   .     S
C12    C131    1.403   1_455 S
C13    H47     1.082   .     S
C13    C15     1.413   .     A
C13    N50     1.356   .     A
C14    C16     1.413   .     A
C14    N49     1.356   .     A
C14    H48     1.082   .     S
C15    Br61    1.914   .     S
C15    N49     1.387   .     A
C16    N50     1.387   .     A
C16    Br62    1.914   .     S
C17    C19     1.484   .     S
C17    O57     1.306   .     A
C17    O117    1.304   .     S
C18    C20     1.484   .     S
C18    O58     1.306   .     A
C18    O180    1.304   1_455 S
C19    C23     1.414   .     A
C19    C25     1.406   .     A
C20    C24     1.414   .     A
C20    C26     1.406   .     A
C21    H39     1.084   .     S
C21    C23     1.392   .     A
C21    C29     1.397   .     A
C22    H40     1.084   .     S
C22    C24     1.392   .     A
C22    C30     1.397   .     A
C23    Br122   1.914   .     S
C24    Br183   1.914   1_455 S
C25    H38     1.076   .     S
C25    C27     1.410   .     A
C26    H37     1.076   .     S
C26    C28     1.410   .     A
C27    C29     1.413   .     A
C27    C31     1.427   .     A
C28    C30     1.413   .     A
C28    C32     1.427   .     A
C29    C563    1.389   .     S
C30    C564    1.389   1_554 S
C31    C590    1.428   .     S
C32    C589    1.428   1_554 S
Cu33   O55     1.964   .     S
Cu33   O58     1.948   .     S
Cu33   N49     2.027   .     S
Cu33   O54     1.957   .     S
Cu33   O51     1.966   .     S
Cu33   Cu158   2.697   1_455 S
Cu34   O57     1.948   .     S
Cu34   O56     1.964   .     S
Cu34   O53     1.957   .     S
Cu34   N50     2.027   .     S
Cu34   O52     1.966   .     S
Cu34   Cu95    2.697   .     S
O53    C63     1.293   .     S
O54    C126    1.293   1_455 S
O55    C141    1.304   1_455 S
O56    C80     1.304   .     S
Br59   C86     1.914   .     S
Br60   C147    1.914   1_455 S
C63    O113    1.301   .     A
C63    C74     1.449   .     S
C64    O114    1.301   .     A
C64    C73     1.449   .     S
C64    O178    1.293   .     S
C65    C67     1.386   .     A
C65    C94     1.413   .     A
C65    H103    1.077   .     S
C66    H104    1.077   .     S
C66    C68     1.386   .     A
C66    C93     1.413   .     A
C67    H97     1.084   .     S
C67    C649    1.389   1_554 S
C68    H98     1.084   .     S
C68    C650    1.389   .     S
C69    H105    1.083   .     S
C69    C443    1.383   1_545 S
C69    C136    1.403   .     S
C70    H106    1.083   .     S
C70    C258    1.383   .     S
C71    H107    1.083   .     S
C71    C73     1.398   .     A
C71    C255    1.383   .     S
C72    C74     1.398   .     A
C72    H108    1.083   .     S
C72    C442    1.383   1_545 S
C73    C132    1.403   .     S
C75    H109    1.082   .     S
C75    C77     1.413   .     A
C75    N112    1.356   .     A
C76    C78     1.413   .     A
C76    N111    1.356   .     A
C76    H110    1.082   .     S
C77    Br123   1.914   .     S
C77    N111    1.387   .     A
C78    N112    1.387   .     A
C78    Br124   1.914   .     S
C79    C81     1.484   .     S
C79    O119    1.306   .     A
C79    O179    1.304   .     S
C80    C82     1.484   .     S
C80    O120    1.306   .     A
C81    C85     1.414   .     A
C81    C87     1.406   .     A
C82    C86     1.414   .     A
C82    C88     1.406   .     A
C83    H101    1.084   .     S
C83    C85     1.392   .     A
C83    C91     1.397   .     A
C84    H102    1.084   .     S
C84    C86     1.392   .     A
C84    C92     1.397   .     A
C85    Br184   1.914   .     S
C87    H100    1.076   .     S
C87    C89     1.410   .     A
C88    H99     1.076   .     S
C88    C90     1.410   .     A
C89    C91     1.413   .     A
C89    C93     1.427   .     A
C90    C92     1.413   .     A
C90    C94     1.427   .     A
C91    C625    1.389   .     S
C92    C626    1.389   1_554 S
C93    C652    1.428   .     S
C94    C651    1.428   1_554 S
Cu95   O117    1.964   .     S
Cu95   O120    1.948   .     S
Cu95   N111    2.027   .     S
Cu95   O116    1.957   .     S
Cu95   O113    1.966   .     S
Cu96   O119    1.948   .     S
Cu96   O118    1.964   .     S
Cu96   O115    1.957   .     S
Cu96   N112    2.027   .     S
Cu96   O114    1.966   .     S
Cu96   Cu157   2.697   .     S
O115   C125    1.293   .     S
O118   C142    1.304   .     S
Br121  C148    1.914   .     S
C125   O175    1.301   .     A
C125   C136    1.449   .     S
C126   O176    1.301   .     A
C126   C135    1.449   .     S
C126   O54     1.293   1_655 S
C127   C129    1.386   .     A
C127   C156    1.413   .     A
C127   H165    1.077   .     S
C128   H166    1.077   .     S
C128   C130    1.386   .     A
C128   C155    1.413   .     A
C129   H159    1.084   .     S
C129   C711    1.389   1_554 S
C130   H160    1.084   .     S
C130   C712    1.389   .     S
C131   H167    1.083   .     S
C131   C505    1.383   1_545 S
C131   C12     1.403   1_655 S
C132   H168    1.083   .     S
C132   C320    1.383   .     S
C133   H169    1.083   .     S
C133   C135    1.398   .     A
C133   C317    1.383   .     S
C134   C136    1.398   .     A
C134   H170    1.083   .     S
C134   C504    1.383   1_545 S
C135   C8      1.403   1_655 S
C137   H171    1.082   .     S
C137   C139    1.413   .     A
C137   N174    1.356   .     A
C138   C140    1.413   .     A
C138   N173    1.356   .     A
C138   H172    1.082   .     S
C139   Br185   1.914   .     S
C139   N173    1.387   .     A
C140   N174    1.387   .     A
C140   Br186   1.914   .     S
C141   C143    1.484   .     S
C141   O181    1.306   .     A
C141   O55     1.304   1_655 S
C142   C144    1.484   .     S
C142   O182    1.306   .     A
C143   C147    1.414   .     A
C143   C149    1.406   .     A
C144   C148    1.414   .     A
C144   C150    1.406   .     A
C145   H163    1.084   .     S
C145   C147    1.392   .     A
C145   C153    1.397   .     A
C146   H164    1.084   .     S
C146   C148    1.392   .     A
C146   C154    1.397   .     A
C147   Br60    1.914   1_655 S
C149   H162    1.076   .     S
C149   C151    1.410   .     A
C150   H161    1.076   .     S
C150   C152    1.410   .     A
C151   C153    1.413   .     A
C151   C155    1.427   .     A
C152   C154    1.413   .     A
C152   C156    1.427   .     A
C153   C687    1.389   .     S
C154   C688    1.389   1_554 S
C155   C714    1.428   .     S
C156   C713    1.428   1_554 S
Cu157  O179    1.964   .     S
Cu157  O182    1.948   .     S
Cu157  N173    2.027   .     S
Cu157  O178    1.957   .     S
Cu157  O175    1.966   .     S
Cu158  O181    1.948   .     S
Cu158  O180    1.964   .     S
Cu158  O177    1.957   .     S
Cu158  N174    2.027   .     S
Cu158  O176    1.966   .     S
Cu158  Cu33    2.697   1_655 S
O177   C1      1.293   1_655 S
O180   C18     1.304   1_655 S
Br183  C24     1.914   1_655 S
C187   O237    1.301   .     A
C187   C198    1.449   .     S
C187   O363    1.293   1_455 S
C188   O238    1.301   .     A
C188   C197    1.449   .     S
C188   O302    1.293   .     S
C189   C191    1.386   .     A
C189   C218    1.413   .     A
C189   H227    1.077   .     S
C190   H228    1.077   .     S
C190   C192    1.386   .     A
C190   C217    1.413   .     A
C191   H221    1.084   .     S
C191   C773    1.389   1_554 S
C192   H222    1.084   .     S
C192   C774    1.389   .     S
C193   H229    1.083   .     S
C193   C260    1.403   .     S
C194   H230    1.083   .     S
C194   C382    1.383   .     S
C194   C321    1.403   1_455 S
C195   H231    1.083   .     S
C195   C197    1.398   .     A
C195   C379    1.383   .     S
C196   C198    1.398   .     A
C196   H232    1.083   .     S
C197   C256    1.403   .     S
C198   C317    1.403   1_455 S
C199   H233    1.082   .     S
C199   C201    1.413   .     A
C199   N236    1.356   .     A
C200   C202    1.413   .     A
C200   N235    1.356   .     A
C200   H234    1.082   .     S
C201   Br247   1.914   .     S
C201   N235    1.387   .     A
C202   N236    1.387   .     A
C202   Br248   1.914   .     S
C203   C205    1.484   .     S
C203   O243    1.306   .     A
C203   O303    1.304   .     S
C204   C206    1.484   .     S
C204   O244    1.306   .     A
C204   O366    1.304   1_455 S
C205   C209    1.414   .     A
C205   C211    1.406   .     A
C206   C210    1.414   .     A
C206   C212    1.406   .     A
C207   H225    1.084   .     S
C207   C209    1.392   .     A
C207   C215    1.397   .     A
C208   H226    1.084   .     S
C208   C210    1.392   .     A
C208   C216    1.397   .     A
C209   Br308   1.914   .     S
C210   Br369   1.914   1_455 S
C211   H224    1.076   .     S
C211   C213    1.410   .     A
C212   H223    1.076   .     S
C212   C214    1.410   .     A
C213   C215    1.413   .     A
C213   C217    1.427   .     A
C214   C216    1.413   .     A
C214   C218    1.427   .     A
C215   C749    1.389   .     S
C216   C750    1.389   1_554 S
C217   C776    1.428   .     S
C218   C775    1.428   1_554 S
Cu219  O241    1.964   .     S
Cu219  O244    1.948   .     S
Cu219  N235    2.027   .     S
Cu219  O240    1.957   .     S
Cu219  O237    1.966   .     S
Cu219  Cu344   2.697   1_455 S
Cu220  O243    1.948   .     S
Cu220  O242    1.964   .     S
Cu220  O239    1.957   .     S
Cu220  N236    2.027   .     S
Cu220  O238    1.966   .     S
Cu220  Cu281   2.697   .     S
O239   C249    1.293   .     S
O240   C312    1.293   1_455 S
O241   C327    1.304   1_455 S
O242   C266    1.304   .     S
Br245  C272    1.914   .     S
Br246  C333    1.914   1_455 S
C249   O299    1.301   .     A
C249   C260    1.449   .     S
C250   O300    1.301   .     A
C250   C259    1.449   .     S
C250   O364    1.293   .     S
C251   C253    1.386   .     A
C251   C280    1.413   .     A
C251   H289    1.077   .     S
C252   H290    1.077   .     S
C252   C254    1.386   .     A
C252   C279    1.413   .     A
C253   H283    1.084   .     S
C253   C835    1.389   1_554 S
C254   H284    1.084   .     S
C254   C836    1.389   .     S
C255   H291    1.083   .     S
C255   C322    1.403   .     S
C256   H292    1.083   .     S
C256   C444    1.383   .     S
C257   H293    1.083   .     S
C257   C259    1.398   .     A
C257   C441    1.383   .     S
C258   C260    1.398   .     A
C258   H294    1.083   .     S
C259   C318    1.403   .     S
C261   H295    1.082   .     S
C261   C263    1.413   .     A
C261   N298    1.356   .     A
C262   C264    1.413   .     A
C262   N297    1.356   .     A
C262   H296    1.082   .     S
C263   Br309   1.914   .     S
C263   N297    1.387   .     A
C264   N298    1.387   .     A
C264   Br310   1.914   .     S
C265   C267    1.484   .     S
C265   O305    1.306   .     A
C265   O365    1.304   .     S
C266   C268    1.484   .     S
C266   O306    1.306   .     A
C267   C271    1.414   .     A
C267   C273    1.406   .     A
C268   C272    1.414   .     A
C268   C274    1.406   .     A
C269   H287    1.084   .     S
C269   C271    1.392   .     A
C269   C277    1.397   .     A
C270   H288    1.084   .     S
C270   C272    1.392   .     A
C270   C278    1.397   .     A
C271   Br370   1.914   .     S
C273   H286    1.076   .     S
C273   C275    1.410   .     A
C274   H285    1.076   .     S
C274   C276    1.410   .     A
C275   C277    1.413   .     A
C275   C279    1.427   .     A
C276   C278    1.413   .     A
C276   C280    1.427   .     A
C277   C811    1.389   .     S
C278   C812    1.389   1_554 S
C279   C838    1.428   .     S
C280   C837    1.428   1_554 S
Cu281  O303    1.964   .     S
Cu281  O306    1.948   .     S
Cu281  N297    2.027   .     S
Cu281  O302    1.957   .     S
Cu281  O299    1.966   .     S
Cu282  O305    1.948   .     S
Cu282  O304    1.964   .     S
Cu282  O301    1.957   .     S
Cu282  N298    2.027   .     S
Cu282  O300    1.966   .     S
Cu282  Cu343   2.697   .     S
O301   C311    1.293   .     S
O304   C328    1.304   .     S
Br307  C334    1.914   .     S
C311   O361    1.301   .     A
C311   C322    1.449   .     S
C312   O362    1.301   .     A
C312   C321    1.449   .     S
C312   O240    1.293   1_655 S
C313   C315    1.386   .     A
C313   C342    1.413   .     A
C313   H351    1.077   .     S
C314   H352    1.077   .     S
C314   C316    1.386   .     A
C314   C341    1.413   .     A
C315   H345    1.084   .     S
C315   C897    1.389   1_554 S
C316   H346    1.084   .     S
C316   C898    1.389   .     S
C317   H353    1.083   .     S
C317   C198    1.403   1_655 S
C318   H354    1.083   .     S
C318   C506    1.383   .     S
C319   H355    1.083   .     S
C319   C321    1.398   .     A
C319   C503    1.383   .     S
C320   C322    1.398   .     A
C320   H356    1.083   .     S
C321   C194    1.403   1_655 S
C323   H357    1.082   .     S
C323   C325    1.413   .     A
C323   N360    1.356   .     A
C324   C326    1.413   .     A
C324   N359    1.356   .     A
C324   H358    1.082   .     S
C325   Br371   1.914   .     S
C325   N359    1.387   .     A
C326   N360    1.387   .     A
C326   Br372   1.914   .     S
C327   C329    1.484   .     S
C327   O367    1.306   .     A
C327   O241    1.304   1_655 S
C328   C330    1.484   .     S
C328   O368    1.306   .     A
C329   C333    1.414   .     A
C329   C335    1.406   .     A
C330   C334    1.414   .     A
C330   C336    1.406   .     A
C331   H349    1.084   .     S
C331   C333    1.392   .     A
C331   C339    1.397   .     A
C332   H350    1.084   .     S
C332   C334    1.392   .     A
C332   C340    1.397   .     A
C333   Br246   1.914   1_655 S
C335   H348    1.076   .     S
C335   C337    1.410   .     A
C336   H347    1.076   .     S
C336   C338    1.410   .     A
C337   C339    1.413   .     A
C337   C341    1.427   .     A
C338   C340    1.413   .     A
C338   C342    1.427   .     A
C339   C873    1.389   .     S
C340   C874    1.389   1_554 S
C341   C900    1.428   .     S
C342   C899    1.428   1_554 S
Cu343  O365    1.964   .     S
Cu343  O368    1.948   .     S
Cu343  N359    2.027   .     S
Cu343  O364    1.957   .     S
Cu343  O361    1.966   .     S
Cu344  O367    1.948   .     S
Cu344  O366    1.964   .     S
Cu344  O363    1.957   .     S
Cu344  N360    2.027   .     S
Cu344  O362    1.966   .     S
Cu344  Cu219   2.697   1_655 S
O363   C187    1.293   1_655 S
O366   C204    1.304   1_655 S
Br369  C210    1.914   1_655 S
C373   O423    1.301   .     A
C373   C384    1.449   .     S
C373   O549    1.293   1_455 S
C374   O424    1.301   .     A
C374   C383    1.449   .     S
C374   O488    1.293   .     S
C375   C377    1.386   .     A
C375   C404    1.413   .     A
C375   H413    1.077   .     S
C376   H414    1.077   .     S
C376   C378    1.386   .     A
C376   C403    1.413   .     A
C377   H407    1.084   .     S
C377   C959    1.389   1_554 S
C378   H408    1.084   .     S
C378   C960    1.389   .     S
C379   H415    1.083   .     S
C379   C446    1.403   .     S
C380   H416    1.083   .     S
C380   C10     1.383   1_565 S
C380   C507    1.403   1_455 S
C381   H417    1.083   .     S
C381   C383    1.398   .     A
C381   C7      1.383   1_565 S
C382   C384    1.398   .     A
C382   H418    1.083   .     S
C383   C442    1.403   .     S
C384   C503    1.403   1_455 S
C385   H419    1.082   .     S
C385   C387    1.413   .     A
C385   N422    1.356   .     A
C386   C388    1.413   .     A
C386   N421    1.356   .     A
C386   H420    1.082   .     S
C387   Br433   1.914   .     S
C387   N421    1.387   .     A
C388   N422    1.387   .     A
C388   Br434   1.914   .     S
C389   C391    1.484   .     S
C389   O429    1.306   .     A
C389   O489    1.304   .     S
C390   C392    1.484   .     S
C390   O430    1.306   .     A
C390   O552    1.304   1_455 S
C391   C395    1.414   .     A
C391   C397    1.406   .     A
C392   C396    1.414   .     A
C392   C398    1.406   .     A
C393   H411    1.084   .     S
C393   C395    1.392   .     A
C393   C401    1.397   .     A
C394   H412    1.084   .     S
C394   C396    1.392   .     A
C394   C402    1.397   .     A
C395   Br494   1.914   .     S
C396   Br555   1.914   1_455 S
C397   H410    1.076   .     S
C397   C399    1.410   .     A
C398   H409    1.076   .     S
C398   C400    1.410   .     A
C399   C401    1.413   .     A
C399   C403    1.427   .     A
C400   C402    1.413   .     A
C400   C404    1.427   .     A
C401   C935    1.389   .     S
C402   C936    1.389   1_554 S
C403   C962    1.428   .     S
C404   C961    1.428   1_554 S
Cu405  O427    1.964   .     S
Cu405  O430    1.948   .     S
Cu405  N421    2.027   .     S
Cu405  O426    1.957   .     S
Cu405  O423    1.966   .     S
Cu405  Cu530   2.697   1_455 S
Cu406  O429    1.948   .     S
Cu406  O428    1.964   .     S
Cu406  O425    1.957   .     S
Cu406  N422    2.027   .     S
Cu406  O424    1.966   .     S
Cu406  Cu467   2.697   .     S
O425   C435    1.293   .     S
O426   C498    1.293   1_455 S
O427   C513    1.304   1_455 S
O428   C452    1.304   .     S
Br431  C458    1.914   .     S
Br432  C519    1.914   1_455 S
C435   O485    1.301   .     A
C435   C446    1.449   .     S
C436   O486    1.301   .     A
C436   C445    1.449   .     S
C436   O550    1.293   .     S
C437   C439    1.386   .     A
C437   C466    1.413   .     A
C437   H475    1.077   .     S
C438   H476    1.077   .     S
C438   C440    1.386   .     A
C438   C465    1.413   .     A
C439   H469    1.084   .     S
C439   C1021   1.389   1_554 S
C440   H470    1.084   .     S
C440   C1022   1.389   .     S
C441   H477    1.083   .     S
C441   C508    1.403   .     S
C442   H478    1.083   .     S
C442   C72     1.383   1_565 S
C443   H479    1.083   .     S
C443   C445    1.398   .     A
C443   C69     1.383   1_565 S
C444   C446    1.398   .     A
C444   H480    1.083   .     S
C445   C504    1.403   .     S
C447   H481    1.082   .     S
C447   C449    1.413   .     A
C447   N484    1.356   .     A
C448   C450    1.413   .     A
C448   N483    1.356   .     A
C448   H482    1.082   .     S
C449   Br495   1.914   .     S
C449   N483    1.387   .     A
C450   N484    1.387   .     A
C450   Br496   1.914   .     S
C451   C453    1.484   .     S
C451   O491    1.306   .     A
C451   O551    1.304   .     S
C452   C454    1.484   .     S
C452   O492    1.306   .     A
C453   C457    1.414   .     A
C453   C459    1.406   .     A
C454   C458    1.414   .     A
C454   C460    1.406   .     A
C455   H473    1.084   .     S
C455   C457    1.392   .     A
C455   C463    1.397   .     A
C456   H474    1.084   .     S
C456   C458    1.392   .     A
C456   C464    1.397   .     A
C457   Br556   1.914   .     S
C459   H472    1.076   .     S
C459   C461    1.410   .     A
C460   H471    1.076   .     S
C460   C462    1.410   .     A
C461   C463    1.413   .     A
C461   C465    1.427   .     A
C462   C464    1.413   .     A
C462   C466    1.427   .     A
C463   C997    1.389   .     S
C464   C998    1.389   1_554 S
C465   C1024   1.428   .     S
C466   C1023   1.428   1_554 S
Cu467  O489    1.964   .     S
Cu467  O492    1.948   .     S
Cu467  N483    2.027   .     S
Cu467  O488    1.957   .     S
Cu467  O485    1.966   .     S
Cu468  O491    1.948   .     S
Cu468  O490    1.964   .     S
Cu468  O487    1.957   .     S
Cu468  N484    2.027   .     S
Cu468  O486    1.966   .     S
Cu468  Cu529   2.697   .     S
O487   C497    1.293   .     S
O490   C514    1.304   .     S
Br493  C520    1.914   .     S
C497   O547    1.301   .     A
C497   C508    1.449   .     S
C498   O548    1.301   .     A
C498   C507    1.449   .     S
C498   O426    1.293   1_655 S
C499   C501    1.386   .     A
C499   C528    1.413   .     A
C499   H537    1.077   .     S
C500   H538    1.077   .     S
C500   C502    1.386   .     A
C500   C527    1.413   .     A
C501   H531    1.084   .     S
C501   C1083   1.389   1_554 S
C502   H532    1.084   .     S
C502   C1084   1.389   .     S
C503   H539    1.083   .     S
C503   C384    1.403   1_655 S
C504   H540    1.083   .     S
C504   C134    1.383   1_565 S
C505   H541    1.083   .     S
C505   C507    1.398   .     A
C505   C131    1.383   1_565 S
C506   C508    1.398   .     A
C506   H542    1.083   .     S
C507   C380    1.403   1_655 S
C509   H543    1.082   .     S
C509   C511    1.413   .     A
C509   N546    1.356   .     A
C510   C512    1.413   .     A
C510   N545    1.356   .     A
C510   H544    1.082   .     S
C511   Br557   1.914   .     S
C511   N545    1.387   .     A
C512   N546    1.387   .     A
C512   Br558   1.914   .     S
C513   C515    1.484   .     S
C513   O553    1.306   .     A
C513   O427    1.304   1_655 S
C514   C516    1.484   .     S
C514   O554    1.306   .     A
C515   C519    1.414   .     A
C515   C521    1.406   .     A
C516   C520    1.414   .     A
C516   C522    1.406   .     A
C517   H535    1.084   .     S
C517   C519    1.392   .     A
C517   C525    1.397   .     A
C518   H536    1.084   .     S
C518   C520    1.392   .     A
C518   C526    1.397   .     A
C519   Br432   1.914   1_655 S
C521   H534    1.076   .     S
C521   C523    1.410   .     A
C522   H533    1.076   .     S
C522   C524    1.410   .     A
C523   C525    1.413   .     A
C523   C527    1.427   .     A
C524   C526    1.413   .     A
C524   C528    1.427   .     A
C525   C1059   1.389   .     S
C526   C1060   1.389   1_554 S
C527   C1086   1.428   .     S
C528   C1085   1.428   1_554 S
Cu529  O551    1.964   .     S
Cu529  O554    1.948   .     S
Cu529  N545    2.027   .     S
Cu529  O550    1.957   .     S
Cu529  O547    1.966   .     S
Cu530  O553    1.948   .     S
Cu530  O552    1.964   .     S
Cu530  O549    1.957   .     S
Cu530  N546    2.027   .     S
Cu530  O548    1.966   .     S
Cu530  Cu405   2.697   1_655 S
O549   C373    1.293   1_655 S
O552   C390    1.304   1_655 S
Br555  C396    1.914   1_655 S
C559   O609    1.301   .     A
C559   C570    1.449   .     S
C559   O735    1.293   1_455 S
C560   O610    1.301   .     A
C560   C569    1.449   .     S
C560   O674    1.293   .     S
C561   C563    1.386   .     A
C561   C590    1.413   .     A
C561   H599    1.077   .     S
C562   H600    1.077   .     S
C562   C564    1.386   .     A
C562   C589    1.413   .     A
C563   H593    1.084   .     S
C564   H594    1.084   .     S
C564   C30     1.389   1_556 S
C565   H601    1.083   .     S
C565   C939    1.383   1_545 S
C565   C632    1.403   .     S
C566   H602    1.083   .     S
C566   C754    1.383   .     S
C566   C693    1.403   1_455 S
C567   H603    1.083   .     S
C567   C569    1.398   .     A
C567   C751    1.383   .     S
C568   C570    1.398   .     A
C568   H604    1.083   .     S
C568   C938    1.383   1_545 S
C569   C628    1.403   .     S
C570   C689    1.403   1_455 S
C571   H605    1.082   .     S
C571   C573    1.413   .     A
C571   N608    1.356   .     A
C572   C574    1.413   .     A
C572   N607    1.356   .     A
C572   H606    1.082   .     S
C573   Br619   1.914   .     S
C573   N607    1.387   .     A
C574   N608    1.387   .     A
C574   Br620   1.914   .     S
C575   C577    1.484   .     S
C575   O615    1.306   .     A
C575   O675    1.304   .     S
C576   C578    1.484   .     S
C576   O616    1.306   .     A
C576   O738    1.304   1_455 S
C577   C581    1.414   .     A
C577   C583    1.406   .     A
C578   C582    1.414   .     A
C578   C584    1.406   .     A
C579   H597    1.084   .     S
C579   C581    1.392   .     A
C579   C587    1.397   .     A
C580   H598    1.084   .     S
C580   C582    1.392   .     A
C580   C588    1.397   .     A
C581   Br680   1.914   .     S
C582   Br741   1.914   1_455 S
C583   H596    1.076   .     S
C583   C585    1.410   .     A
C584   H595    1.076   .     S
C584   C586    1.410   .     A
C585   C587    1.413   .     A
C585   C589    1.427   .     A
C586   C588    1.413   .     A
C586   C590    1.427   .     A
C587   C5      1.389   1_556 S
C589   C32     1.428   1_556 S
Cu591  O613    1.964   .     S
Cu591  O616    1.948   .     S
Cu591  N607    2.027   .     S
Cu591  O612    1.957   .     S
Cu591  O609    1.966   .     S
Cu591  Cu716   2.697   1_455 S
Cu592  O615    1.948   .     S
Cu592  O614    1.964   .     S
Cu592  O611    1.957   .     S
Cu592  N608    2.027   .     S
Cu592  O610    1.966   .     S
Cu592  Cu653   2.697   .     S
O611   C621    1.293   .     S
O612   C684    1.293   1_455 S
O613   C699    1.304   1_455 S
O614   C638    1.304   .     S
Br617  C644    1.914   .     S
Br618  C705    1.914   1_455 S
C621   O671    1.301   .     A
C621   C632    1.449   .     S
C622   O672    1.301   .     A
C622   C631    1.449   .     S
C622   O736    1.293   .     S
C623   C625    1.386   .     A
C623   C652    1.413   .     A
C623   H661    1.077   .     S
C624   H662    1.077   .     S
C624   C626    1.386   .     A
C624   C651    1.413   .     A
C625   H655    1.084   .     S
C626   H656    1.084   .     S
C626   C92     1.389   1_556 S
C627   H663    1.083   .     S
C627   C1001   1.383   1_545 S
C627   C694    1.403   .     S
C628   H664    1.083   .     S
C628   C816    1.383   .     S
C629   H665    1.083   .     S
C629   C631    1.398   .     A
C629   C813    1.383   .     S
C630   C632    1.398   .     A
C630   H666    1.083   .     S
C630   C1000   1.383   1_545 S
C631   C690    1.403   .     S
C633   H667    1.082   .     S
C633   C635    1.413   .     A
C633   N670    1.356   .     A
C634   C636    1.413   .     A
C634   N669    1.356   .     A
C634   H668    1.082   .     S
C635   Br681   1.914   .     S
C635   N669    1.387   .     A
C636   N670    1.387   .     A
C636   Br682   1.914   .     S
C637   C639    1.484   .     S
C637   O677    1.306   .     A
C637   O737    1.304   .     S
C638   C640    1.484   .     S
C638   O678    1.306   .     A
C639   C643    1.414   .     A
C639   C645    1.406   .     A
C640   C644    1.414   .     A
C640   C646    1.406   .     A
C641   H659    1.084   .     S
C641   C643    1.392   .     A
C641   C649    1.397   .     A
C642   H660    1.084   .     S
C642   C644    1.392   .     A
C642   C650    1.397   .     A
C643   Br742   1.914   .     S
C645   H658    1.076   .     S
C645   C647    1.410   .     A
C646   H657    1.076   .     S
C646   C648    1.410   .     A
C647   C649    1.413   .     A
C647   C651    1.427   .     A
C648   C650    1.413   .     A
C648   C652    1.427   .     A
C649   C67     1.389   1_556 S
C651   C94     1.428   1_556 S
Cu653  O675    1.964   .     S
Cu653  O678    1.948   .     S
Cu653  N669    2.027   .     S
Cu653  O674    1.957   .     S
Cu653  O671    1.966   .     S
Cu654  O677    1.948   .     S
Cu654  O676    1.964   .     S
Cu654  O673    1.957   .     S
Cu654  N670    2.027   .     S
Cu654  O672    1.966   .     S
Cu654  Cu715   2.697   .     S
O673   C683    1.293   .     S
O676   C700    1.304   .     S
Br679  C706    1.914   .     S
C683   O733    1.301   .     A
C683   C694    1.449   .     S
C684   O734    1.301   .     A
C684   C693    1.449   .     S
C684   O612    1.293   1_655 S
C685   C687    1.386   .     A
C685   C714    1.413   .     A
C685   H723    1.077   .     S
C686   H724    1.077   .     S
C686   C688    1.386   .     A
C686   C713    1.413   .     A
C687   H717    1.084   .     S
C688   H718    1.084   .     S
C688   C154    1.389   1_556 S
C689   H725    1.083   .     S
C689   C1063   1.383   1_545 S
C689   C570    1.403   1_655 S
C690   H726    1.083   .     S
C690   C878    1.383   .     S
C691   H727    1.083   .     S
C691   C693    1.398   .     A
C691   C875    1.383   .     S
C692   C694    1.398   .     A
C692   H728    1.083   .     S
C692   C1062   1.383   1_545 S
C693   C566    1.403   1_655 S
C695   H729    1.082   .     S
C695   C697    1.413   .     A
C695   N732    1.356   .     A
C696   C698    1.413   .     A
C696   N731    1.356   .     A
C696   H730    1.082   .     S
C697   Br743   1.914   .     S
C697   N731    1.387   .     A
C698   N732    1.387   .     A
C698   Br744   1.914   .     S
C699   C701    1.484   .     S
C699   O739    1.306   .     A
C699   O613    1.304   1_655 S
C700   C702    1.484   .     S
C700   O740    1.306   .     A
C701   C705    1.414   .     A
C701   C707    1.406   .     A
C702   C706    1.414   .     A
C702   C708    1.406   .     A
C703   H721    1.084   .     S
C703   C705    1.392   .     A
C703   C711    1.397   .     A
C704   H722    1.084   .     S
C704   C706    1.392   .     A
C704   C712    1.397   .     A
C705   Br618   1.914   1_655 S
C707   H720    1.076   .     S
C707   C709    1.410   .     A
C708   H719    1.076   .     S
C708   C710    1.410   .     A
C709   C711    1.413   .     A
C709   C713    1.427   .     A
C710   C712    1.413   .     A
C710   C714    1.427   .     A
C711   C129    1.389   1_556 S
C713   C156    1.428   1_556 S
Cu715  O737    1.964   .     S
Cu715  O740    1.948   .     S
Cu715  N731    2.027   .     S
Cu715  O736    1.957   .     S
Cu715  O733    1.966   .     S
Cu716  O739    1.948   .     S
Cu716  O738    1.964   .     S
Cu716  O735    1.957   .     S
Cu716  N732    2.027   .     S
Cu716  O734    1.966   .     S
Cu716  Cu591   2.697   1_655 S
O735   C559    1.293   1_655 S
O738   C576    1.304   1_655 S
Br741  C582    1.914   1_655 S
C745   O795    1.301   .     A
C745   C756    1.449   .     S
C745   O921    1.293   1_455 S
C746   O796    1.301   .     A
C746   C755    1.449   .     S
C746   O860    1.293   .     S
C747   C749    1.386   .     A
C747   C776    1.413   .     A
C747   H785    1.077   .     S
C748   H786    1.077   .     S
C748   C750    1.386   .     A
C748   C775    1.413   .     A
C749   H779    1.084   .     S
C750   H780    1.084   .     S
C750   C216    1.389   1_556 S
C751   H787    1.083   .     S
C751   C818    1.403   .     S
C752   H788    1.083   .     S
C752   C940    1.383   .     S
C752   C879    1.403   1_455 S
C753   H789    1.083   .     S
C753   C755    1.398   .     A
C753   C937    1.383   .     S
C754   C756    1.398   .     A
C754   H790    1.083   .     S
C755   C814    1.403   .     S
C756   C875    1.403   1_455 S
C757   H791    1.082   .     S
C757   C759    1.413   .     A
C757   N794    1.356   .     A
C758   C760    1.413   .     A
C758   N793    1.356   .     A
C758   H792    1.082   .     S
C759   Br805   1.914   .     S
C759   N793    1.387   .     A
C760   N794    1.387   .     A
C760   Br806   1.914   .     S
C761   C763    1.484   .     S
C761   O801    1.306   .     A
C761   O861    1.304   .     S
C762   C764    1.484   .     S
C762   O802    1.306   .     A
C762   O924    1.304   1_455 S
C763   C767    1.414   .     A
C763   C769    1.406   .     A
C764   C768    1.414   .     A
C764   C770    1.406   .     A
C765   H783    1.084   .     S
C765   C767    1.392   .     A
C765   C773    1.397   .     A
C766   H784    1.084   .     S
C766   C768    1.392   .     A
C766   C774    1.397   .     A
C767   Br866   1.914   .     S
C768   Br927   1.914   1_455 S
C769   H782    1.076   .     S
C769   C771    1.410   .     A
C770   H781    1.076   .     S
C770   C772    1.410   .     A
C771   C773    1.413   .     A
C771   C775    1.427   .     A
C772   C774    1.413   .     A
C772   C776    1.427   .     A
C773   C191    1.389   1_556 S
C775   C218    1.428   1_556 S
Cu777  O799    1.964   .     S
Cu777  O802    1.948   .     S
Cu777  N793    2.027   .     S
Cu777  O798    1.957   .     S
Cu777  O795    1.966   .     S
Cu777  Cu902   2.697   1_455 S
Cu778  O801    1.948   .     S
Cu778  O800    1.964   .     S
Cu778  O797    1.957   .     S
Cu778  N794    2.027   .     S
Cu778  O796    1.966   .     S
Cu778  Cu839   2.697   .     S
O797   C807    1.293   .     S
O798   C870    1.293   1_455 S
O799   C885    1.304   1_455 S
O800   C824    1.304   .     S
Br803  C830    1.914   .     S
Br804  C891    1.914   1_455 S
C807   O857    1.301   .     A
C807   C818    1.449   .     S
C808   O858    1.301   .     A
C808   C817    1.449   .     S
C808   O922    1.293   .     S
C809   C811    1.386   .     A
C809   C838    1.413   .     A
C809   H847    1.077   .     S
C810   H848    1.077   .     S
C810   C812    1.386   .     A
C810   C837    1.413   .     A
C811   H841    1.084   .     S
C812   H842    1.084   .     S
C812   C278    1.389   1_556 S
C813   H849    1.083   .     S
C813   C880    1.403   .     S
C814   H850    1.083   .     S
C814   C1002   1.383   .     S
C815   H851    1.083   .     S
C815   C817    1.398   .     A
C815   C999    1.383   .     S
C816   C818    1.398   .     A
C816   H852    1.083   .     S
C817   C876    1.403   .     S
C819   H853    1.082   .     S
C819   C821    1.413   .     A
C819   N856    1.356   .     A
C820   C822    1.413   .     A
C820   N855    1.356   .     A
C820   H854    1.082   .     S
C821   Br867   1.914   .     S
C821   N855    1.387   .     A
C822   N856    1.387   .     A
C822   Br868   1.914   .     S
C823   C825    1.484   .     S
C823   O863    1.306   .     A
C823   O923    1.304   .     S
C824   C826    1.484   .     S
C824   O864    1.306   .     A
C825   C829    1.414   .     A
C825   C831    1.406   .     A
C826   C830    1.414   .     A
C826   C832    1.406   .     A
C827   H845    1.084   .     S
C827   C829    1.392   .     A
C827   C835    1.397   .     A
C828   H846    1.084   .     S
C828   C830    1.392   .     A
C828   C836    1.397   .     A
C829   Br928   1.914   .     S
C831   H844    1.076   .     S
C831   C833    1.410   .     A
C832   H843    1.076   .     S
C832   C834    1.410   .     A
C833   C835    1.413   .     A
C833   C837    1.427   .     A
C834   C836    1.413   .     A
C834   C838    1.427   .     A
C835   C253    1.389   1_556 S
C837   C280    1.428   1_556 S
Cu839  O861    1.964   .     S
Cu839  O864    1.948   .     S
Cu839  N855    2.027   .     S
Cu839  O860    1.957   .     S
Cu839  O857    1.966   .     S
Cu840  O863    1.948   .     S
Cu840  O862    1.964   .     S
Cu840  O859    1.957   .     S
Cu840  N856    2.027   .     S
Cu840  O858    1.966   .     S
Cu840  Cu901   2.697   .     S
O859   C869    1.293   .     S
O862   C886    1.304   .     S
Br865  C892    1.914   .     S
C869   O919    1.301   .     A
C869   C880    1.449   .     S
C870   O920    1.301   .     A
C870   C879    1.449   .     S
C870   O798    1.293   1_655 S
C871   C873    1.386   .     A
C871   C900    1.413   .     A
C871   H909    1.077   .     S
C872   H910    1.077   .     S
C872   C874    1.386   .     A
C872   C899    1.413   .     A
C873   H903    1.084   .     S
C874   H904    1.084   .     S
C874   C340    1.389   1_556 S
C875   H911    1.083   .     S
C875   C756    1.403   1_655 S
C876   H912    1.083   .     S
C876   C1064   1.383   .     S
C877   H913    1.083   .     S
C877   C879    1.398   .     A
C877   C1061   1.383   .     S
C878   C880    1.398   .     A
C878   H914    1.083   .     S
C879   C752    1.403   1_655 S
C881   H915    1.082   .     S
C881   C883    1.413   .     A
C881   N918    1.356   .     A
C882   C884    1.413   .     A
C882   N917    1.356   .     A
C882   H916    1.082   .     S
C883   Br929   1.914   .     S
C883   N917    1.387   .     A
C884   N918    1.387   .     A
C884   Br930   1.914   .     S
C885   C887    1.484   .     S
C885   O925    1.306   .     A
C885   O799    1.304   1_655 S
C886   C888    1.484   .     S
C886   O926    1.306   .     A
C887   C891    1.414   .     A
C887   C893    1.406   .     A
C888   C892    1.414   .     A
C888   C894    1.406   .     A
C889   H907    1.084   .     S
C889   C891    1.392   .     A
C889   C897    1.397   .     A
C890   H908    1.084   .     S
C890   C892    1.392   .     A
C890   C898    1.397   .     A
C891   Br804   1.914   1_655 S
C893   H906    1.076   .     S
C893   C895    1.410   .     A
C894   H905    1.076   .     S
C894   C896    1.410   .     A
C895   C897    1.413   .     A
C895   C899    1.427   .     A
C896   C898    1.413   .     A
C896   C900    1.427   .     A
C897   C315    1.389   1_556 S
C899   C342    1.428   1_556 S
Cu901  O923    1.964   .     S
Cu901  O926    1.948   .     S
Cu901  N917    2.027   .     S
Cu901  O922    1.957   .     S
Cu901  O919    1.966   .     S
Cu902  O925    1.948   .     S
Cu902  O924    1.964   .     S
Cu902  O921    1.957   .     S
Cu902  N918    2.027   .     S
Cu902  O920    1.966   .     S
Cu902  Cu777   2.697   1_655 S
O921   C745    1.293   1_655 S
O924   C762    1.304   1_655 S
Br927  C768    1.914   1_655 S
C931   O981    1.301   .     A
C931   C942    1.449   .     S
C931   O1107   1.293   1_455 S
C932   O982    1.301   .     A
C932   C941    1.449   .     S
C932   O1046   1.293   .     S
C933   C935    1.386   .     A
C933   C962    1.413   .     A
C933   H971    1.077   .     S
C934   H972    1.077   .     S
C934   C936    1.386   .     A
C934   C961    1.413   .     A
C935   H965    1.084   .     S
C936   H966    1.084   .     S
C936   C402    1.389   1_556 S
C937   H973    1.083   .     S
C937   C1004   1.403   .     S
C938   H974    1.083   .     S
C938   C568    1.383   1_565 S
C938   C1065   1.403   1_455 S
C939   H975    1.083   .     S
C939   C941    1.398   .     A
C939   C565    1.383   1_565 S
C940   C942    1.398   .     A
C940   H976    1.083   .     S
C941   C1000   1.403   .     S
C942   C1061   1.403   1_455 S
C943   H977    1.082   .     S
C943   C945    1.413   .     A
C943   N980    1.356   .     A
C944   C946    1.413   .     A
C944   N979    1.356   .     A
C944   H978    1.082   .     S
C945   Br991   1.914   .     S
C945   N979    1.387   .     A
C946   N980    1.387   .     A
C946   Br992   1.914   .     S
C947   C949    1.484   .     S
C947   O987    1.306   .     A
C947   O1047   1.304   .     S
C948   C950    1.484   .     S
C948   O988    1.306   .     A
C948   O1110   1.304   1_455 S
C949   C953    1.414   .     A
C949   C955    1.406   .     A
C950   C954    1.414   .     A
C950   C956    1.406   .     A
C951   H969    1.084   .     S
C951   C953    1.392   .     A
C951   C959    1.397   .     A
C952   H970    1.084   .     S
C952   C954    1.392   .     A
C952   C960    1.397   .     A
C953   Br1052  1.914   .     S
C954   Br1113  1.914   1_455 S
C955   H968    1.076   .     S
C955   C957    1.410   .     A
C956   H967    1.076   .     S
C956   C958    1.410   .     A
C957   C959    1.413   .     A
C957   C961    1.427   .     A
C958   C960    1.413   .     A
C958   C962    1.427   .     A
C959   C377    1.389   1_556 S
C961   C404    1.428   1_556 S
Cu963  O985    1.964   .     S
Cu963  O988    1.948   .     S
Cu963  N979    2.027   .     S
Cu963  O984    1.957   .     S
Cu963  O981    1.966   .     S
Cu963  Cu1088  2.697   1_455 S
Cu964  O987    1.948   .     S
Cu964  O986    1.964   .     S
Cu964  O983    1.957   .     S
Cu964  N980    2.027   .     S
Cu964  O982    1.966   .     S
Cu964  Cu1025  2.697   .     S
O983   C993    1.293   .     S
O984   C1056   1.293   1_455 S
O985   C1071   1.304   1_455 S
O986   C1010   1.304   .     S
Br989  C1016   1.914   .     S
Br990  C1077   1.914   1_455 S
C993   O1043   1.301   .     A
C993   C1004   1.449   .     S
C994   O1044   1.301   .     A
C994   C1003   1.449   .     S
C994   O1108   1.293   .     S
C995   C997    1.386   .     A
C995   C1024   1.413   .     A
C995   H1033   1.077   .     S
C996   H1034   1.077   .     S
C996   C998    1.386   .     A
C996   C1023   1.413   .     A
C997   H1027   1.084   .     S
C998   H1028   1.084   .     S
C998   C464    1.389   1_556 S
C999   H1035   1.083   .     S
C999   C1066   1.403   .     S
C1000  H1036   1.083   .     S
C1000  C630    1.383   1_565 S
C1001  H1037   1.083   .     S
C1001  C1003   1.398   .     A
C1001  C627    1.383   1_565 S
C1002  C1004   1.398   .     A
C1002  H1038   1.083   .     S
C1003  C1062   1.403   .     S
C1005  H1039   1.082   .     S
C1005  C1007   1.413   .     A
C1005  N1042   1.356   .     A
C1006  C1008   1.413   .     A
C1006  N1041   1.356   .     A
C1006  H1040   1.082   .     S
C1007  Br1053  1.914   .     S
C1007  N1041   1.387   .     A
C1008  N1042   1.387   .     A
C1008  Br1054  1.914   .     S
C1009  C1011   1.484   .     S
C1009  O1049   1.306   .     A
C1009  O1109   1.304   .     S
C1010  C1012   1.484   .     S
C1010  O1050   1.306   .     A
C1011  C1015   1.414   .     A
C1011  C1017   1.406   .     A
C1012  C1016   1.414   .     A
C1012  C1018   1.406   .     A
C1013  H1031   1.084   .     S
C1013  C1015   1.392   .     A
C1013  C1021   1.397   .     A
C1014  H1032   1.084   .     S
C1014  C1016   1.392   .     A
C1014  C1022   1.397   .     A
C1015  Br1114  1.914   .     S
C1017  H1030   1.076   .     S
C1017  C1019   1.410   .     A
C1018  H1029   1.076   .     S
C1018  C1020   1.410   .     A
C1019  C1021   1.413   .     A
C1019  C1023   1.427   .     A
C1020  C1022   1.413   .     A
C1020  C1024   1.427   .     A
C1021  C439    1.389   1_556 S
C1023  C466    1.428   1_556 S
Cu1025 O1047   1.964   .     S
Cu1025 O1050   1.948   .     S
Cu1025 N1041   2.027   .     S
Cu1025 O1046   1.957   .     S
Cu1025 O1043   1.966   .     S
Cu1026 O1049   1.948   .     S
Cu1026 O1048   1.964   .     S
Cu1026 O1045   1.957   .     S
Cu1026 N1042   2.027   .     S
Cu1026 O1044   1.966   .     S
Cu1026 Cu1087  2.697   .     S
O1045  C1055   1.293   .     S
O1048  C1072   1.304   .     S
Br1051 C1078   1.914   .     S
C1055  O1105   1.301   .     A
C1055  C1066   1.449   .     S
C1056  O1106   1.301   .     A
C1056  C1065   1.449   .     S
C1056  O984    1.293   1_655 S
C1057  C1059   1.386   .     A
C1057  C1086   1.413   .     A
C1057  H1095   1.077   .     S
C1058  H1096   1.077   .     S
C1058  C1060   1.386   .     A
C1058  C1085   1.413   .     A
C1059  H1089   1.084   .     S
C1060  H1090   1.084   .     S
C1060  C526    1.389   1_556 S
C1061  H1097   1.083   .     S
C1061  C942    1.403   1_655 S
C1062  H1098   1.083   .     S
C1062  C692    1.383   1_565 S
C1063  H1099   1.083   .     S
C1063  C1065   1.398   .     A
C1063  C689    1.383   1_565 S
C1064  C1066   1.398   .     A
C1064  H1100   1.083   .     S
C1065  C938    1.403   1_655 S
C1067  H1101   1.082   .     S
C1067  C1069   1.413   .     A
C1067  N1104   1.356   .     A
C1068  C1070   1.413   .     A
C1068  N1103   1.356   .     A
C1068  H1102   1.082   .     S
C1069  Br1115  1.914   .     S
C1069  N1103   1.387   .     A
C1070  N1104   1.387   .     A
C1070  Br1116  1.914   .     S
C1071  C1073   1.484   .     S
C1071  O1111   1.306   .     A
C1071  O985    1.304   1_655 S
C1072  C1074   1.484   .     S
C1072  O1112   1.306   .     A
C1073  C1077   1.414   .     A
C1073  C1079   1.406   .     A
C1074  C1078   1.414   .     A
C1074  C1080   1.406   .     A
C1075  H1093   1.084   .     S
C1075  C1077   1.392   .     A
C1075  C1083   1.397   .     A
C1076  H1094   1.084   .     S
C1076  C1078   1.392   .     A
C1076  C1084   1.397   .     A
C1077  Br990   1.914   1_655 S
C1079  H1092   1.076   .     S
C1079  C1081   1.410   .     A
C1080  H1091   1.076   .     S
C1080  C1082   1.410   .     A
C1081  C1083   1.413   .     A
C1081  C1085   1.427   .     A
C1082  C1084   1.413   .     A
C1082  C1086   1.427   .     A
C1083  C501    1.389   1_556 S
C1085  C528    1.428   1_556 S
Cu1087 O1109   1.964   .     S
Cu1087 O1112   1.948   .     S
Cu1087 N1103   2.027   .     S
Cu1087 O1108   1.957   .     S
Cu1087 O1105   1.966   .     S
Cu1088 O1111   1.948   .     S
Cu1088 O1110   1.964   .     S
Cu1088 O1107   1.957   .     S
Cu1088 N1104   2.027   .     S
Cu1088 O1106   1.966   .     S
Cu1088 Cu963   2.697   1_655 S
O1107  C931    1.293   1_655 S
O1110  C948    1.304   1_655 S
Br1113 C954    1.914   1_655 S
