data_str_m2_o2_o10_pcu_sym.134
_audit_creation_date              2020-01-03
_audit_creation_method            'Materials Studio'
_symmetry_space_group_name_H-M    'P1'
_symmetry_Int_Tables_number       1
_symmetry_cell_setting            triclinic
loop_
_symmetry_equiv_pos_as_xyz
  x,y,z
_cell_length_a                    26.0985
_cell_length_b                    30.1142
_cell_length_c                    28.0070
_cell_angle_alpha                 88.1558
_cell_angle_beta                  96.5015
_cell_angle_gamma                 92.4128
loop_
_atom_site_label
_atom_site_type_symbol
_atom_site_fract_x
_atom_site_fract_y
_atom_site_fract_z
_atom_site_U_iso_or_equiv
_atom_site_adp_type
_atom_site_occupancy
C1     C     0.16792   0.16516   0.25073   0.00000  Uiso   1.00
C2     C     0.16558   0.33476   0.24929   0.00000  Uiso   1.00
C3     C     0.18413   0.28719   0.05323   0.00000  Uiso   1.00
C4     C     0.12729   0.22962   0.44425   0.00000  Uiso   1.00
C5     C     0.18667   0.28644   0.10434   0.00000  Uiso   1.00
C6     C     0.12804   0.22731   0.39352   0.00000  Uiso   1.00
C7     C     0.15210   0.21244   0.10440   0.00000  Uiso   1.00
C8     C     0.20754   0.26903   0.39853   0.00000  Uiso   1.00
C9     C     0.15685   0.21022   0.05483   0.00000  Uiso   1.00
C10    C     0.21109   0.26621   0.44923   0.00000  Uiso   1.00
C11    C     0.17098   0.24825   0.02772   0.00000  Uiso   1.00
C12    C     0.17004   0.24769   0.47316   0.00000  Uiso   1.00
C13    C     0.06811   0.25026   0.23788   0.00000  Uiso   1.00
C14    C     0.26513   0.25276   0.26176   0.00000  Uiso   1.00
C15    C     0.01294   0.24914   0.23103   0.00000  Uiso   1.00
C16    C     0.32010   0.25873   0.26702   0.00000  Uiso   1.00
C17    C     0.12771   0.04610   0.26965   0.00000  Uiso   1.00
C18    C     0.20965   0.45252   0.26861   0.00000  Uiso   1.00
C19    C     0.12930   0.09227   0.27044   0.00000  Uiso   1.00
C20    C     0.20887   0.40646   0.26777   0.00000  Uiso   1.00
C21    C     0.16974   0.11690   0.25209   0.00000  Uiso   1.00
C22    C     0.16458   0.38290   0.24811   0.00000  Uiso   1.00
C23    C     0.20997   0.09501   0.23366   0.00000  Uiso   1.00
C24    C     0.12006   0.40557   0.22929   0.00000  Uiso   1.00
C25    C     0.20795   0.04855   0.23344   0.00000  Uiso   1.00
C26    C     0.12117   0.45202   0.23098   0.00000  Uiso   1.00
C27    C     0.16699   0.02411   0.25110   0.00000  Uiso   1.00
C28    C     0.16580   0.47548   0.25039   0.00000  Uiso   1.00
Cu29   Cu    0.16667   0.25000   0.29822   0.00000  Uiso   1.00
Cu30   Cu    0.16667   0.25001   0.20179   0.00000  Uiso   1.00
H31    H     0.32704   0.23881   0.19645   0.00000  Uiso   1.00
H32    H     0.00597   0.27098   0.30061   0.00000  Uiso   1.00
H33    H     0.09606   0.02750   0.28378   0.00000  Uiso   1.00
H34    H     0.24428   0.47026   0.28401   0.00000  Uiso   1.00
H35    H     0.09838   0.10889   0.28449   0.00000  Uiso   1.00
H36    H     0.24297   0.38908   0.28234   0.00000  Uiso   1.00
H37    H     0.23839   0.03124   0.21943   0.00000  Uiso   1.00
H38    H     0.08735   0.46997   0.21686   0.00000  Uiso   1.00
H39    H     0.13837   0.18307   0.12294   0.00000  Uiso   1.00
H40    H     0.23886   0.28524   0.38166   0.00000  Uiso   1.00
H41    H     0.14802   0.17879   0.03746   0.00000  Uiso   1.00
H42    H     0.24575   0.27939   0.46968   0.00000  Uiso   1.00
N43    N     0.16667   0.25001   0.12935   0.00000  Uiso   1.00
N44    N     0.16667   0.24999   0.37066   0.00000  Uiso   1.00
O45    O     0.16667   0.18573   0.29071   0.00000  Uiso   1.00
O46    O     0.16666   0.31428   0.20929   0.00000  Uiso   1.00
O47    O     0.16667   0.18573   0.20928   0.00000  Uiso   1.00
O48    O     0.16666   0.31427   0.29072   0.00000  Uiso   1.00
O49    O     0.09161   0.25000   0.28132   0.00000  Uiso   1.00
O50    O     0.24172   0.25001   0.21868   0.00000  Uiso   1.00
O51    O     0.09161   0.25000   0.19989   0.00000  Uiso   1.00
O52    O     0.24172   0.25000   0.30011   0.00000  Uiso   1.00
C53    C     0.25649   0.11972   0.21637   0.00000  Uiso   1.00
C54    C     0.29430   0.13488   0.25879   0.00000  Uiso   1.00
H55    H     0.27556   0.15754   0.28135   0.00000  Uiso   1.00
H56    H     0.30803   0.10571   0.28121   0.00000  Uiso   1.00
H57    H     0.32818   0.15269   0.24540   0.00000  Uiso   1.00
H58    H     0.27712   0.09789   0.19428   0.00000  Uiso   1.00
H59    H     0.24481   0.14862   0.19272   0.00000  Uiso   1.00
C60    C     0.07065   0.38147   0.20912   0.00000  Uiso   1.00
C61    C     0.03571   0.37092   0.24846   0.00000  Uiso   1.00
H62    H     0.33273   0.35394   0.23271   0.00000  Uiso   1.00
H63    H     0.05519   0.34874   0.27670   0.00000  Uiso   1.00
H64    H     0.02584   0.40203   0.26503   0.00000  Uiso   1.00
H65    H     0.04962   0.40239   0.18053   0.00000  Uiso   1.00
H66    H     0.07869   0.35024   0.19188   0.00000  Uiso   1.00
Cl67   Cl    0.19680   0.33751   0.02117   0.00000  Uiso   1.00
Cl68   Cl    0.07207   0.21069   0.47181   0.00000  Uiso   1.00
C69    C     0.21961   0.32344   0.12955   0.00000  Uiso   1.00
C70    C     0.19161   0.36725   0.13028   0.00000  Uiso   1.00
H71    H     0.19502   0.38769   0.09715   0.00000  Uiso   1.00
H72    H     0.15000   0.36118   0.13404   0.00000  Uiso   1.00
H73    H     0.20975   0.38731   0.16067   0.00000  Uiso   1.00
H74    H     0.23590   0.31305   0.16589   0.00000  Uiso   1.00
H75    H     0.25487   0.32996   0.11116   0.00000  Uiso   1.00
C76    C     0.09060   0.19321   0.36796   0.00000  Uiso   1.00
C77    C     0.03348   0.20375   0.36608   0.00000  Uiso   1.00
H78    H     0.02855   0.23931   0.37302   0.00000  Uiso   1.00
H79    H     0.01319   0.19496   0.33062   0.00000  Uiso   1.00
H80    H     0.01431   0.18287   0.39272   0.00000  Uiso   1.00
H81    H     0.09836   0.18750   0.33143   0.00000  Uiso   1.00
H82    H     0.09657   0.16038   0.38665   0.00000  Uiso   1.00
C83    C     0.50125   0.16516   0.25073   0.00000  Uiso   1.00
C84    C     0.49891   0.33476   0.24929   0.00000  Uiso   1.00
C85    C     0.51746   0.28719   0.05323   0.00000  Uiso   1.00
C86    C     0.46062   0.22962   0.44425   0.00000  Uiso   1.00
C87    C     0.52000   0.28644   0.10434   0.00000  Uiso   1.00
C88    C     0.46138   0.22731   0.39352   0.00000  Uiso   1.00
C89    C     0.48544   0.21244   0.10440   0.00000  Uiso   1.00
C90    C     0.54087   0.26903   0.39853   0.00000  Uiso   1.00
C91    C     0.49018   0.21022   0.05483   0.00000  Uiso   1.00
C92    C     0.54442   0.26621   0.44923   0.00000  Uiso   1.00
C93    C     0.50432   0.24825   0.02772   0.00000  Uiso   1.00
C94    C     0.50338   0.24769   0.47316   0.00000  Uiso   1.00
C95    C     0.40145   0.25026   0.23788   0.00000  Uiso   1.00
C96    C     0.59846   0.25276   0.26176   0.00000  Uiso   1.00
C97    C     0.34627   0.24914   0.23103   0.00000  Uiso   1.00
C98    C     0.65343   0.25873   0.26702   0.00000  Uiso   1.00
C99    C     0.46104   0.04610   0.26965   0.00000  Uiso   1.00
C100   C     0.54299   0.45252   0.26861   0.00000  Uiso   1.00
C101   C     0.46263   0.09227   0.27044   0.00000  Uiso   1.00
C102   C     0.54221   0.40646   0.26777   0.00000  Uiso   1.00
C103   C     0.50307   0.11690   0.25209   0.00000  Uiso   1.00
C104   C     0.49791   0.38290   0.24811   0.00000  Uiso   1.00
C105   C     0.54330   0.09501   0.23366   0.00000  Uiso   1.00
C106   C     0.45340   0.40557   0.22929   0.00000  Uiso   1.00
C107   C     0.54128   0.04855   0.23344   0.00000  Uiso   1.00
C108   C     0.45451   0.45202   0.23098   0.00000  Uiso   1.00
C109   C     0.50033   0.02411   0.25110   0.00000  Uiso   1.00
C110   C     0.49914   0.47548   0.25039   0.00000  Uiso   1.00
Cu111  Cu    0.50000   0.25000   0.29822   0.00000  Uiso   1.00
Cu112  Cu    0.50000   0.25001   0.20179   0.00000  Uiso   1.00
H113   H     0.66037   0.23881   0.19645   0.00000  Uiso   1.00
H114   H     0.33930   0.27098   0.30061   0.00000  Uiso   1.00
H115   H     0.42939   0.02750   0.28378   0.00000  Uiso   1.00
H116   H     0.57761   0.47026   0.28401   0.00000  Uiso   1.00
H117   H     0.43171   0.10889   0.28449   0.00000  Uiso   1.00
H118   H     0.57631   0.38908   0.28234   0.00000  Uiso   1.00
H119   H     0.57172   0.03124   0.21943   0.00000  Uiso   1.00
H120   H     0.42068   0.46997   0.21686   0.00000  Uiso   1.00
H121   H     0.47170   0.18307   0.12294   0.00000  Uiso   1.00
H122   H     0.57219   0.28524   0.38166   0.00000  Uiso   1.00
H123   H     0.48135   0.17879   0.03746   0.00000  Uiso   1.00
H124   H     0.57909   0.27939   0.46968   0.00000  Uiso   1.00
N125   N     0.50000   0.25001   0.12935   0.00000  Uiso   1.00
N126   N     0.50000   0.24999   0.37066   0.00000  Uiso   1.00
O127   O     0.50000   0.18573   0.29071   0.00000  Uiso   1.00
O128   O     0.50000   0.31428   0.20929   0.00000  Uiso   1.00
O129   O     0.50000   0.18573   0.20928   0.00000  Uiso   1.00
O130   O     0.50000   0.31427   0.29072   0.00000  Uiso   1.00
O131   O     0.42495   0.25000   0.28132   0.00000  Uiso   1.00
O132   O     0.57505   0.25001   0.21868   0.00000  Uiso   1.00
O133   O     0.42495   0.25000   0.19989   0.00000  Uiso   1.00
O134   O     0.57505   0.25000   0.30011   0.00000  Uiso   1.00
C135   C     0.58982   0.11972   0.21637   0.00000  Uiso   1.00
C136   C     0.62763   0.13488   0.25879   0.00000  Uiso   1.00
H137   H     0.60889   0.15754   0.28135   0.00000  Uiso   1.00
H138   H     0.64136   0.10571   0.28121   0.00000  Uiso   1.00
H139   H     0.66151   0.15269   0.24540   0.00000  Uiso   1.00
H140   H     0.61045   0.09789   0.19428   0.00000  Uiso   1.00
H141   H     0.57814   0.14862   0.19272   0.00000  Uiso   1.00
C142   C     0.40398   0.38147   0.20912   0.00000  Uiso   1.00
C143   C     0.36904   0.37092   0.24846   0.00000  Uiso   1.00
H144   H     0.66607   0.35394   0.23271   0.00000  Uiso   1.00
H145   H     0.38852   0.34874   0.27670   0.00000  Uiso   1.00
H146   H     0.35918   0.40203   0.26503   0.00000  Uiso   1.00
H147   H     0.38296   0.40239   0.18053   0.00000  Uiso   1.00
H148   H     0.41202   0.35024   0.19188   0.00000  Uiso   1.00
Cl149  Cl    0.53013   0.33751   0.02117   0.00000  Uiso   1.00
Cl150  Cl    0.40540   0.21069   0.47181   0.00000  Uiso   1.00
C151   C     0.55294   0.32344   0.12955   0.00000  Uiso   1.00
C152   C     0.52495   0.36725   0.13028   0.00000  Uiso   1.00
H153   H     0.52836   0.38769   0.09715   0.00000  Uiso   1.00
H154   H     0.48333   0.36118   0.13404   0.00000  Uiso   1.00
H155   H     0.54309   0.38731   0.16067   0.00000  Uiso   1.00
H156   H     0.56923   0.31305   0.16589   0.00000  Uiso   1.00
H157   H     0.58821   0.32996   0.11116   0.00000  Uiso   1.00
C158   C     0.42393   0.19321   0.36796   0.00000  Uiso   1.00
C159   C     0.36682   0.20375   0.36608   0.00000  Uiso   1.00
H160   H     0.36188   0.23931   0.37302   0.00000  Uiso   1.00
H161   H     0.34652   0.19496   0.33062   0.00000  Uiso   1.00
H162   H     0.34764   0.18287   0.39272   0.00000  Uiso   1.00
H163   H     0.43169   0.18750   0.33143   0.00000  Uiso   1.00
H164   H     0.42991   0.16038   0.38665   0.00000  Uiso   1.00
C165   C     0.83458   0.16516   0.25073   0.00000  Uiso   1.00
C166   C     0.83225   0.33476   0.24929   0.00000  Uiso   1.00
C167   C     0.85080   0.28719   0.05323   0.00000  Uiso   1.00
C168   C     0.79396   0.22962   0.44425   0.00000  Uiso   1.00
C169   C     0.85334   0.28644   0.10434   0.00000  Uiso   1.00
C170   C     0.79471   0.22731   0.39352   0.00000  Uiso   1.00
C171   C     0.81877   0.21244   0.10440   0.00000  Uiso   1.00
C172   C     0.87420   0.26903   0.39853   0.00000  Uiso   1.00
C173   C     0.82351   0.21022   0.05483   0.00000  Uiso   1.00
C174   C     0.87775   0.26621   0.44923   0.00000  Uiso   1.00
C175   C     0.83765   0.24825   0.02772   0.00000  Uiso   1.00
C176   C     0.83671   0.24769   0.47316   0.00000  Uiso   1.00
C177   C     0.73478   0.25026   0.23788   0.00000  Uiso   1.00
C178   C     0.93180   0.25276   0.26176   0.00000  Uiso   1.00
C179   C     0.67960   0.24914   0.23103   0.00000  Uiso   1.00
C180   C     0.98676   0.25873   0.26702   0.00000  Uiso   1.00
C181   C     0.79438   0.04610   0.26965   0.00000  Uiso   1.00
C182   C     0.87632   0.45252   0.26861   0.00000  Uiso   1.00
C183   C     0.79596   0.09227   0.27044   0.00000  Uiso   1.00
C184   C     0.87554   0.40646   0.26777   0.00000  Uiso   1.00
C185   C     0.83641   0.11690   0.25209   0.00000  Uiso   1.00
C186   C     0.83124   0.38290   0.24811   0.00000  Uiso   1.00
C187   C     0.87664   0.09501   0.23366   0.00000  Uiso   1.00
C188   C     0.78673   0.40557   0.22929   0.00000  Uiso   1.00
C189   C     0.87462   0.04855   0.23344   0.00000  Uiso   1.00
C190   C     0.78784   0.45202   0.23098   0.00000  Uiso   1.00
C191   C     0.83366   0.02411   0.25110   0.00000  Uiso   1.00
C192   C     0.83247   0.47548   0.25039   0.00000  Uiso   1.00
Cu193  Cu    0.83333   0.25000   0.29822   0.00000  Uiso   1.00
Cu194  Cu    0.83333   0.25001   0.20179   0.00000  Uiso   1.00
H195   H     0.99371   0.23881   0.19645   0.00000  Uiso   1.00
H196   H     0.67264   0.27098   0.30061   0.00000  Uiso   1.00
H197   H     0.76273   0.02750   0.28378   0.00000  Uiso   1.00
H198   H     0.91095   0.47026   0.28401   0.00000  Uiso   1.00
H199   H     0.76504   0.10889   0.28449   0.00000  Uiso   1.00
H200   H     0.90964   0.38908   0.28234   0.00000  Uiso   1.00
H201   H     0.90506   0.03124   0.21943   0.00000  Uiso   1.00
H202   H     0.75402   0.46997   0.21686   0.00000  Uiso   1.00
H203   H     0.80503   0.18307   0.12294   0.00000  Uiso   1.00
H204   H     0.90552   0.28524   0.38166   0.00000  Uiso   1.00
H205   H     0.81468   0.17879   0.03746   0.00000  Uiso   1.00
H206   H     0.91242   0.27939   0.46968   0.00000  Uiso   1.00
N207   N     0.83333   0.25001   0.12935   0.00000  Uiso   1.00
N208   N     0.83333   0.24999   0.37066   0.00000  Uiso   1.00
O209   O     0.83334   0.18573   0.29071   0.00000  Uiso   1.00
O210   O     0.83333   0.31428   0.20929   0.00000  Uiso   1.00
O211   O     0.83334   0.18573   0.20928   0.00000  Uiso   1.00
O212   O     0.83333   0.31427   0.29072   0.00000  Uiso   1.00
O213   O     0.75828   0.25000   0.28132   0.00000  Uiso   1.00
O214   O     0.90839   0.25001   0.21868   0.00000  Uiso   1.00
O215   O     0.75828   0.25000   0.19989   0.00000  Uiso   1.00
O216   O     0.90839   0.25000   0.30011   0.00000  Uiso   1.00
C217   C     0.92315   0.11972   0.21637   0.00000  Uiso   1.00
C218   C     0.96097   0.13488   0.25879   0.00000  Uiso   1.00
H219   H     0.94223   0.15754   0.28135   0.00000  Uiso   1.00
H220   H     0.97470   0.10571   0.28121   0.00000  Uiso   1.00
H221   H     0.99484   0.15269   0.24540   0.00000  Uiso   1.00
H222   H     0.94378   0.09789   0.19428   0.00000  Uiso   1.00
H223   H     0.91147   0.14862   0.19272   0.00000  Uiso   1.00
C224   C     0.73732   0.38147   0.20912   0.00000  Uiso   1.00
C225   C     0.70238   0.37092   0.24846   0.00000  Uiso   1.00
H226   H     0.99940   0.35394   0.23271   0.00000  Uiso   1.00
H227   H     0.72186   0.34874   0.27670   0.00000  Uiso   1.00
H228   H     0.69251   0.40203   0.26503   0.00000  Uiso   1.00
H229   H     0.71629   0.40239   0.18053   0.00000  Uiso   1.00
H230   H     0.74535   0.35024   0.19188   0.00000  Uiso   1.00
Cl231  Cl    0.86346   0.33751   0.02117   0.00000  Uiso   1.00
Cl232  Cl    0.73873   0.21069   0.47181   0.00000  Uiso   1.00
C233   C     0.88628   0.32344   0.12955   0.00000  Uiso   1.00
C234   C     0.85828   0.36725   0.13028   0.00000  Uiso   1.00
H235   H     0.86169   0.38769   0.09715   0.00000  Uiso   1.00
H236   H     0.81666   0.36118   0.13404   0.00000  Uiso   1.00
H237   H     0.87642   0.38731   0.16067   0.00000  Uiso   1.00
H238   H     0.90257   0.31305   0.16589   0.00000  Uiso   1.00
H239   H     0.92154   0.32996   0.11116   0.00000  Uiso   1.00
C240   C     0.75726   0.19321   0.36796   0.00000  Uiso   1.00
C241   C     0.70015   0.20375   0.36608   0.00000  Uiso   1.00
H242   H     0.69522   0.23931   0.37302   0.00000  Uiso   1.00
H243   H     0.67985   0.19496   0.33062   0.00000  Uiso   1.00
H244   H     0.68098   0.18287   0.39272   0.00000  Uiso   1.00
H245   H     0.76503   0.18750   0.33143   0.00000  Uiso   1.00
H246   H     0.76324   0.16038   0.38665   0.00000  Uiso   1.00
C247   C     0.16792   0.66516   0.25073   0.00000  Uiso   1.00
C248   C     0.16558   0.83476   0.24929   0.00000  Uiso   1.00
C249   C     0.18413   0.78719   0.05323   0.00000  Uiso   1.00
C250   C     0.12729   0.72962   0.44425   0.00000  Uiso   1.00
C251   C     0.18667   0.78644   0.10434   0.00000  Uiso   1.00
C252   C     0.12804   0.72731   0.39352   0.00000  Uiso   1.00
C253   C     0.15210   0.71244   0.10440   0.00000  Uiso   1.00
C254   C     0.20754   0.76903   0.39853   0.00000  Uiso   1.00
C255   C     0.15685   0.71022   0.05483   0.00000  Uiso   1.00
C256   C     0.21109   0.76621   0.44923   0.00000  Uiso   1.00
C257   C     0.17098   0.74825   0.02772   0.00000  Uiso   1.00
C258   C     0.17004   0.74769   0.47316   0.00000  Uiso   1.00
C259   C     0.06811   0.75026   0.23788   0.00000  Uiso   1.00
C260   C     0.26513   0.75276   0.26176   0.00000  Uiso   1.00
C261   C     0.01294   0.74914   0.23103   0.00000  Uiso   1.00
C262   C     0.32010   0.75873   0.26702   0.00000  Uiso   1.00
C263   C     0.12771   0.54610   0.26965   0.00000  Uiso   1.00
C264   C     0.20965   0.95252   0.26861   0.00000  Uiso   1.00
C265   C     0.12930   0.59227   0.27044   0.00000  Uiso   1.00
C266   C     0.20887   0.90646   0.26777   0.00000  Uiso   1.00
C267   C     0.16974   0.61690   0.25209   0.00000  Uiso   1.00
C268   C     0.16458   0.88290   0.24811   0.00000  Uiso   1.00
C269   C     0.20997   0.59501   0.23366   0.00000  Uiso   1.00
C270   C     0.12006   0.90557   0.22929   0.00000  Uiso   1.00
C271   C     0.20795   0.54855   0.23344   0.00000  Uiso   1.00
C272   C     0.12117   0.95202   0.23098   0.00000  Uiso   1.00
C273   C     0.16699   0.52411   0.25110   0.00000  Uiso   1.00
C274   C     0.16580   0.97548   0.25039   0.00000  Uiso   1.00
Cu275  Cu    0.16667   0.75000   0.29822   0.00000  Uiso   1.00
Cu276  Cu    0.16667   0.75001   0.20179   0.00000  Uiso   1.00
H277   H     0.32704   0.73881   0.19645   0.00000  Uiso   1.00
H278   H     0.00597   0.77098   0.30061   0.00000  Uiso   1.00
H279   H     0.09606   0.52750   0.28378   0.00000  Uiso   1.00
H280   H     0.24428   0.97026   0.28401   0.00000  Uiso   1.00
H281   H     0.09838   0.60889   0.28449   0.00000  Uiso   1.00
H282   H     0.24297   0.88908   0.28234   0.00000  Uiso   1.00
H283   H     0.23839   0.53124   0.21943   0.00000  Uiso   1.00
H284   H     0.08735   0.96997   0.21686   0.00000  Uiso   1.00
H285   H     0.13837   0.68307   0.12294   0.00000  Uiso   1.00
H286   H     0.23886   0.78524   0.38166   0.00000  Uiso   1.00
H287   H     0.14802   0.67879   0.03746   0.00000  Uiso   1.00
H288   H     0.24575   0.77939   0.46968   0.00000  Uiso   1.00
N289   N     0.16667   0.75001   0.12935   0.00000  Uiso   1.00
N290   N     0.16667   0.74999   0.37066   0.00000  Uiso   1.00
O291   O     0.16667   0.68573   0.29071   0.00000  Uiso   1.00
O292   O     0.16666   0.81428   0.20929   0.00000  Uiso   1.00
O293   O     0.16667   0.68573   0.20928   0.00000  Uiso   1.00
O294   O     0.16666   0.81427   0.29072   0.00000  Uiso   1.00
O295   O     0.09161   0.75000   0.28132   0.00000  Uiso   1.00
O296   O     0.24172   0.75001   0.21868   0.00000  Uiso   1.00
O297   O     0.09161   0.75000   0.19989   0.00000  Uiso   1.00
O298   O     0.24172   0.75000   0.30011   0.00000  Uiso   1.00
C299   C     0.25649   0.61972   0.21637   0.00000  Uiso   1.00
C300   C     0.29430   0.63488   0.25879   0.00000  Uiso   1.00
H301   H     0.27556   0.65754   0.28135   0.00000  Uiso   1.00
H302   H     0.30803   0.60571   0.28121   0.00000  Uiso   1.00
H303   H     0.32818   0.65269   0.24540   0.00000  Uiso   1.00
H304   H     0.27712   0.59789   0.19428   0.00000  Uiso   1.00
H305   H     0.24481   0.64862   0.19272   0.00000  Uiso   1.00
C306   C     0.07065   0.88147   0.20912   0.00000  Uiso   1.00
C307   C     0.03571   0.87092   0.24846   0.00000  Uiso   1.00
H308   H     0.33273   0.85394   0.23271   0.00000  Uiso   1.00
H309   H     0.05519   0.84874   0.27670   0.00000  Uiso   1.00
H310   H     0.02584   0.90203   0.26503   0.00000  Uiso   1.00
H311   H     0.04962   0.90239   0.18053   0.00000  Uiso   1.00
H312   H     0.07869   0.85024   0.19188   0.00000  Uiso   1.00
Cl313  Cl    0.19680   0.83751   0.02117   0.00000  Uiso   1.00
Cl314  Cl    0.07207   0.71069   0.47181   0.00000  Uiso   1.00
C315   C     0.21961   0.82344   0.12955   0.00000  Uiso   1.00
C316   C     0.19161   0.86725   0.13028   0.00000  Uiso   1.00
H317   H     0.19502   0.88769   0.09715   0.00000  Uiso   1.00
H318   H     0.15000   0.86118   0.13404   0.00000  Uiso   1.00
H319   H     0.20975   0.88731   0.16067   0.00000  Uiso   1.00
H320   H     0.23590   0.81305   0.16589   0.00000  Uiso   1.00
H321   H     0.25487   0.82996   0.11116   0.00000  Uiso   1.00
C322   C     0.09060   0.69321   0.36796   0.00000  Uiso   1.00
C323   C     0.03348   0.70375   0.36608   0.00000  Uiso   1.00
H324   H     0.02855   0.73931   0.37302   0.00000  Uiso   1.00
H325   H     0.01319   0.69496   0.33062   0.00000  Uiso   1.00
H326   H     0.01431   0.68287   0.39272   0.00000  Uiso   1.00
H327   H     0.09836   0.68750   0.33143   0.00000  Uiso   1.00
H328   H     0.09657   0.66038   0.38665   0.00000  Uiso   1.00
C329   C     0.50125   0.66516   0.25073   0.00000  Uiso   1.00
C330   C     0.49891   0.83476   0.24929   0.00000  Uiso   1.00
C331   C     0.51746   0.78719   0.05323   0.00000  Uiso   1.00
C332   C     0.46062   0.72962   0.44425   0.00000  Uiso   1.00
C333   C     0.52000   0.78644   0.10434   0.00000  Uiso   1.00
C334   C     0.46138   0.72731   0.39352   0.00000  Uiso   1.00
C335   C     0.48544   0.71244   0.10440   0.00000  Uiso   1.00
C336   C     0.54087   0.76903   0.39853   0.00000  Uiso   1.00
C337   C     0.49018   0.71022   0.05483   0.00000  Uiso   1.00
C338   C     0.54442   0.76621   0.44923   0.00000  Uiso   1.00
C339   C     0.50432   0.74825   0.02772   0.00000  Uiso   1.00
C340   C     0.50338   0.74769   0.47316   0.00000  Uiso   1.00
C341   C     0.40145   0.75026   0.23788   0.00000  Uiso   1.00
C342   C     0.59846   0.75276   0.26176   0.00000  Uiso   1.00
C343   C     0.34627   0.74914   0.23103   0.00000  Uiso   1.00
C344   C     0.65343   0.75873   0.26702   0.00000  Uiso   1.00
C345   C     0.46104   0.54610   0.26965   0.00000  Uiso   1.00
C346   C     0.54299   0.95252   0.26861   0.00000  Uiso   1.00
C347   C     0.46263   0.59227   0.27044   0.00000  Uiso   1.00
C348   C     0.54221   0.90646   0.26777   0.00000  Uiso   1.00
C349   C     0.50307   0.61690   0.25209   0.00000  Uiso   1.00
C350   C     0.49791   0.88290   0.24811   0.00000  Uiso   1.00
C351   C     0.54330   0.59501   0.23366   0.00000  Uiso   1.00
C352   C     0.45340   0.90557   0.22929   0.00000  Uiso   1.00
C353   C     0.54128   0.54855   0.23344   0.00000  Uiso   1.00
C354   C     0.45451   0.95202   0.23098   0.00000  Uiso   1.00
C355   C     0.50033   0.52411   0.25110   0.00000  Uiso   1.00
C356   C     0.49914   0.97548   0.25039   0.00000  Uiso   1.00
Cu357  Cu    0.50000   0.75000   0.29822   0.00000  Uiso   1.00
Cu358  Cu    0.50000   0.75001   0.20179   0.00000  Uiso   1.00
H359   H     0.66037   0.73881   0.19645   0.00000  Uiso   1.00
H360   H     0.33930   0.77098   0.30061   0.00000  Uiso   1.00
H361   H     0.42939   0.52750   0.28378   0.00000  Uiso   1.00
H362   H     0.57761   0.97026   0.28401   0.00000  Uiso   1.00
H363   H     0.43171   0.60889   0.28449   0.00000  Uiso   1.00
H364   H     0.57631   0.88908   0.28234   0.00000  Uiso   1.00
H365   H     0.57172   0.53124   0.21943   0.00000  Uiso   1.00
H366   H     0.42068   0.96997   0.21686   0.00000  Uiso   1.00
H367   H     0.47170   0.68307   0.12294   0.00000  Uiso   1.00
H368   H     0.57219   0.78524   0.38166   0.00000  Uiso   1.00
H369   H     0.48135   0.67879   0.03746   0.00000  Uiso   1.00
H370   H     0.57909   0.77939   0.46968   0.00000  Uiso   1.00
N371   N     0.50000   0.75001   0.12935   0.00000  Uiso   1.00
N372   N     0.50000   0.74999   0.37066   0.00000  Uiso   1.00
O373   O     0.50000   0.68573   0.29071   0.00000  Uiso   1.00
O374   O     0.50000   0.81428   0.20929   0.00000  Uiso   1.00
O375   O     0.50000   0.68573   0.20928   0.00000  Uiso   1.00
O376   O     0.50000   0.81427   0.29072   0.00000  Uiso   1.00
O377   O     0.42495   0.75000   0.28132   0.00000  Uiso   1.00
O378   O     0.57505   0.75001   0.21868   0.00000  Uiso   1.00
O379   O     0.42495   0.75000   0.19989   0.00000  Uiso   1.00
O380   O     0.57505   0.75000   0.30011   0.00000  Uiso   1.00
C381   C     0.58982   0.61972   0.21637   0.00000  Uiso   1.00
C382   C     0.62763   0.63488   0.25879   0.00000  Uiso   1.00
H383   H     0.60889   0.65754   0.28135   0.00000  Uiso   1.00
H384   H     0.64136   0.60571   0.28121   0.00000  Uiso   1.00
H385   H     0.66151   0.65269   0.24540   0.00000  Uiso   1.00
H386   H     0.61045   0.59789   0.19428   0.00000  Uiso   1.00
H387   H     0.57814   0.64862   0.19272   0.00000  Uiso   1.00
C388   C     0.40398   0.88147   0.20912   0.00000  Uiso   1.00
C389   C     0.36904   0.87092   0.24846   0.00000  Uiso   1.00
H390   H     0.66607   0.85394   0.23271   0.00000  Uiso   1.00
H391   H     0.38852   0.84874   0.27670   0.00000  Uiso   1.00
H392   H     0.35918   0.90203   0.26503   0.00000  Uiso   1.00
H393   H     0.38296   0.90239   0.18053   0.00000  Uiso   1.00
H394   H     0.41202   0.85024   0.19188   0.00000  Uiso   1.00
Cl395  Cl    0.53013   0.83751   0.02117   0.00000  Uiso   1.00
Cl396  Cl    0.40540   0.71069   0.47181   0.00000  Uiso   1.00
C397   C     0.55294   0.82344   0.12955   0.00000  Uiso   1.00
C398   C     0.52495   0.86725   0.13028   0.00000  Uiso   1.00
H399   H     0.52836   0.88769   0.09715   0.00000  Uiso   1.00
H400   H     0.48333   0.86118   0.13404   0.00000  Uiso   1.00
H401   H     0.54309   0.88731   0.16067   0.00000  Uiso   1.00
H402   H     0.56923   0.81305   0.16589   0.00000  Uiso   1.00
H403   H     0.58821   0.82996   0.11116   0.00000  Uiso   1.00
C404   C     0.42393   0.69321   0.36796   0.00000  Uiso   1.00
C405   C     0.36682   0.70375   0.36608   0.00000  Uiso   1.00
H406   H     0.36188   0.73931   0.37302   0.00000  Uiso   1.00
H407   H     0.34652   0.69496   0.33062   0.00000  Uiso   1.00
H408   H     0.34764   0.68287   0.39272   0.00000  Uiso   1.00
H409   H     0.43169   0.68750   0.33143   0.00000  Uiso   1.00
H410   H     0.42991   0.66038   0.38665   0.00000  Uiso   1.00
C411   C     0.83458   0.66516   0.25073   0.00000  Uiso   1.00
C412   C     0.83225   0.83476   0.24929   0.00000  Uiso   1.00
C413   C     0.85080   0.78719   0.05323   0.00000  Uiso   1.00
C414   C     0.79396   0.72962   0.44425   0.00000  Uiso   1.00
C415   C     0.85334   0.78644   0.10434   0.00000  Uiso   1.00
C416   C     0.79471   0.72731   0.39352   0.00000  Uiso   1.00
C417   C     0.81877   0.71244   0.10440   0.00000  Uiso   1.00
C418   C     0.87420   0.76903   0.39853   0.00000  Uiso   1.00
C419   C     0.82351   0.71022   0.05483   0.00000  Uiso   1.00
C420   C     0.87775   0.76621   0.44923   0.00000  Uiso   1.00
C421   C     0.83765   0.74825   0.02772   0.00000  Uiso   1.00
C422   C     0.83671   0.74769   0.47316   0.00000  Uiso   1.00
C423   C     0.73478   0.75026   0.23788   0.00000  Uiso   1.00
C424   C     0.93180   0.75276   0.26176   0.00000  Uiso   1.00
C425   C     0.67960   0.74914   0.23103   0.00000  Uiso   1.00
C426   C     0.98676   0.75873   0.26702   0.00000  Uiso   1.00
C427   C     0.79438   0.54610   0.26965   0.00000  Uiso   1.00
C428   C     0.87632   0.95252   0.26861   0.00000  Uiso   1.00
C429   C     0.79596   0.59227   0.27044   0.00000  Uiso   1.00
C430   C     0.87554   0.90646   0.26777   0.00000  Uiso   1.00
C431   C     0.83641   0.61690   0.25209   0.00000  Uiso   1.00
C432   C     0.83124   0.88290   0.24811   0.00000  Uiso   1.00
C433   C     0.87664   0.59501   0.23366   0.00000  Uiso   1.00
C434   C     0.78673   0.90557   0.22929   0.00000  Uiso   1.00
C435   C     0.87462   0.54855   0.23344   0.00000  Uiso   1.00
C436   C     0.78784   0.95202   0.23098   0.00000  Uiso   1.00
C437   C     0.83366   0.52411   0.25110   0.00000  Uiso   1.00
C438   C     0.83247   0.97548   0.25039   0.00000  Uiso   1.00
Cu439  Cu    0.83333   0.75000   0.29822   0.00000  Uiso   1.00
Cu440  Cu    0.83333   0.75001   0.20179   0.00000  Uiso   1.00
H441   H     0.99371   0.73881   0.19645   0.00000  Uiso   1.00
H442   H     0.67264   0.77098   0.30061   0.00000  Uiso   1.00
H443   H     0.76273   0.52750   0.28378   0.00000  Uiso   1.00
H444   H     0.91095   0.97026   0.28401   0.00000  Uiso   1.00
H445   H     0.76504   0.60889   0.28449   0.00000  Uiso   1.00
H446   H     0.90964   0.88908   0.28234   0.00000  Uiso   1.00
H447   H     0.90506   0.53124   0.21943   0.00000  Uiso   1.00
H448   H     0.75402   0.96997   0.21686   0.00000  Uiso   1.00
H449   H     0.80503   0.68307   0.12294   0.00000  Uiso   1.00
H450   H     0.90552   0.78524   0.38166   0.00000  Uiso   1.00
H451   H     0.81468   0.67879   0.03746   0.00000  Uiso   1.00
H452   H     0.91242   0.77939   0.46968   0.00000  Uiso   1.00
N453   N     0.83333   0.75001   0.12935   0.00000  Uiso   1.00
N454   N     0.83333   0.74999   0.37066   0.00000  Uiso   1.00
O455   O     0.83334   0.68573   0.29071   0.00000  Uiso   1.00
O456   O     0.83333   0.81428   0.20929   0.00000  Uiso   1.00
O457   O     0.83334   0.68573   0.20928   0.00000  Uiso   1.00
O458   O     0.83333   0.81427   0.29072   0.00000  Uiso   1.00
O459   O     0.75828   0.75000   0.28132   0.00000  Uiso   1.00
O460   O     0.90839   0.75001   0.21868   0.00000  Uiso   1.00
O461   O     0.75828   0.75000   0.19989   0.00000  Uiso   1.00
O462   O     0.90839   0.75000   0.30011   0.00000  Uiso   1.00
C463   C     0.92315   0.61972   0.21637   0.00000  Uiso   1.00
C464   C     0.96097   0.63488   0.25879   0.00000  Uiso   1.00
H465   H     0.94223   0.65754   0.28135   0.00000  Uiso   1.00
H466   H     0.97470   0.60571   0.28121   0.00000  Uiso   1.00
H467   H     0.99484   0.65269   0.24540   0.00000  Uiso   1.00
H468   H     0.94378   0.59789   0.19428   0.00000  Uiso   1.00
H469   H     0.91147   0.64862   0.19272   0.00000  Uiso   1.00
C470   C     0.73732   0.88147   0.20912   0.00000  Uiso   1.00
C471   C     0.70238   0.87092   0.24846   0.00000  Uiso   1.00
H472   H     0.99940   0.85394   0.23271   0.00000  Uiso   1.00
H473   H     0.72186   0.84874   0.27670   0.00000  Uiso   1.00
H474   H     0.69251   0.90203   0.26503   0.00000  Uiso   1.00
H475   H     0.71629   0.90239   0.18053   0.00000  Uiso   1.00
H476   H     0.74535   0.85024   0.19188   0.00000  Uiso   1.00
Cl477  Cl    0.86346   0.83751   0.02117   0.00000  Uiso   1.00
Cl478  Cl    0.73873   0.71069   0.47181   0.00000  Uiso   1.00
C479   C     0.88628   0.82344   0.12955   0.00000  Uiso   1.00
C480   C     0.85828   0.86725   0.13028   0.00000  Uiso   1.00
H481   H     0.86169   0.88769   0.09715   0.00000  Uiso   1.00
H482   H     0.81666   0.86118   0.13404   0.00000  Uiso   1.00
H483   H     0.87642   0.88731   0.16067   0.00000  Uiso   1.00
H484   H     0.90257   0.81305   0.16589   0.00000  Uiso   1.00
H485   H     0.92154   0.82996   0.11116   0.00000  Uiso   1.00
C486   C     0.75726   0.69321   0.36796   0.00000  Uiso   1.00
C487   C     0.70015   0.70375   0.36608   0.00000  Uiso   1.00
H488   H     0.69522   0.73931   0.37302   0.00000  Uiso   1.00
H489   H     0.67985   0.69496   0.33062   0.00000  Uiso   1.00
H490   H     0.68098   0.68287   0.39272   0.00000  Uiso   1.00
H491   H     0.76503   0.68750   0.33143   0.00000  Uiso   1.00
H492   H     0.76324   0.66038   0.38665   0.00000  Uiso   1.00
C493   C     0.16792   0.16516   0.75073   0.00000  Uiso   1.00
C494   C     0.16558   0.33476   0.74929   0.00000  Uiso   1.00
C495   C     0.18413   0.28719   0.55323   0.00000  Uiso   1.00
C496   C     0.12729   0.22962   0.94425   0.00000  Uiso   1.00
C497   C     0.18667   0.28644   0.60434   0.00000  Uiso   1.00
C498   C     0.12804   0.22731   0.89352   0.00000  Uiso   1.00
C499   C     0.15210   0.21244   0.60440   0.00000  Uiso   1.00
C500   C     0.20754   0.26903   0.89853   0.00000  Uiso   1.00
C501   C     0.15685   0.21022   0.55483   0.00000  Uiso   1.00
C502   C     0.21109   0.26621   0.94923   0.00000  Uiso   1.00
C503   C     0.17098   0.24825   0.52772   0.00000  Uiso   1.00
C504   C     0.17004   0.24769   0.97316   0.00000  Uiso   1.00
C505   C     0.06811   0.25026   0.73788   0.00000  Uiso   1.00
C506   C     0.26513   0.25276   0.76176   0.00000  Uiso   1.00
C507   C     0.01294   0.24914   0.73103   0.00000  Uiso   1.00
C508   C     0.32010   0.25873   0.76702   0.00000  Uiso   1.00
C509   C     0.12771   0.04610   0.76965   0.00000  Uiso   1.00
C510   C     0.20965   0.45252   0.76861   0.00000  Uiso   1.00
C511   C     0.12930   0.09227   0.77044   0.00000  Uiso   1.00
C512   C     0.20887   0.40646   0.76777   0.00000  Uiso   1.00
C513   C     0.16974   0.11690   0.75209   0.00000  Uiso   1.00
C514   C     0.16458   0.38290   0.74811   0.00000  Uiso   1.00
C515   C     0.20997   0.09501   0.73366   0.00000  Uiso   1.00
C516   C     0.12006   0.40557   0.72929   0.00000  Uiso   1.00
C517   C     0.20795   0.04855   0.73344   0.00000  Uiso   1.00
C518   C     0.12117   0.45202   0.73098   0.00000  Uiso   1.00
C519   C     0.16699   0.02411   0.75110   0.00000  Uiso   1.00
C520   C     0.16580   0.47548   0.75039   0.00000  Uiso   1.00
Cu521  Cu    0.16667   0.25000   0.79822   0.00000  Uiso   1.00
Cu522  Cu    0.16667   0.25001   0.70179   0.00000  Uiso   1.00
H523   H     0.32704   0.23881   0.69645   0.00000  Uiso   1.00
H524   H     0.00597   0.27098   0.80061   0.00000  Uiso   1.00
H525   H     0.09606   0.02750   0.78378   0.00000  Uiso   1.00
H526   H     0.24428   0.47026   0.78401   0.00000  Uiso   1.00
H527   H     0.09838   0.10889   0.78449   0.00000  Uiso   1.00
H528   H     0.24297   0.38908   0.78234   0.00000  Uiso   1.00
H529   H     0.23839   0.03124   0.71943   0.00000  Uiso   1.00
H530   H     0.08735   0.46997   0.71686   0.00000  Uiso   1.00
H531   H     0.13837   0.18307   0.62294   0.00000  Uiso   1.00
H532   H     0.23886   0.28524   0.88166   0.00000  Uiso   1.00
H533   H     0.14802   0.17879   0.53746   0.00000  Uiso   1.00
H534   H     0.24575   0.27939   0.96968   0.00000  Uiso   1.00
N535   N     0.16667   0.25001   0.62935   0.00000  Uiso   1.00
N536   N     0.16667   0.24999   0.87066   0.00000  Uiso   1.00
O537   O     0.16667   0.18573   0.79071   0.00000  Uiso   1.00
O538   O     0.16666   0.31428   0.70929   0.00000  Uiso   1.00
O539   O     0.16667   0.18573   0.70928   0.00000  Uiso   1.00
O540   O     0.16666   0.31427   0.79072   0.00000  Uiso   1.00
O541   O     0.09161   0.25000   0.78132   0.00000  Uiso   1.00
O542   O     0.24172   0.25001   0.71868   0.00000  Uiso   1.00
O543   O     0.09161   0.25000   0.69989   0.00000  Uiso   1.00
O544   O     0.24172   0.25000   0.80011   0.00000  Uiso   1.00
C545   C     0.25649   0.11972   0.71637   0.00000  Uiso   1.00
C546   C     0.29430   0.13488   0.75879   0.00000  Uiso   1.00
H547   H     0.27556   0.15754   0.78135   0.00000  Uiso   1.00
H548   H     0.30803   0.10571   0.78121   0.00000  Uiso   1.00
H549   H     0.32818   0.15269   0.74540   0.00000  Uiso   1.00
H550   H     0.27712   0.09789   0.69428   0.00000  Uiso   1.00
H551   H     0.24481   0.14862   0.69272   0.00000  Uiso   1.00
C552   C     0.07065   0.38147   0.70912   0.00000  Uiso   1.00
C553   C     0.03571   0.37092   0.74846   0.00000  Uiso   1.00
H554   H     0.33273   0.35394   0.73271   0.00000  Uiso   1.00
H555   H     0.05519   0.34874   0.77670   0.00000  Uiso   1.00
H556   H     0.02584   0.40203   0.76503   0.00000  Uiso   1.00
H557   H     0.04962   0.40239   0.68053   0.00000  Uiso   1.00
H558   H     0.07869   0.35024   0.69188   0.00000  Uiso   1.00
Cl559  Cl    0.19680   0.33751   0.52117   0.00000  Uiso   1.00
Cl560  Cl    0.07207   0.21069   0.97181   0.00000  Uiso   1.00
C561   C     0.21961   0.32344   0.62955   0.00000  Uiso   1.00
C562   C     0.19161   0.36725   0.63028   0.00000  Uiso   1.00
H563   H     0.19502   0.38769   0.59715   0.00000  Uiso   1.00
H564   H     0.15000   0.36118   0.63404   0.00000  Uiso   1.00
H565   H     0.20975   0.38731   0.66067   0.00000  Uiso   1.00
H566   H     0.23590   0.31305   0.66589   0.00000  Uiso   1.00
H567   H     0.25487   0.32996   0.61116   0.00000  Uiso   1.00
C568   C     0.09060   0.19321   0.86796   0.00000  Uiso   1.00
C569   C     0.03348   0.20375   0.86608   0.00000  Uiso   1.00
H570   H     0.02855   0.23931   0.87302   0.00000  Uiso   1.00
H571   H     0.01319   0.19496   0.83062   0.00000  Uiso   1.00
H572   H     0.01431   0.18287   0.89272   0.00000  Uiso   1.00
H573   H     0.09836   0.18750   0.83143   0.00000  Uiso   1.00
H574   H     0.09657   0.16038   0.88665   0.00000  Uiso   1.00
C575   C     0.50125   0.16516   0.75073   0.00000  Uiso   1.00
C576   C     0.49891   0.33476   0.74929   0.00000  Uiso   1.00
C577   C     0.51746   0.28719   0.55323   0.00000  Uiso   1.00
C578   C     0.46062   0.22962   0.94425   0.00000  Uiso   1.00
C579   C     0.52000   0.28644   0.60434   0.00000  Uiso   1.00
C580   C     0.46138   0.22731   0.89352   0.00000  Uiso   1.00
C581   C     0.48544   0.21244   0.60440   0.00000  Uiso   1.00
C582   C     0.54087   0.26903   0.89853   0.00000  Uiso   1.00
C583   C     0.49018   0.21022   0.55483   0.00000  Uiso   1.00
C584   C     0.54442   0.26621   0.94923   0.00000  Uiso   1.00
C585   C     0.50432   0.24825   0.52772   0.00000  Uiso   1.00
C586   C     0.50338   0.24769   0.97316   0.00000  Uiso   1.00
C587   C     0.40145   0.25026   0.73788   0.00000  Uiso   1.00
C588   C     0.59846   0.25276   0.76176   0.00000  Uiso   1.00
C589   C     0.34627   0.24914   0.73103   0.00000  Uiso   1.00
C590   C     0.65343   0.25873   0.76702   0.00000  Uiso   1.00
C591   C     0.46104   0.04610   0.76965   0.00000  Uiso   1.00
C592   C     0.54299   0.45252   0.76861   0.00000  Uiso   1.00
C593   C     0.46263   0.09227   0.77044   0.00000  Uiso   1.00
C594   C     0.54221   0.40646   0.76777   0.00000  Uiso   1.00
C595   C     0.50307   0.11690   0.75209   0.00000  Uiso   1.00
C596   C     0.49791   0.38290   0.74811   0.00000  Uiso   1.00
C597   C     0.54330   0.09501   0.73366   0.00000  Uiso   1.00
C598   C     0.45340   0.40557   0.72929   0.00000  Uiso   1.00
C599   C     0.54128   0.04855   0.73344   0.00000  Uiso   1.00
C600   C     0.45451   0.45202   0.73098   0.00000  Uiso   1.00
C601   C     0.50033   0.02411   0.75110   0.00000  Uiso   1.00
C602   C     0.49914   0.47548   0.75039   0.00000  Uiso   1.00
Cu603  Cu    0.50000   0.25000   0.79822   0.00000  Uiso   1.00
Cu604  Cu    0.50000   0.25001   0.70179   0.00000  Uiso   1.00
H605   H     0.66037   0.23881   0.69645   0.00000  Uiso   1.00
H606   H     0.33930   0.27098   0.80061   0.00000  Uiso   1.00
H607   H     0.42939   0.02750   0.78378   0.00000  Uiso   1.00
H608   H     0.57761   0.47026   0.78401   0.00000  Uiso   1.00
H609   H     0.43171   0.10889   0.78449   0.00000  Uiso   1.00
H610   H     0.57631   0.38908   0.78234   0.00000  Uiso   1.00
H611   H     0.57172   0.03124   0.71943   0.00000  Uiso   1.00
H612   H     0.42068   0.46997   0.71686   0.00000  Uiso   1.00
H613   H     0.47170   0.18307   0.62294   0.00000  Uiso   1.00
H614   H     0.57219   0.28524   0.88166   0.00000  Uiso   1.00
H615   H     0.48135   0.17879   0.53746   0.00000  Uiso   1.00
H616   H     0.57909   0.27939   0.96968   0.00000  Uiso   1.00
N617   N     0.50000   0.25001   0.62935   0.00000  Uiso   1.00
N618   N     0.50000   0.24999   0.87066   0.00000  Uiso   1.00
O619   O     0.50000   0.18573   0.79071   0.00000  Uiso   1.00
O620   O     0.50000   0.31428   0.70929   0.00000  Uiso   1.00
O621   O     0.50000   0.18573   0.70928   0.00000  Uiso   1.00
O622   O     0.50000   0.31427   0.79072   0.00000  Uiso   1.00
O623   O     0.42495   0.25000   0.78132   0.00000  Uiso   1.00
O624   O     0.57505   0.25001   0.71868   0.00000  Uiso   1.00
O625   O     0.42495   0.25000   0.69989   0.00000  Uiso   1.00
O626   O     0.57505   0.25000   0.80011   0.00000  Uiso   1.00
C627   C     0.58982   0.11972   0.71637   0.00000  Uiso   1.00
C628   C     0.62763   0.13488   0.75879   0.00000  Uiso   1.00
H629   H     0.60889   0.15754   0.78135   0.00000  Uiso   1.00
H630   H     0.64136   0.10571   0.78121   0.00000  Uiso   1.00
H631   H     0.66151   0.15269   0.74540   0.00000  Uiso   1.00
H632   H     0.61045   0.09789   0.69428   0.00000  Uiso   1.00
H633   H     0.57814   0.14862   0.69272   0.00000  Uiso   1.00
C634   C     0.40398   0.38147   0.70912   0.00000  Uiso   1.00
C635   C     0.36904   0.37092   0.74846   0.00000  Uiso   1.00
H636   H     0.66607   0.35394   0.73271   0.00000  Uiso   1.00
H637   H     0.38852   0.34874   0.77670   0.00000  Uiso   1.00
H638   H     0.35918   0.40203   0.76503   0.00000  Uiso   1.00
H639   H     0.38296   0.40239   0.68053   0.00000  Uiso   1.00
H640   H     0.41202   0.35024   0.69188   0.00000  Uiso   1.00
Cl641  Cl    0.53013   0.33751   0.52117   0.00000  Uiso   1.00
Cl642  Cl    0.40540   0.21069   0.97181   0.00000  Uiso   1.00
C643   C     0.55294   0.32344   0.62955   0.00000  Uiso   1.00
C644   C     0.52495   0.36725   0.63028   0.00000  Uiso   1.00
H645   H     0.52836   0.38769   0.59715   0.00000  Uiso   1.00
H646   H     0.48333   0.36118   0.63404   0.00000  Uiso   1.00
H647   H     0.54309   0.38731   0.66067   0.00000  Uiso   1.00
H648   H     0.56923   0.31305   0.66589   0.00000  Uiso   1.00
H649   H     0.58821   0.32996   0.61116   0.00000  Uiso   1.00
C650   C     0.42393   0.19321   0.86796   0.00000  Uiso   1.00
C651   C     0.36682   0.20375   0.86608   0.00000  Uiso   1.00
H652   H     0.36188   0.23931   0.87302   0.00000  Uiso   1.00
H653   H     0.34652   0.19496   0.83062   0.00000  Uiso   1.00
H654   H     0.34764   0.18287   0.89272   0.00000  Uiso   1.00
H655   H     0.43169   0.18750   0.83143   0.00000  Uiso   1.00
H656   H     0.42991   0.16038   0.88665   0.00000  Uiso   1.00
C657   C     0.83458   0.16516   0.75073   0.00000  Uiso   1.00
C658   C     0.83225   0.33476   0.74929   0.00000  Uiso   1.00
C659   C     0.85080   0.28719   0.55323   0.00000  Uiso   1.00
C660   C     0.79396   0.22962   0.94425   0.00000  Uiso   1.00
C661   C     0.85334   0.28644   0.60434   0.00000  Uiso   1.00
C662   C     0.79471   0.22731   0.89352   0.00000  Uiso   1.00
C663   C     0.81877   0.21244   0.60440   0.00000  Uiso   1.00
C664   C     0.87420   0.26903   0.89853   0.00000  Uiso   1.00
C665   C     0.82351   0.21022   0.55483   0.00000  Uiso   1.00
C666   C     0.87775   0.26621   0.94923   0.00000  Uiso   1.00
C667   C     0.83765   0.24825   0.52772   0.00000  Uiso   1.00
C668   C     0.83671   0.24769   0.97316   0.00000  Uiso   1.00
C669   C     0.73478   0.25026   0.73788   0.00000  Uiso   1.00
C670   C     0.93180   0.25276   0.76176   0.00000  Uiso   1.00
C671   C     0.67960   0.24914   0.73103   0.00000  Uiso   1.00
C672   C     0.98676   0.25873   0.76702   0.00000  Uiso   1.00
C673   C     0.79438   0.04610   0.76965   0.00000  Uiso   1.00
C674   C     0.87632   0.45252   0.76861   0.00000  Uiso   1.00
C675   C     0.79596   0.09227   0.77044   0.00000  Uiso   1.00
C676   C     0.87554   0.40646   0.76777   0.00000  Uiso   1.00
C677   C     0.83641   0.11690   0.75209   0.00000  Uiso   1.00
C678   C     0.83124   0.38290   0.74811   0.00000  Uiso   1.00
C679   C     0.87664   0.09501   0.73366   0.00000  Uiso   1.00
C680   C     0.78673   0.40557   0.72929   0.00000  Uiso   1.00
C681   C     0.87462   0.04855   0.73344   0.00000  Uiso   1.00
C682   C     0.78784   0.45202   0.73098   0.00000  Uiso   1.00
C683   C     0.83366   0.02411   0.75110   0.00000  Uiso   1.00
C684   C     0.83247   0.47548   0.75039   0.00000  Uiso   1.00
Cu685  Cu    0.83333   0.25000   0.79822   0.00000  Uiso   1.00
Cu686  Cu    0.83333   0.25001   0.70179   0.00000  Uiso   1.00
H687   H     0.99371   0.23881   0.69645   0.00000  Uiso   1.00
H688   H     0.67264   0.27098   0.80061   0.00000  Uiso   1.00
H689   H     0.76273   0.02750   0.78378   0.00000  Uiso   1.00
H690   H     0.91095   0.47026   0.78401   0.00000  Uiso   1.00
H691   H     0.76504   0.10889   0.78449   0.00000  Uiso   1.00
H692   H     0.90964   0.38908   0.78234   0.00000  Uiso   1.00
H693   H     0.90506   0.03124   0.71943   0.00000  Uiso   1.00
H694   H     0.75402   0.46997   0.71686   0.00000  Uiso   1.00
H695   H     0.80503   0.18307   0.62294   0.00000  Uiso   1.00
H696   H     0.90552   0.28524   0.88166   0.00000  Uiso   1.00
H697   H     0.81468   0.17879   0.53746   0.00000  Uiso   1.00
H698   H     0.91242   0.27939   0.96968   0.00000  Uiso   1.00
N699   N     0.83333   0.25001   0.62935   0.00000  Uiso   1.00
N700   N     0.83333   0.24999   0.87066   0.00000  Uiso   1.00
O701   O     0.83334   0.18573   0.79071   0.00000  Uiso   1.00
O702   O     0.83333   0.31428   0.70929   0.00000  Uiso   1.00
O703   O     0.83334   0.18573   0.70928   0.00000  Uiso   1.00
O704   O     0.83333   0.31427   0.79072   0.00000  Uiso   1.00
O705   O     0.75828   0.25000   0.78132   0.00000  Uiso   1.00
O706   O     0.90839   0.25001   0.71868   0.00000  Uiso   1.00
O707   O     0.75828   0.25000   0.69989   0.00000  Uiso   1.00
O708   O     0.90839   0.25000   0.80011   0.00000  Uiso   1.00
C709   C     0.92315   0.11972   0.71637   0.00000  Uiso   1.00
C710   C     0.96097   0.13488   0.75879   0.00000  Uiso   1.00
H711   H     0.94223   0.15754   0.78135   0.00000  Uiso   1.00
H712   H     0.97470   0.10571   0.78121   0.00000  Uiso   1.00
H713   H     0.99484   0.15269   0.74540   0.00000  Uiso   1.00
H714   H     0.94378   0.09789   0.69428   0.00000  Uiso   1.00
H715   H     0.91147   0.14862   0.69272   0.00000  Uiso   1.00
C716   C     0.73732   0.38147   0.70912   0.00000  Uiso   1.00
C717   C     0.70238   0.37092   0.74846   0.00000  Uiso   1.00
H718   H     0.99940   0.35394   0.73271   0.00000  Uiso   1.00
H719   H     0.72186   0.34874   0.77670   0.00000  Uiso   1.00
H720   H     0.69251   0.40203   0.76503   0.00000  Uiso   1.00
H721   H     0.71629   0.40239   0.68053   0.00000  Uiso   1.00
H722   H     0.74535   0.35024   0.69188   0.00000  Uiso   1.00
Cl723  Cl    0.86346   0.33751   0.52117   0.00000  Uiso   1.00
Cl724  Cl    0.73873   0.21069   0.97181   0.00000  Uiso   1.00
C725   C     0.88628   0.32344   0.62955   0.00000  Uiso   1.00
C726   C     0.85828   0.36725   0.63028   0.00000  Uiso   1.00
H727   H     0.86169   0.38769   0.59715   0.00000  Uiso   1.00
H728   H     0.81666   0.36118   0.63404   0.00000  Uiso   1.00
H729   H     0.87642   0.38731   0.66067   0.00000  Uiso   1.00
H730   H     0.90257   0.31305   0.66589   0.00000  Uiso   1.00
H731   H     0.92154   0.32996   0.61116   0.00000  Uiso   1.00
C732   C     0.75726   0.19321   0.86796   0.00000  Uiso   1.00
C733   C     0.70015   0.20375   0.86608   0.00000  Uiso   1.00
H734   H     0.69522   0.23931   0.87302   0.00000  Uiso   1.00
H735   H     0.67985   0.19496   0.83062   0.00000  Uiso   1.00
H736   H     0.68098   0.18287   0.89272   0.00000  Uiso   1.00
H737   H     0.76503   0.18750   0.83143   0.00000  Uiso   1.00
H738   H     0.76324   0.16038   0.88665   0.00000  Uiso   1.00
C739   C     0.16792   0.66516   0.75073   0.00000  Uiso   1.00
C740   C     0.16558   0.83476   0.74929   0.00000  Uiso   1.00
C741   C     0.18413   0.78719   0.55323   0.00000  Uiso   1.00
C742   C     0.12729   0.72962   0.94425   0.00000  Uiso   1.00
C743   C     0.18667   0.78644   0.60434   0.00000  Uiso   1.00
C744   C     0.12804   0.72731   0.89352   0.00000  Uiso   1.00
C745   C     0.15210   0.71244   0.60440   0.00000  Uiso   1.00
C746   C     0.20754   0.76903   0.89853   0.00000  Uiso   1.00
C747   C     0.15685   0.71022   0.55483   0.00000  Uiso   1.00
C748   C     0.21109   0.76621   0.94923   0.00000  Uiso   1.00
C749   C     0.17098   0.74825   0.52772   0.00000  Uiso   1.00
C750   C     0.17004   0.74769   0.97316   0.00000  Uiso   1.00
C751   C     0.06811   0.75026   0.73788   0.00000  Uiso   1.00
C752   C     0.26513   0.75276   0.76176   0.00000  Uiso   1.00
C753   C     0.01294   0.74914   0.73103   0.00000  Uiso   1.00
C754   C     0.32010   0.75873   0.76702   0.00000  Uiso   1.00
C755   C     0.12771   0.54610   0.76965   0.00000  Uiso   1.00
C756   C     0.20965   0.95252   0.76861   0.00000  Uiso   1.00
C757   C     0.12930   0.59227   0.77044   0.00000  Uiso   1.00
C758   C     0.20887   0.90646   0.76777   0.00000  Uiso   1.00
C759   C     0.16974   0.61690   0.75209   0.00000  Uiso   1.00
C760   C     0.16458   0.88290   0.74811   0.00000  Uiso   1.00
C761   C     0.20997   0.59501   0.73366   0.00000  Uiso   1.00
C762   C     0.12006   0.90557   0.72929   0.00000  Uiso   1.00
C763   C     0.20795   0.54855   0.73344   0.00000  Uiso   1.00
C764   C     0.12117   0.95202   0.73098   0.00000  Uiso   1.00
C765   C     0.16699   0.52411   0.75110   0.00000  Uiso   1.00
C766   C     0.16580   0.97548   0.75039   0.00000  Uiso   1.00
Cu767  Cu    0.16667   0.75000   0.79822   0.00000  Uiso   1.00
Cu768  Cu    0.16667   0.75001   0.70179   0.00000  Uiso   1.00
H769   H     0.32704   0.73881   0.69645   0.00000  Uiso   1.00
H770   H     0.00597   0.77098   0.80061   0.00000  Uiso   1.00
H771   H     0.09606   0.52750   0.78378   0.00000  Uiso   1.00
H772   H     0.24428   0.97026   0.78401   0.00000  Uiso   1.00
H773   H     0.09838   0.60889   0.78449   0.00000  Uiso   1.00
H774   H     0.24297   0.88908   0.78234   0.00000  Uiso   1.00
H775   H     0.23839   0.53124   0.71943   0.00000  Uiso   1.00
H776   H     0.08735   0.96997   0.71686   0.00000  Uiso   1.00
H777   H     0.13837   0.68307   0.62294   0.00000  Uiso   1.00
H778   H     0.23886   0.78524   0.88166   0.00000  Uiso   1.00
H779   H     0.14802   0.67879   0.53746   0.00000  Uiso   1.00
H780   H     0.24575   0.77939   0.96968   0.00000  Uiso   1.00
N781   N     0.16667   0.75001   0.62935   0.00000  Uiso   1.00
N782   N     0.16667   0.74999   0.87066   0.00000  Uiso   1.00
O783   O     0.16667   0.68573   0.79071   0.00000  Uiso   1.00
O784   O     0.16666   0.81428   0.70929   0.00000  Uiso   1.00
O785   O     0.16667   0.68573   0.70928   0.00000  Uiso   1.00
O786   O     0.16666   0.81427   0.79072   0.00000  Uiso   1.00
O787   O     0.09161   0.75000   0.78132   0.00000  Uiso   1.00
O788   O     0.24172   0.75001   0.71868   0.00000  Uiso   1.00
O789   O     0.09161   0.75000   0.69989   0.00000  Uiso   1.00
O790   O     0.24172   0.75000   0.80011   0.00000  Uiso   1.00
C791   C     0.25649   0.61972   0.71637   0.00000  Uiso   1.00
C792   C     0.29430   0.63488   0.75879   0.00000  Uiso   1.00
H793   H     0.27556   0.65754   0.78135   0.00000  Uiso   1.00
H794   H     0.30803   0.60571   0.78121   0.00000  Uiso   1.00
H795   H     0.32818   0.65269   0.74540   0.00000  Uiso   1.00
H796   H     0.27712   0.59789   0.69428   0.00000  Uiso   1.00
H797   H     0.24481   0.64862   0.69272   0.00000  Uiso   1.00
C798   C     0.07065   0.88147   0.70912   0.00000  Uiso   1.00
C799   C     0.03571   0.87092   0.74846   0.00000  Uiso   1.00
H800   H     0.33273   0.85394   0.73271   0.00000  Uiso   1.00
H801   H     0.05519   0.84874   0.77670   0.00000  Uiso   1.00
H802   H     0.02584   0.90203   0.76503   0.00000  Uiso   1.00
H803   H     0.04962   0.90239   0.68053   0.00000  Uiso   1.00
H804   H     0.07869   0.85024   0.69188   0.00000  Uiso   1.00
Cl805  Cl    0.19680   0.83751   0.52117   0.00000  Uiso   1.00
Cl806  Cl    0.07207   0.71069   0.97181   0.00000  Uiso   1.00
C807   C     0.21961   0.82344   0.62955   0.00000  Uiso   1.00
C808   C     0.19161   0.86725   0.63028   0.00000  Uiso   1.00
H809   H     0.19502   0.88769   0.59715   0.00000  Uiso   1.00
H810   H     0.15000   0.86118   0.63404   0.00000  Uiso   1.00
H811   H     0.20975   0.88731   0.66067   0.00000  Uiso   1.00
H812   H     0.23590   0.81305   0.66589   0.00000  Uiso   1.00
H813   H     0.25487   0.82996   0.61116   0.00000  Uiso   1.00
C814   C     0.09060   0.69321   0.86796   0.00000  Uiso   1.00
C815   C     0.03348   0.70375   0.86608   0.00000  Uiso   1.00
H816   H     0.02855   0.73931   0.87302   0.00000  Uiso   1.00
H817   H     0.01319   0.69496   0.83062   0.00000  Uiso   1.00
H818   H     0.01431   0.68287   0.89272   0.00000  Uiso   1.00
H819   H     0.09836   0.68750   0.83143   0.00000  Uiso   1.00
H820   H     0.09657   0.66038   0.88665   0.00000  Uiso   1.00
C821   C     0.50125   0.66516   0.75073   0.00000  Uiso   1.00
C822   C     0.49891   0.83476   0.74929   0.00000  Uiso   1.00
C823   C     0.51746   0.78719   0.55323   0.00000  Uiso   1.00
C824   C     0.46062   0.72962   0.94425   0.00000  Uiso   1.00
C825   C     0.52000   0.78644   0.60434   0.00000  Uiso   1.00
C826   C     0.46138   0.72731   0.89352   0.00000  Uiso   1.00
C827   C     0.48544   0.71244   0.60440   0.00000  Uiso   1.00
C828   C     0.54087   0.76903   0.89853   0.00000  Uiso   1.00
C829   C     0.49018   0.71022   0.55483   0.00000  Uiso   1.00
C830   C     0.54442   0.76621   0.94923   0.00000  Uiso   1.00
C831   C     0.50432   0.74825   0.52772   0.00000  Uiso   1.00
C832   C     0.50338   0.74769   0.97316   0.00000  Uiso   1.00
C833   C     0.40145   0.75026   0.73788   0.00000  Uiso   1.00
C834   C     0.59846   0.75276   0.76176   0.00000  Uiso   1.00
C835   C     0.34627   0.74914   0.73103   0.00000  Uiso   1.00
C836   C     0.65343   0.75873   0.76702   0.00000  Uiso   1.00
C837   C     0.46104   0.54610   0.76965   0.00000  Uiso   1.00
C838   C     0.54299   0.95252   0.76861   0.00000  Uiso   1.00
C839   C     0.46263   0.59227   0.77044   0.00000  Uiso   1.00
C840   C     0.54221   0.90646   0.76777   0.00000  Uiso   1.00
C841   C     0.50307   0.61690   0.75209   0.00000  Uiso   1.00
C842   C     0.49791   0.88290   0.74811   0.00000  Uiso   1.00
C843   C     0.54330   0.59501   0.73366   0.00000  Uiso   1.00
C844   C     0.45340   0.90557   0.72929   0.00000  Uiso   1.00
C845   C     0.54128   0.54855   0.73344   0.00000  Uiso   1.00
C846   C     0.45451   0.95202   0.73098   0.00000  Uiso   1.00
C847   C     0.50033   0.52411   0.75110   0.00000  Uiso   1.00
C848   C     0.49914   0.97548   0.75039   0.00000  Uiso   1.00
Cu849  Cu    0.50000   0.75000   0.79822   0.00000  Uiso   1.00
Cu850  Cu    0.50000   0.75001   0.70179   0.00000  Uiso   1.00
H851   H     0.66037   0.73881   0.69645   0.00000  Uiso   1.00
H852   H     0.33930   0.77098   0.80061   0.00000  Uiso   1.00
H853   H     0.42939   0.52750   0.78378   0.00000  Uiso   1.00
H854   H     0.57761   0.97026   0.78401   0.00000  Uiso   1.00
H855   H     0.43171   0.60889   0.78449   0.00000  Uiso   1.00
H856   H     0.57631   0.88908   0.78234   0.00000  Uiso   1.00
H857   H     0.57172   0.53124   0.71943   0.00000  Uiso   1.00
H858   H     0.42068   0.96997   0.71686   0.00000  Uiso   1.00
H859   H     0.47170   0.68307   0.62294   0.00000  Uiso   1.00
H860   H     0.57219   0.78524   0.88166   0.00000  Uiso   1.00
H861   H     0.48135   0.67879   0.53746   0.00000  Uiso   1.00
H862   H     0.57909   0.77939   0.96968   0.00000  Uiso   1.00
N863   N     0.50000   0.75001   0.62935   0.00000  Uiso   1.00
N864   N     0.50000   0.74999   0.87066   0.00000  Uiso   1.00
O865   O     0.50000   0.68573   0.79071   0.00000  Uiso   1.00
O866   O     0.50000   0.81428   0.70929   0.00000  Uiso   1.00
O867   O     0.50000   0.68573   0.70928   0.00000  Uiso   1.00
O868   O     0.50000   0.81427   0.79072   0.00000  Uiso   1.00
O869   O     0.42495   0.75000   0.78132   0.00000  Uiso   1.00
O870   O     0.57505   0.75001   0.71868   0.00000  Uiso   1.00
O871   O     0.42495   0.75000   0.69989   0.00000  Uiso   1.00
O872   O     0.57505   0.75000   0.80011   0.00000  Uiso   1.00
C873   C     0.58982   0.61972   0.71637   0.00000  Uiso   1.00
C874   C     0.62763   0.63488   0.75879   0.00000  Uiso   1.00
H875   H     0.60889   0.65754   0.78135   0.00000  Uiso   1.00
H876   H     0.64136   0.60571   0.78121   0.00000  Uiso   1.00
H877   H     0.66151   0.65269   0.74540   0.00000  Uiso   1.00
H878   H     0.61045   0.59789   0.69428   0.00000  Uiso   1.00
H879   H     0.57814   0.64862   0.69272   0.00000  Uiso   1.00
C880   C     0.40398   0.88147   0.70912   0.00000  Uiso   1.00
C881   C     0.36904   0.87092   0.74846   0.00000  Uiso   1.00
H882   H     0.66607   0.85394   0.73271   0.00000  Uiso   1.00
H883   H     0.38852   0.84874   0.77670   0.00000  Uiso   1.00
H884   H     0.35918   0.90203   0.76503   0.00000  Uiso   1.00
H885   H     0.38296   0.90239   0.68053   0.00000  Uiso   1.00
H886   H     0.41202   0.85024   0.69188   0.00000  Uiso   1.00
Cl887  Cl    0.53013   0.83751   0.52117   0.00000  Uiso   1.00
Cl888  Cl    0.40540   0.71069   0.97181   0.00000  Uiso   1.00
C889   C     0.55294   0.82344   0.62955   0.00000  Uiso   1.00
C890   C     0.52495   0.86725   0.63028   0.00000  Uiso   1.00
H891   H     0.52836   0.88769   0.59715   0.00000  Uiso   1.00
H892   H     0.48333   0.86118   0.63404   0.00000  Uiso   1.00
H893   H     0.54309   0.88731   0.66067   0.00000  Uiso   1.00
H894   H     0.56923   0.81305   0.66589   0.00000  Uiso   1.00
H895   H     0.58821   0.82996   0.61116   0.00000  Uiso   1.00
C896   C     0.42393   0.69321   0.86796   0.00000  Uiso   1.00
C897   C     0.36682   0.70375   0.86608   0.00000  Uiso   1.00
H898   H     0.36188   0.73931   0.87302   0.00000  Uiso   1.00
H899   H     0.34652   0.69496   0.83062   0.00000  Uiso   1.00
H900   H     0.34764   0.68287   0.89272   0.00000  Uiso   1.00
H901   H     0.43169   0.68750   0.83143   0.00000  Uiso   1.00
H902   H     0.42991   0.66038   0.88665   0.00000  Uiso   1.00
C903   C     0.83458   0.66516   0.75073   0.00000  Uiso   1.00
C904   C     0.83225   0.83476   0.74929   0.00000  Uiso   1.00
C905   C     0.85080   0.78719   0.55323   0.00000  Uiso   1.00
C906   C     0.79396   0.72962   0.94425   0.00000  Uiso   1.00
C907   C     0.85334   0.78644   0.60434   0.00000  Uiso   1.00
C908   C     0.79471   0.72731   0.89352   0.00000  Uiso   1.00
C909   C     0.81877   0.71244   0.60440   0.00000  Uiso   1.00
C910   C     0.87420   0.76903   0.89853   0.00000  Uiso   1.00
C911   C     0.82351   0.71022   0.55483   0.00000  Uiso   1.00
C912   C     0.87775   0.76621   0.94923   0.00000  Uiso   1.00
C913   C     0.83765   0.74825   0.52772   0.00000  Uiso   1.00
C914   C     0.83671   0.74769   0.97316   0.00000  Uiso   1.00
C915   C     0.73478   0.75026   0.73788   0.00000  Uiso   1.00
C916   C     0.93180   0.75276   0.76176   0.00000  Uiso   1.00
C917   C     0.67960   0.74914   0.73103   0.00000  Uiso   1.00
C918   C     0.98676   0.75873   0.76702   0.00000  Uiso   1.00
C919   C     0.79438   0.54610   0.76965   0.00000  Uiso   1.00
C920   C     0.87632   0.95252   0.76861   0.00000  Uiso   1.00
C921   C     0.79596   0.59227   0.77044   0.00000  Uiso   1.00
C922   C     0.87554   0.90646   0.76777   0.00000  Uiso   1.00
C923   C     0.83641   0.61690   0.75209   0.00000  Uiso   1.00
C924   C     0.83124   0.88290   0.74811   0.00000  Uiso   1.00
C925   C     0.87664   0.59501   0.73366   0.00000  Uiso   1.00
C926   C     0.78673   0.90557   0.72929   0.00000  Uiso   1.00
C927   C     0.87462   0.54855   0.73344   0.00000  Uiso   1.00
C928   C     0.78784   0.95202   0.73098   0.00000  Uiso   1.00
C929   C     0.83366   0.52411   0.75110   0.00000  Uiso   1.00
C930   C     0.83247   0.97548   0.75039   0.00000  Uiso   1.00
Cu931  Cu    0.83333   0.75000   0.79822   0.00000  Uiso   1.00
Cu932  Cu    0.83333   0.75001   0.70179   0.00000  Uiso   1.00
H933   H     0.99371   0.73881   0.69645   0.00000  Uiso   1.00
H934   H     0.67264   0.77098   0.80061   0.00000  Uiso   1.00
H935   H     0.76273   0.52750   0.78378   0.00000  Uiso   1.00
H936   H     0.91095   0.97026   0.78401   0.00000  Uiso   1.00
H937   H     0.76504   0.60889   0.78449   0.00000  Uiso   1.00
H938   H     0.90964   0.88908   0.78234   0.00000  Uiso   1.00
H939   H     0.90506   0.53124   0.71943   0.00000  Uiso   1.00
H940   H     0.75402   0.96997   0.71686   0.00000  Uiso   1.00
H941   H     0.80503   0.68307   0.62294   0.00000  Uiso   1.00
H942   H     0.90552   0.78524   0.88166   0.00000  Uiso   1.00
H943   H     0.81468   0.67879   0.53746   0.00000  Uiso   1.00
H944   H     0.91242   0.77939   0.96968   0.00000  Uiso   1.00
N945   N     0.83333   0.75001   0.62935   0.00000  Uiso   1.00
N946   N     0.83333   0.74999   0.87066   0.00000  Uiso   1.00
O947   O     0.83334   0.68573   0.79071   0.00000  Uiso   1.00
O948   O     0.83333   0.81428   0.70929   0.00000  Uiso   1.00
O949   O     0.83334   0.68573   0.70928   0.00000  Uiso   1.00
O950   O     0.83333   0.81427   0.79072   0.00000  Uiso   1.00
O951   O     0.75828   0.75000   0.78132   0.00000  Uiso   1.00
O952   O     0.90839   0.75001   0.71868   0.00000  Uiso   1.00
O953   O     0.75828   0.75000   0.69989   0.00000  Uiso   1.00
O954   O     0.90839   0.75000   0.80011   0.00000  Uiso   1.00
C955   C     0.92315   0.61972   0.71637   0.00000  Uiso   1.00
C956   C     0.96097   0.63488   0.75879   0.00000  Uiso   1.00
H957   H     0.94223   0.65754   0.78135   0.00000  Uiso   1.00
H958   H     0.97470   0.60571   0.78121   0.00000  Uiso   1.00
H959   H     0.99484   0.65269   0.74540   0.00000  Uiso   1.00
H960   H     0.94378   0.59789   0.69428   0.00000  Uiso   1.00
H961   H     0.91147   0.64862   0.69272   0.00000  Uiso   1.00
C962   C     0.73732   0.88147   0.70912   0.00000  Uiso   1.00
C963   C     0.70238   0.87092   0.74846   0.00000  Uiso   1.00
H964   H     0.99940   0.85394   0.73271   0.00000  Uiso   1.00
H965   H     0.72186   0.84874   0.77670   0.00000  Uiso   1.00
H966   H     0.69251   0.90203   0.76503   0.00000  Uiso   1.00
H967   H     0.71629   0.90239   0.68053   0.00000  Uiso   1.00
H968   H     0.74535   0.85024   0.69188   0.00000  Uiso   1.00
Cl969  Cl    0.86346   0.83751   0.52117   0.00000  Uiso   1.00
Cl970  Cl    0.73873   0.71069   0.97181   0.00000  Uiso   1.00
C971   C     0.88628   0.82344   0.62955   0.00000  Uiso   1.00
C972   C     0.85828   0.86725   0.63028   0.00000  Uiso   1.00
H973   H     0.86169   0.88769   0.59715   0.00000  Uiso   1.00
H974   H     0.81666   0.86118   0.63404   0.00000  Uiso   1.00
H975   H     0.87642   0.88731   0.66067   0.00000  Uiso   1.00
H976   H     0.90257   0.81305   0.66589   0.00000  Uiso   1.00
H977   H     0.92154   0.82996   0.61116   0.00000  Uiso   1.00
C978   C     0.75726   0.69321   0.86796   0.00000  Uiso   1.00
C979   C     0.70015   0.70375   0.86608   0.00000  Uiso   1.00
H980   H     0.69522   0.73931   0.87302   0.00000  Uiso   1.00
H981   H     0.67985   0.69496   0.83062   0.00000  Uiso   1.00
H982   H     0.68098   0.68287   0.89272   0.00000  Uiso   1.00
H983   H     0.76503   0.68750   0.83143   0.00000  Uiso   1.00
H984   H     0.76324   0.66038   0.88665   0.00000  Uiso   1.00
loop_
_geom_bond_atom_site_label_1
_geom_bond_atom_site_label_2
_geom_bond_distance
_geom_bond_site_symmetry_2
_ccdc_geom_bond_type
C1     C21     1.455   .     S
C1     O47     1.296   .     A
C1     O45     1.301   .     A
C2     O46     1.300   .     A
C2     C22     1.450   .     S
C2     O48     1.295   .     A
C3     C5      1.425   .     A
C3     Cl67    1.774   .     S
C3     C11     1.403   .     A
C4     C12     1.403   .     A
C4     C6      1.427   .     A
C4     Cl68    1.776   .     S
C5     C69     1.521   .     S
C5     N43     1.397   .     A
C6     N44     1.397   .     A
C6     C76     1.525   .     S
C7     N43     1.366   .     A
C7     C9      1.412   .     A
C7     H39     1.080   .     S
C8     N44     1.366   .     A
C8     C10     1.412   .     A
C8     H40     1.081   .     S
C9     C11     1.413   .     A
C9     H41     1.082   .     S
C10    H42     1.082   .     S
C10    C12     1.413   .     A
C11    C504    1.526   1_554 S
C12    C503    1.526   .     S
C13    O51     1.287   .     A
C13    O49     1.299   .     A
C13    C15     1.430   .     S
C14    O52     1.293   .     A
C14    C16     1.430   .     S
C14    O50     1.293   .     A
C15    C180    1.325   1_455 S
C15    H195    1.088   1_455 S
C16    C97     1.325   .     S
C16    H114    1.083   .     S
C17    H33     1.083   .     S
C17    C27     1.400   .     A
C17    C19     1.390   .     A
C18    C20     1.387   .     A
C18    C28     1.400   .     A
C18    H34     1.083   .     S
C19    C21     1.400   .     A
C19    H35     1.084   .     S
C20    C22     1.398   .     A
C20    H36     1.084   .     S
C21    C23     1.417   .     A
C22    C24     1.414   .     A
C23    C53     1.515   .     S
C23    C25     1.398   .     A
C24    C26     1.400   .     A
C24    C60     1.514   .     S
C25    H37     1.084   .     S
C25    C27     1.400   .     A
C26    H38     1.084   .     S
C26    C28     1.401   .     A
C27    C274    1.464   1_545 S
C28    C273    1.464   .     S
Cu29   O49     1.962   .     S
Cu29   O48     1.940   .     S
Cu29   O45     1.954   .     S
Cu29   Cu30    2.701   .     S
Cu29   N44     2.029   .     S
Cu29   O52     1.953   .     S
Cu30   O51     1.953   .     S
Cu30   O47     1.940   .     S
Cu30   N43     2.029   .     S
Cu30   O46     1.954   .     S
Cu30   O50     1.962   .     S
H31    C97     1.088   .     S
H32    C180    1.083   1_455 S
C53    H59     1.108   .     S
C53    C54     1.525   .     S
C53    H58     1.112   .     S
C54    H56     1.111   .     S
C54    H55     1.109   .     S
C54    H57     1.110   .     S
C60    H66     1.109   .     S
C60    C61     1.525   .     S
C60    H65     1.112   .     S
C61    H63     1.111   .     S
C61    H64     1.111   .     S
C61    H226    1.111   1_455 S
H62    C143    1.111   .     S
C69    C70     1.537   .     S
C69    H74     1.099   .     S
C69    H75     1.112   .     S
C70    H71     1.107   .     S
C70    H73     1.110   .     S
C70    H72     1.110   .     S
C76    C77     1.532   .     S
C76    H82     1.112   .     S
C76    H81     1.086   .     S
C77    H78     1.110   .     S
C77    H79     1.106   .     S
C77    H80     1.109   .     S
C83    C103    1.455   .     S
C83    O129    1.296   .     A
C83    O127    1.301   .     A
C84    O128    1.300   .     A
C84    C104    1.450   .     S
C84    O130    1.295   .     A
C85    C87     1.425   .     A
C85    Cl149   1.774   .     S
C85    C93     1.403   .     A
C86    C94     1.403   .     A
C86    C88     1.427   .     A
C86    Cl150   1.776   .     S
C87    C151    1.521   .     S
C87    N125    1.397   .     A
C88    N126    1.397   .     A
C88    C158    1.525   .     S
C89    N125    1.366   .     A
C89    C91     1.412   .     A
C89    H121    1.080   .     S
C90    N126    1.366   .     A
C90    C92     1.412   .     A
C90    H122    1.081   .     S
C91    C93     1.413   .     A
C91    H123    1.082   .     S
C92    H124    1.082   .     S
C92    C94     1.413   .     A
C93    C586    1.526   1_554 S
C94    C585    1.526   .     S
C95    O133    1.287   .     A
C95    O131    1.299   .     A
C95    C97     1.430   .     S
C96    O134    1.293   .     A
C96    C98     1.430   .     S
C96    O132    1.293   .     A
C98    C179    1.325   .     S
C98    H196    1.083   .     S
C99    H115    1.083   .     S
C99    C109    1.400   .     A
C99    C101    1.390   .     A
C100   C102    1.387   .     A
C100   C110    1.400   .     A
C100   H116    1.083   .     S
C101   C103    1.400   .     A
C101   H117    1.084   .     S
C102   C104    1.398   .     A
C102   H118    1.084   .     S
C103   C105    1.417   .     A
C104   C106    1.414   .     A
C105   C135    1.515   .     S
C105   C107    1.398   .     A
C106   C108    1.400   .     A
C106   C142    1.514   .     S
C107   H119    1.084   .     S
C107   C109    1.400   .     A
C108   H120    1.084   .     S
C108   C110    1.401   .     A
C109   C356    1.464   1_545 S
C110   C355    1.464   .     S
Cu111  O131    1.962   .     S
Cu111  O130    1.940   .     S
Cu111  O127    1.954   .     S
Cu111  Cu112   2.701   .     S
Cu111  N126    2.029   .     S
Cu111  O134    1.953   .     S
Cu112  O133    1.953   .     S
Cu112  O129    1.940   .     S
Cu112  N125    2.029   .     S
Cu112  O128    1.954   .     S
Cu112  O132    1.962   .     S
H113   C179    1.088   .     S
C135   H141    1.108   .     S
C135   C136    1.525   .     S
C135   H140    1.112   .     S
C136   H138    1.111   .     S
C136   H137    1.109   .     S
C136   H139    1.110   .     S
C142   H148    1.109   .     S
C142   C143    1.525   .     S
C142   H147    1.112   .     S
C143   H145    1.111   .     S
C143   H146    1.111   .     S
H144   C225    1.111   .     S
C151   C152    1.537   .     S
C151   H156    1.099   .     S
C151   H157    1.112   .     S
C152   H153    1.107   .     S
C152   H155    1.110   .     S
C152   H154    1.110   .     S
C158   C159    1.532   .     S
C158   H164    1.112   .     S
C158   H163    1.086   .     S
C159   H160    1.110   .     S
C159   H161    1.106   .     S
C159   H162    1.109   .     S
C165   C185    1.455   .     S
C165   O211    1.296   .     A
C165   O209    1.301   .     A
C166   O210    1.300   .     A
C166   C186    1.450   .     S
C166   O212    1.295   .     A
C167   C169    1.425   .     A
C167   Cl231   1.774   .     S
C167   C175    1.403   .     A
C168   C176    1.403   .     A
C168   C170    1.427   .     A
C168   Cl232   1.776   .     S
C169   C233    1.521   .     S
C169   N207    1.397   .     A
C170   N208    1.397   .     A
C170   C240    1.525   .     S
C171   N207    1.366   .     A
C171   C173    1.412   .     A
C171   H203    1.080   .     S
C172   N208    1.366   .     A
C172   C174    1.412   .     A
C172   H204    1.081   .     S
C173   C175    1.413   .     A
C173   H205    1.082   .     S
C174   H206    1.082   .     S
C174   C176    1.413   .     A
C175   C668    1.526   1_554 S
C176   C667    1.526   .     S
C177   O215    1.287   .     A
C177   O213    1.299   .     A
C177   C179    1.430   .     S
C178   O216    1.293   .     A
C178   C180    1.430   .     S
C178   O214    1.293   .     A
C180   C15     1.325   1_655 S
C180   H32     1.083   1_655 S
C181   H197    1.083   .     S
C181   C191    1.400   .     A
C181   C183    1.390   .     A
C182   C184    1.387   .     A
C182   C192    1.400   .     A
C182   H198    1.083   .     S
C183   C185    1.400   .     A
C183   H199    1.084   .     S
C184   C186    1.398   .     A
C184   H200    1.084   .     S
C185   C187    1.417   .     A
C186   C188    1.414   .     A
C187   C217    1.515   .     S
C187   C189    1.398   .     A
C188   C190    1.400   .     A
C188   C224    1.514   .     S
C189   H201    1.084   .     S
C189   C191    1.400   .     A
C190   H202    1.084   .     S
C190   C192    1.401   .     A
C191   C438    1.464   1_545 S
C192   C437    1.464   .     S
Cu193  O213    1.962   .     S
Cu193  O212    1.940   .     S
Cu193  O209    1.954   .     S
Cu193  Cu194   2.701   .     S
Cu193  N208    2.029   .     S
Cu193  O216    1.953   .     S
Cu194  O215    1.953   .     S
Cu194  O211    1.940   .     S
Cu194  N207    2.029   .     S
Cu194  O210    1.954   .     S
Cu194  O214    1.962   .     S
H195   C15     1.088   1_655 S
C217   H223    1.108   .     S
C217   C218    1.525   .     S
C217   H222    1.112   .     S
C218   H220    1.111   .     S
C218   H219    1.109   .     S
C218   H221    1.110   .     S
C224   H230    1.109   .     S
C224   C225    1.525   .     S
C224   H229    1.112   .     S
C225   H227    1.111   .     S
C225   H228    1.111   .     S
H226   C61     1.111   1_655 S
C233   C234    1.537   .     S
C233   H238    1.099   .     S
C233   H239    1.112   .     S
C234   H235    1.107   .     S
C234   H237    1.110   .     S
C234   H236    1.110   .     S
C240   C241    1.532   .     S
C240   H246    1.112   .     S
C240   H245    1.086   .     S
C241   H242    1.110   .     S
C241   H243    1.106   .     S
C241   H244    1.109   .     S
C247   C267    1.455   .     S
C247   O293    1.296   .     A
C247   O291    1.301   .     A
C248   O292    1.300   .     A
C248   C268    1.450   .     S
C248   O294    1.295   .     A
C249   C251    1.425   .     A
C249   Cl313   1.774   .     S
C249   C257    1.403   .     A
C250   C258    1.403   .     A
C250   C252    1.427   .     A
C250   Cl314   1.776   .     S
C251   C315    1.521   .     S
C251   N289    1.397   .     A
C252   N290    1.397   .     A
C252   C322    1.525   .     S
C253   N289    1.366   .     A
C253   C255    1.412   .     A
C253   H285    1.080   .     S
C254   N290    1.366   .     A
C254   C256    1.412   .     A
C254   H286    1.081   .     S
C255   C257    1.413   .     A
C255   H287    1.082   .     S
C256   H288    1.082   .     S
C256   C258    1.413   .     A
C257   C750    1.526   1_554 S
C258   C749    1.526   .     S
C259   O297    1.287   .     A
C259   O295    1.299   .     A
C259   C261    1.430   .     S
C260   O298    1.293   .     A
C260   C262    1.430   .     S
C260   O296    1.293   .     A
C261   C426    1.325   1_455 S
C261   H441    1.088   1_455 S
C262   C343    1.325   .     S
C262   H360    1.083   .     S
C263   H279    1.083   .     S
C263   C273    1.400   .     A
C263   C265    1.390   .     A
C264   C266    1.387   .     A
C264   C274    1.400   .     A
C264   H280    1.083   .     S
C265   C267    1.400   .     A
C265   H281    1.084   .     S
C266   C268    1.398   .     A
C266   H282    1.084   .     S
C267   C269    1.417   .     A
C268   C270    1.414   .     A
C269   C299    1.515   .     S
C269   C271    1.398   .     A
C270   C272    1.400   .     A
C270   C306    1.514   .     S
C271   H283    1.084   .     S
C271   C273    1.400   .     A
C272   H284    1.084   .     S
C272   C274    1.401   .     A
C274   C27     1.464   1_565 S
Cu275  O295    1.962   .     S
Cu275  O294    1.940   .     S
Cu275  O291    1.954   .     S
Cu275  Cu276   2.701   .     S
Cu275  N290    2.029   .     S
Cu275  O298    1.953   .     S
Cu276  O297    1.953   .     S
Cu276  O293    1.940   .     S
Cu276  N289    2.029   .     S
Cu276  O292    1.954   .     S
Cu276  O296    1.962   .     S
H277   C343    1.088   .     S
H278   C426    1.083   1_455 S
C299   H305    1.108   .     S
C299   C300    1.525   .     S
C299   H304    1.112   .     S
C300   H302    1.111   .     S
C300   H301    1.109   .     S
C300   H303    1.110   .     S
C306   H312    1.109   .     S
C306   C307    1.525   .     S
C306   H311    1.112   .     S
C307   H309    1.111   .     S
C307   H310    1.111   .     S
C307   H472    1.111   1_455 S
H308   C389    1.111   .     S
C315   C316    1.537   .     S
C315   H320    1.099   .     S
C315   H321    1.112   .     S
C316   H317    1.107   .     S
C316   H319    1.110   .     S
C316   H318    1.110   .     S
C322   C323    1.532   .     S
C322   H328    1.112   .     S
C322   H327    1.086   .     S
C323   H324    1.110   .     S
C323   H325    1.106   .     S
C323   H326    1.109   .     S
C329   C349    1.455   .     S
C329   O375    1.296   .     A
C329   O373    1.301   .     A
C330   O374    1.300   .     A
C330   C350    1.450   .     S
C330   O376    1.295   .     A
C331   C333    1.425   .     A
C331   Cl395   1.774   .     S
C331   C339    1.403   .     A
C332   C340    1.403   .     A
C332   C334    1.427   .     A
C332   Cl396   1.776   .     S
C333   C397    1.521   .     S
C333   N371    1.397   .     A
C334   N372    1.397   .     A
C334   C404    1.525   .     S
C335   N371    1.366   .     A
C335   C337    1.412   .     A
C335   H367    1.080   .     S
C336   N372    1.366   .     A
C336   C338    1.412   .     A
C336   H368    1.081   .     S
C337   C339    1.413   .     A
C337   H369    1.082   .     S
C338   H370    1.082   .     S
C338   C340    1.413   .     A
C339   C832    1.526   1_554 S
C340   C831    1.526   .     S
C341   O379    1.287   .     A
C341   O377    1.299   .     A
C341   C343    1.430   .     S
C342   O380    1.293   .     A
C342   C344    1.430   .     S
C342   O378    1.293   .     A
C344   C425    1.325   .     S
C344   H442    1.083   .     S
C345   H361    1.083   .     S
C345   C355    1.400   .     A
C345   C347    1.390   .     A
C346   C348    1.387   .     A
C346   C356    1.400   .     A
C346   H362    1.083   .     S
C347   C349    1.400   .     A
C347   H363    1.084   .     S
C348   C350    1.398   .     A
C348   H364    1.084   .     S
C349   C351    1.417   .     A
C350   C352    1.414   .     A
C351   C381    1.515   .     S
C351   C353    1.398   .     A
C352   C354    1.400   .     A
C352   C388    1.514   .     S
C353   H365    1.084   .     S
C353   C355    1.400   .     A
C354   H366    1.084   .     S
C354   C356    1.401   .     A
C356   C109    1.464   1_565 S
Cu357  O377    1.962   .     S
Cu357  O376    1.940   .     S
Cu357  O373    1.954   .     S
Cu357  Cu358   2.701   .     S
Cu357  N372    2.029   .     S
Cu357  O380    1.953   .     S
Cu358  O379    1.953   .     S
Cu358  O375    1.940   .     S
Cu358  N371    2.029   .     S
Cu358  O374    1.954   .     S
Cu358  O378    1.962   .     S
H359   C425    1.088   .     S
C381   H387    1.108   .     S
C381   C382    1.525   .     S
C381   H386    1.112   .     S
C382   H384    1.111   .     S
C382   H383    1.109   .     S
C382   H385    1.110   .     S
C388   H394    1.109   .     S
C388   C389    1.525   .     S
C388   H393    1.112   .     S
C389   H391    1.111   .     S
C389   H392    1.111   .     S
H390   C471    1.111   .     S
C397   C398    1.537   .     S
C397   H402    1.099   .     S
C397   H403    1.112   .     S
C398   H399    1.107   .     S
C398   H401    1.110   .     S
C398   H400    1.110   .     S
C404   C405    1.532   .     S
C404   H410    1.112   .     S
C404   H409    1.086   .     S
C405   H406    1.110   .     S
C405   H407    1.106   .     S
C405   H408    1.109   .     S
C411   C431    1.455   .     S
C411   O457    1.296   .     A
C411   O455    1.301   .     A
C412   O456    1.300   .     A
C412   C432    1.450   .     S
C412   O458    1.295   .     A
C413   C415    1.425   .     A
C413   Cl477   1.774   .     S
C413   C421    1.403   .     A
C414   C422    1.403   .     A
C414   C416    1.427   .     A
C414   Cl478   1.776   .     S
C415   C479    1.521   .     S
C415   N453    1.397   .     A
C416   N454    1.397   .     A
C416   C486    1.525   .     S
C417   N453    1.366   .     A
C417   C419    1.412   .     A
C417   H449    1.080   .     S
C418   N454    1.366   .     A
C418   C420    1.412   .     A
C418   H450    1.081   .     S
C419   C421    1.413   .     A
C419   H451    1.082   .     S
C420   H452    1.082   .     S
C420   C422    1.413   .     A
C421   C914    1.526   1_554 S
C422   C913    1.526   .     S
C423   O461    1.287   .     A
C423   O459    1.299   .     A
C423   C425    1.430   .     S
C424   O462    1.293   .     A
C424   C426    1.430   .     S
C424   O460    1.293   .     A
C426   C261    1.325   1_655 S
C426   H278    1.083   1_655 S
C427   H443    1.083   .     S
C427   C437    1.400   .     A
C427   C429    1.390   .     A
C428   C430    1.387   .     A
C428   C438    1.400   .     A
C428   H444    1.083   .     S
C429   C431    1.400   .     A
C429   H445    1.084   .     S
C430   C432    1.398   .     A
C430   H446    1.084   .     S
C431   C433    1.417   .     A
C432   C434    1.414   .     A
C433   C463    1.515   .     S
C433   C435    1.398   .     A
C434   C436    1.400   .     A
C434   C470    1.514   .     S
C435   H447    1.084   .     S
C435   C437    1.400   .     A
C436   H448    1.084   .     S
C436   C438    1.401   .     A
C438   C191    1.464   1_565 S
Cu439  O459    1.962   .     S
Cu439  O458    1.940   .     S
Cu439  O455    1.954   .     S
Cu439  Cu440   2.701   .     S
Cu439  N454    2.029   .     S
Cu439  O462    1.953   .     S
Cu440  O461    1.953   .     S
Cu440  O457    1.940   .     S
Cu440  N453    2.029   .     S
Cu440  O456    1.954   .     S
Cu440  O460    1.962   .     S
H441   C261    1.088   1_655 S
C463   H469    1.108   .     S
C463   C464    1.525   .     S
C463   H468    1.112   .     S
C464   H466    1.111   .     S
C464   H465    1.109   .     S
C464   H467    1.110   .     S
C470   H476    1.109   .     S
C470   C471    1.525   .     S
C470   H475    1.112   .     S
C471   H473    1.111   .     S
C471   H474    1.111   .     S
H472   C307    1.111   1_655 S
C479   C480    1.537   .     S
C479   H484    1.099   .     S
C479   H485    1.112   .     S
C480   H481    1.107   .     S
C480   H483    1.110   .     S
C480   H482    1.110   .     S
C486   C487    1.532   .     S
C486   H492    1.112   .     S
C486   H491    1.086   .     S
C487   H488    1.110   .     S
C487   H489    1.106   .     S
C487   H490    1.109   .     S
C493   C513    1.455   .     S
C493   O539    1.296   .     A
C493   O537    1.301   .     A
C494   O538    1.300   .     A
C494   C514    1.450   .     S
C494   O540    1.295   .     A
C495   C497    1.425   .     A
C495   Cl559   1.774   .     S
C495   C503    1.403   .     A
C496   C504    1.403   .     A
C496   C498    1.427   .     A
C496   Cl560   1.776   .     S
C497   C561    1.521   .     S
C497   N535    1.397   .     A
C498   N536    1.397   .     A
C498   C568    1.525   .     S
C499   N535    1.366   .     A
C499   C501    1.412   .     A
C499   H531    1.080   .     S
C500   N536    1.366   .     A
C500   C502    1.412   .     A
C500   H532    1.081   .     S
C501   C503    1.413   .     A
C501   H533    1.082   .     S
C502   H534    1.082   .     S
C502   C504    1.413   .     A
C504   C11     1.526   1_556 S
C505   O543    1.287   .     A
C505   O541    1.299   .     A
C505   C507    1.430   .     S
C506   O544    1.293   .     A
C506   C508    1.430   .     S
C506   O542    1.293   .     A
C507   C672    1.325   1_455 S
C507   H687    1.088   1_455 S
C508   C589    1.325   .     S
C508   H606    1.083   .     S
C509   H525    1.083   .     S
C509   C519    1.400   .     A
C509   C511    1.390   .     A
C510   C512    1.387   .     A
C510   C520    1.400   .     A
C510   H526    1.083   .     S
C511   C513    1.400   .     A
C511   H527    1.084   .     S
C512   C514    1.398   .     A
C512   H528    1.084   .     S
C513   C515    1.417   .     A
C514   C516    1.414   .     A
C515   C545    1.515   .     S
C515   C517    1.398   .     A
C516   C518    1.400   .     A
C516   C552    1.514   .     S
C517   H529    1.084   .     S
C517   C519    1.400   .     A
C518   H530    1.084   .     S
C518   C520    1.401   .     A
C519   C766    1.464   1_545 S
C520   C765    1.464   .     S
Cu521  O541    1.962   .     S
Cu521  O540    1.940   .     S
Cu521  O537    1.954   .     S
Cu521  Cu522   2.701   .     S
Cu521  N536    2.029   .     S
Cu521  O544    1.953   .     S
Cu522  O543    1.953   .     S
Cu522  O539    1.940   .     S
Cu522  N535    2.029   .     S
Cu522  O538    1.954   .     S
Cu522  O542    1.962   .     S
H523   C589    1.088   .     S
H524   C672    1.083   1_455 S
C545   H551    1.108   .     S
C545   C546    1.525   .     S
C545   H550    1.112   .     S
C546   H548    1.111   .     S
C546   H547    1.109   .     S
C546   H549    1.110   .     S
C552   H558    1.109   .     S
C552   C553    1.525   .     S
C552   H557    1.112   .     S
C553   H555    1.111   .     S
C553   H556    1.111   .     S
C553   H718    1.111   1_455 S
H554   C635    1.111   .     S
C561   C562    1.537   .     S
C561   H566    1.099   .     S
C561   H567    1.112   .     S
C562   H563    1.107   .     S
C562   H565    1.110   .     S
C562   H564    1.110   .     S
C568   C569    1.532   .     S
C568   H574    1.112   .     S
C568   H573    1.086   .     S
C569   H570    1.110   .     S
C569   H571    1.106   .     S
C569   H572    1.109   .     S
C575   C595    1.455   .     S
C575   O621    1.296   .     A
C575   O619    1.301   .     A
C576   O620    1.300   .     A
C576   C596    1.450   .     S
C576   O622    1.295   .     A
C577   C579    1.425   .     A
C577   Cl641   1.774   .     S
C577   C585    1.403   .     A
C578   C586    1.403   .     A
C578   C580    1.427   .     A
C578   Cl642   1.776   .     S
C579   C643    1.521   .     S
C579   N617    1.397   .     A
C580   N618    1.397   .     A
C580   C650    1.525   .     S
C581   N617    1.366   .     A
C581   C583    1.412   .     A
C581   H613    1.080   .     S
C582   N618    1.366   .     A
C582   C584    1.412   .     A
C582   H614    1.081   .     S
C583   C585    1.413   .     A
C583   H615    1.082   .     S
C584   H616    1.082   .     S
C584   C586    1.413   .     A
C586   C93     1.526   1_556 S
C587   O625    1.287   .     A
C587   O623    1.299   .     A
C587   C589    1.430   .     S
C588   O626    1.293   .     A
C588   C590    1.430   .     S
C588   O624    1.293   .     A
C590   C671    1.325   .     S
C590   H688    1.083   .     S
C591   H607    1.083   .     S
C591   C601    1.400   .     A
C591   C593    1.390   .     A
C592   C594    1.387   .     A
C592   C602    1.400   .     A
C592   H608    1.083   .     S
C593   C595    1.400   .     A
C593   H609    1.084   .     S
C594   C596    1.398   .     A
C594   H610    1.084   .     S
C595   C597    1.417   .     A
C596   C598    1.414   .     A
C597   C627    1.515   .     S
C597   C599    1.398   .     A
C598   C600    1.400   .     A
C598   C634    1.514   .     S
C599   H611    1.084   .     S
C599   C601    1.400   .     A
C600   H612    1.084   .     S
C600   C602    1.401   .     A
C601   C848    1.464   1_545 S
C602   C847    1.464   .     S
Cu603  O623    1.962   .     S
Cu603  O622    1.940   .     S
Cu603  O619    1.954   .     S
Cu603  Cu604   2.701   .     S
Cu603  N618    2.029   .     S
Cu603  O626    1.953   .     S
Cu604  O625    1.953   .     S
Cu604  O621    1.940   .     S
Cu604  N617    2.029   .     S
Cu604  O620    1.954   .     S
Cu604  O624    1.962   .     S
H605   C671    1.088   .     S
C627   H633    1.108   .     S
C627   C628    1.525   .     S
C627   H632    1.112   .     S
C628   H630    1.111   .     S
C628   H629    1.109   .     S
C628   H631    1.110   .     S
C634   H640    1.109   .     S
C634   C635    1.525   .     S
C634   H639    1.112   .     S
C635   H637    1.111   .     S
C635   H638    1.111   .     S
H636   C717    1.111   .     S
C643   C644    1.537   .     S
C643   H648    1.099   .     S
C643   H649    1.112   .     S
C644   H645    1.107   .     S
C644   H647    1.110   .     S
C644   H646    1.110   .     S
C650   C651    1.532   .     S
C650   H656    1.112   .     S
C650   H655    1.086   .     S
C651   H652    1.110   .     S
C651   H653    1.106   .     S
C651   H654    1.109   .     S
C657   C677    1.455   .     S
C657   O703    1.296   .     A
C657   O701    1.301   .     A
C658   O702    1.300   .     A
C658   C678    1.450   .     S
C658   O704    1.295   .     A
C659   C661    1.425   .     A
C659   Cl723   1.774   .     S
C659   C667    1.403   .     A
C660   C668    1.403   .     A
C660   C662    1.427   .     A
C660   Cl724   1.776   .     S
C661   C725    1.521   .     S
C661   N699    1.397   .     A
C662   N700    1.397   .     A
C662   C732    1.525   .     S
C663   N699    1.366   .     A
C663   C665    1.412   .     A
C663   H695    1.080   .     S
C664   N700    1.366   .     A
C664   C666    1.412   .     A
C664   H696    1.081   .     S
C665   C667    1.413   .     A
C665   H697    1.082   .     S
C666   H698    1.082   .     S
C666   C668    1.413   .     A
C668   C175    1.526   1_556 S
C669   O707    1.287   .     A
C669   O705    1.299   .     A
C669   C671    1.430   .     S
C670   O708    1.293   .     A
C670   C672    1.430   .     S
C670   O706    1.293   .     A
C672   C507    1.325   1_655 S
C672   H524    1.083   1_655 S
C673   H689    1.083   .     S
C673   C683    1.400   .     A
C673   C675    1.390   .     A
C674   C676    1.387   .     A
C674   C684    1.400   .     A
C674   H690    1.083   .     S
C675   C677    1.400   .     A
C675   H691    1.084   .     S
C676   C678    1.398   .     A
C676   H692    1.084   .     S
C677   C679    1.417   .     A
C678   C680    1.414   .     A
C679   C709    1.515   .     S
C679   C681    1.398   .     A
C680   C682    1.400   .     A
C680   C716    1.514   .     S
C681   H693    1.084   .     S
C681   C683    1.400   .     A
C682   H694    1.084   .     S
C682   C684    1.401   .     A
C683   C930    1.464   1_545 S
C684   C929    1.464   .     S
Cu685  O705    1.962   .     S
Cu685  O704    1.940   .     S
Cu685  O701    1.954   .     S
Cu685  Cu686   2.701   .     S
Cu685  N700    2.029   .     S
Cu685  O708    1.953   .     S
Cu686  O707    1.953   .     S
Cu686  O703    1.940   .     S
Cu686  N699    2.029   .     S
Cu686  O702    1.954   .     S
Cu686  O706    1.962   .     S
H687   C507    1.088   1_655 S
C709   H715    1.108   .     S
C709   C710    1.525   .     S
C709   H714    1.112   .     S
C710   H712    1.111   .     S
C710   H711    1.109   .     S
C710   H713    1.110   .     S
C716   H722    1.109   .     S
C716   C717    1.525   .     S
C716   H721    1.112   .     S
C717   H719    1.111   .     S
C717   H720    1.111   .     S
H718   C553    1.111   1_655 S
C725   C726    1.537   .     S
C725   H730    1.099   .     S
C725   H731    1.112   .     S
C726   H727    1.107   .     S
C726   H729    1.110   .     S
C726   H728    1.110   .     S
C732   C733    1.532   .     S
C732   H738    1.112   .     S
C732   H737    1.086   .     S
C733   H734    1.110   .     S
C733   H735    1.106   .     S
C733   H736    1.109   .     S
C739   C759    1.455   .     S
C739   O785    1.296   .     A
C739   O783    1.301   .     A
C740   O784    1.300   .     A
C740   C760    1.450   .     S
C740   O786    1.295   .     A
C741   C743    1.425   .     A
C741   Cl805   1.774   .     S
C741   C749    1.403   .     A
C742   C750    1.403   .     A
C742   C744    1.427   .     A
C742   Cl806   1.776   .     S
C743   C807    1.521   .     S
C743   N781    1.397   .     A
C744   N782    1.397   .     A
C744   C814    1.525   .     S
C745   N781    1.366   .     A
C745   C747    1.412   .     A
C745   H777    1.080   .     S
C746   N782    1.366   .     A
C746   C748    1.412   .     A
C746   H778    1.081   .     S
C747   C749    1.413   .     A
C747   H779    1.082   .     S
C748   H780    1.082   .     S
C748   C750    1.413   .     A
C750   C257    1.526   1_556 S
C751   O789    1.287   .     A
C751   O787    1.299   .     A
C751   C753    1.430   .     S
C752   O790    1.293   .     A
C752   C754    1.430   .     S
C752   O788    1.293   .     A
C753   C918    1.325   1_455 S
C753   H933    1.088   1_455 S
C754   C835    1.325   .     S
C754   H852    1.083   .     S
C755   H771    1.083   .     S
C755   C765    1.400   .     A
C755   C757    1.390   .     A
C756   C758    1.387   .     A
C756   C766    1.400   .     A
C756   H772    1.083   .     S
C757   C759    1.400   .     A
C757   H773    1.084   .     S
C758   C760    1.398   .     A
C758   H774    1.084   .     S
C759   C761    1.417   .     A
C760   C762    1.414   .     A
C761   C791    1.515   .     S
C761   C763    1.398   .     A
C762   C764    1.400   .     A
C762   C798    1.514   .     S
C763   H775    1.084   .     S
C763   C765    1.400   .     A
C764   H776    1.084   .     S
C764   C766    1.401   .     A
C766   C519    1.464   1_565 S
Cu767  O787    1.962   .     S
Cu767  O786    1.940   .     S
Cu767  O783    1.954   .     S
Cu767  Cu768   2.701   .     S
Cu767  N782    2.029   .     S
Cu767  O790    1.953   .     S
Cu768  O789    1.953   .     S
Cu768  O785    1.940   .     S
Cu768  N781    2.029   .     S
Cu768  O784    1.954   .     S
Cu768  O788    1.962   .     S
H769   C835    1.088   .     S
H770   C918    1.083   1_455 S
C791   H797    1.108   .     S
C791   C792    1.525   .     S
C791   H796    1.112   .     S
C792   H794    1.111   .     S
C792   H793    1.109   .     S
C792   H795    1.110   .     S
C798   H804    1.109   .     S
C798   C799    1.525   .     S
C798   H803    1.112   .     S
C799   H801    1.111   .     S
C799   H802    1.111   .     S
C799   H964    1.111   1_455 S
H800   C881    1.111   .     S
C807   C808    1.537   .     S
C807   H812    1.099   .     S
C807   H813    1.112   .     S
C808   H809    1.107   .     S
C808   H811    1.110   .     S
C808   H810    1.110   .     S
C814   C815    1.532   .     S
C814   H820    1.112   .     S
C814   H819    1.086   .     S
C815   H816    1.110   .     S
C815   H817    1.106   .     S
C815   H818    1.109   .     S
C821   C841    1.455   .     S
C821   O867    1.296   .     A
C821   O865    1.301   .     A
C822   O866    1.300   .     A
C822   C842    1.450   .     S
C822   O868    1.295   .     A
C823   C825    1.425   .     A
C823   Cl887   1.774   .     S
C823   C831    1.403   .     A
C824   C832    1.403   .     A
C824   C826    1.427   .     A
C824   Cl888   1.776   .     S
C825   C889    1.521   .     S
C825   N863    1.397   .     A
C826   N864    1.397   .     A
C826   C896    1.525   .     S
C827   N863    1.366   .     A
C827   C829    1.412   .     A
C827   H859    1.080   .     S
C828   N864    1.366   .     A
C828   C830    1.412   .     A
C828   H860    1.081   .     S
C829   C831    1.413   .     A
C829   H861    1.082   .     S
C830   H862    1.082   .     S
C830   C832    1.413   .     A
C832   C339    1.526   1_556 S
C833   O871    1.287   .     A
C833   O869    1.299   .     A
C833   C835    1.430   .     S
C834   O872    1.293   .     A
C834   C836    1.430   .     S
C834   O870    1.293   .     A
C836   C917    1.325   .     S
C836   H934    1.083   .     S
C837   H853    1.083   .     S
C837   C847    1.400   .     A
C837   C839    1.390   .     A
C838   C840    1.387   .     A
C838   C848    1.400   .     A
C838   H854    1.083   .     S
C839   C841    1.400   .     A
C839   H855    1.084   .     S
C840   C842    1.398   .     A
C840   H856    1.084   .     S
C841   C843    1.417   .     A
C842   C844    1.414   .     A
C843   C873    1.515   .     S
C843   C845    1.398   .     A
C844   C846    1.400   .     A
C844   C880    1.514   .     S
C845   H857    1.084   .     S
C845   C847    1.400   .     A
C846   H858    1.084   .     S
C846   C848    1.401   .     A
C848   C601    1.464   1_565 S
Cu849  O869    1.962   .     S
Cu849  O868    1.940   .     S
Cu849  O865    1.954   .     S
Cu849  Cu850   2.701   .     S
Cu849  N864    2.029   .     S
Cu849  O872    1.953   .     S
Cu850  O871    1.953   .     S
Cu850  O867    1.940   .     S
Cu850  N863    2.029   .     S
Cu850  O866    1.954   .     S
Cu850  O870    1.962   .     S
H851   C917    1.088   .     S
C873   H879    1.108   .     S
C873   C874    1.525   .     S
C873   H878    1.112   .     S
C874   H876    1.111   .     S
C874   H875    1.109   .     S
C874   H877    1.110   .     S
C880   H886    1.109   .     S
C880   C881    1.525   .     S
C880   H885    1.112   .     S
C881   H883    1.111   .     S
C881   H884    1.111   .     S
H882   C963    1.111   .     S
C889   C890    1.537   .     S
C889   H894    1.099   .     S
C889   H895    1.112   .     S
C890   H891    1.107   .     S
C890   H893    1.110   .     S
C890   H892    1.110   .     S
C896   C897    1.532   .     S
C896   H902    1.112   .     S
C896   H901    1.086   .     S
C897   H898    1.110   .     S
C897   H899    1.106   .     S
C897   H900    1.109   .     S
C903   C923    1.455   .     S
C903   O949    1.296   .     A
C903   O947    1.301   .     A
C904   O948    1.300   .     A
C904   C924    1.450   .     S
C904   O950    1.295   .     A
C905   C907    1.425   .     A
C905   Cl969   1.774   .     S
C905   C913    1.403   .     A
C906   C914    1.403   .     A
C906   C908    1.427   .     A
C906   Cl970   1.776   .     S
C907   C971    1.521   .     S
C907   N945    1.397   .     A
C908   N946    1.397   .     A
C908   C978    1.525   .     S
C909   N945    1.366   .     A
C909   C911    1.412   .     A
C909   H941    1.080   .     S
C910   N946    1.366   .     A
C910   C912    1.412   .     A
C910   H942    1.081   .     S
C911   C913    1.413   .     A
C911   H943    1.082   .     S
C912   H944    1.082   .     S
C912   C914    1.413   .     A
C914   C421    1.526   1_556 S
C915   O953    1.287   .     A
C915   O951    1.299   .     A
C915   C917    1.430   .     S
C916   O954    1.293   .     A
C916   C918    1.430   .     S
C916   O952    1.293   .     A
C918   C753    1.325   1_655 S
C918   H770    1.083   1_655 S
C919   H935    1.083   .     S
C919   C929    1.400   .     A
C919   C921    1.390   .     A
C920   C922    1.387   .     A
C920   C930    1.400   .     A
C920   H936    1.083   .     S
C921   C923    1.400   .     A
C921   H937    1.084   .     S
C922   C924    1.398   .     A
C922   H938    1.084   .     S
C923   C925    1.417   .     A
C924   C926    1.414   .     A
C925   C955    1.515   .     S
C925   C927    1.398   .     A
C926   C928    1.400   .     A
C926   C962    1.514   .     S
C927   H939    1.084   .     S
C927   C929    1.400   .     A
C928   H940    1.084   .     S
C928   C930    1.401   .     A
C930   C683    1.464   1_565 S
Cu931  O951    1.962   .     S
Cu931  O950    1.940   .     S
Cu931  O947    1.954   .     S
Cu931  Cu932   2.701   .     S
Cu931  N946    2.029   .     S
Cu931  O954    1.953   .     S
Cu932  O953    1.953   .     S
Cu932  O949    1.940   .     S
Cu932  N945    2.029   .     S
Cu932  O948    1.954   .     S
Cu932  O952    1.962   .     S
H933   C753    1.088   1_655 S
C955   H961    1.108   .     S
C955   C956    1.525   .     S
C955   H960    1.112   .     S
C956   H958    1.111   .     S
C956   H957    1.109   .     S
C956   H959    1.110   .     S
C962   H968    1.109   .     S
C962   C963    1.525   .     S
C962   H967    1.112   .     S
C963   H965    1.111   .     S
C963   H966    1.111   .     S
H964   C799    1.111   1_655 S
C971   C972    1.537   .     S
C971   H976    1.099   .     S
C971   H977    1.112   .     S
C972   H973    1.107   .     S
C972   H975    1.110   .     S
C972   H974    1.110   .     S
C978   C979    1.532   .     S
C978   H984    1.112   .     S
C978   H983    1.086   .     S
C979   H980    1.110   .     S
C979   H981    1.106   .     S
C979   H982    1.109   .     S
