data_str_m2_o1_o10_pcu_sym.130
_audit_creation_date              2020-01-03
_audit_creation_method            'Materials Studio'
_symmetry_space_group_name_H-M    'P1'
_symmetry_Int_Tables_number       1
_symmetry_cell_setting            triclinic
loop_
_symmetry_equiv_pos_as_xyz
  x,y,z
_cell_length_a                    26.1702
_cell_length_b                    32.7047
_cell_length_c                    28.7417
_cell_angle_alpha                 90.4001
_cell_angle_beta                  97.7922
_cell_angle_gamma                 92.3323
loop_
_atom_site_label
_atom_site_type_symbol
_atom_site_fract_x
_atom_site_fract_y
_atom_site_fract_z
_atom_site_U_iso_or_equiv
_atom_site_adp_type
_atom_site_occupancy
C1     C     0.17065   0.08757   0.16692   0.00000  Uiso   1.00
C2     C     0.16268   0.24576   0.16641   0.00000  Uiso   1.00
C3     C     0.06799   0.16649   0.15464   0.00000  Uiso   1.00
C4     C     0.26534   0.16684   0.17869   0.00000  Uiso   1.00
C5     C     0.01268   0.16605   0.14805   0.00000  Uiso   1.00
C6     C     0.32065   0.16728   0.18528   0.00000  Uiso   1.00
C7     C     0.16829   0.02043   0.12399   0.00000  Uiso   1.00
C8     C     0.16504   0.31290   0.20934   0.00000  Uiso   1.00
C9     C     0.15649   0.31185   0.12364   0.00000  Uiso   1.00
C10    C     0.17684   0.02148   0.20969   0.00000  Uiso   1.00
C11    C     0.15935   0.29058   0.16645   0.00000  Uiso   1.00
C12    C     0.17398   0.04275   0.16688   0.00000  Uiso   1.00
C13    C     0.13238   0.14197   0.02054   0.00000  Uiso   1.00
C14    C     0.20096   0.19136   0.31279   0.00000  Uiso   1.00
C15    C     0.13250   0.14166   0.30442   0.00000  Uiso   1.00
C16    C     0.20084   0.19167   0.02891   0.00000  Uiso   1.00
Cu17   Cu    0.16667   0.16667   0.21355   0.00000  Uiso   1.00
Cu18   Cu    0.16667   0.16666   0.11978   0.00000  Uiso   1.00
H19    H     0.32610   0.16455   0.11231   0.00000  Uiso   1.00
H20    H     0.00723   0.16878   0.22102   0.00000  Uiso   1.00
N21    N     0.16668   0.16668   0.28403   0.00000  Uiso   1.00
N22    N     0.16665   0.16666   0.04931   0.00000  Uiso   1.00
O23    O     0.16666   0.10655   0.20625   0.00000  Uiso   1.00
O24    O     0.16667   0.22678   0.12709   0.00000  Uiso   1.00
O25    O     0.16666   0.10654   0.12706   0.00000  Uiso   1.00
O26    O     0.16667   0.22679   0.20628   0.00000  Uiso   1.00
O27    O     0.09161   0.16667   0.19712   0.00000  Uiso   1.00
O28    O     0.24172   0.16666   0.13621   0.00000  Uiso   1.00
O29    O     0.09161   0.16666   0.11793   0.00000  Uiso   1.00
O30    O     0.24172   0.16667   0.21540   0.00000  Uiso   1.00
Br31   Br    0.18490   0.04377   0.06580   0.00000  Uiso   1.00
Br32   Br    0.14844   0.28956   0.26753   0.00000  Uiso   1.00
Br33   Br    0.12810   0.28649   0.06394   0.00000  Uiso   1.00
Br34   Br    0.20523   0.04684   0.26939   0.00000  Uiso   1.00
C35    C     0.09547   0.11589   0.04050   0.00000  Uiso   1.00
N36    N     0.06568   0.09481   0.05613   0.00000  Uiso   1.00
C37    C     0.23787   0.21744   0.29284   0.00000  Uiso   1.00
N38    N     0.26766   0.23852   0.27721   0.00000  Uiso   1.00
Br39   Br    0.08407   0.10434   0.26728   0.00000  Uiso   1.00
Br40   Br    0.24926   0.22899   0.06605   0.00000  Uiso   1.00
C41    C     0.50399   0.08757   0.16692   0.00000  Uiso   1.00
C42    C     0.49601   0.24576   0.16641   0.00000  Uiso   1.00
C43    C     0.40133   0.16649   0.15464   0.00000  Uiso   1.00
C44    C     0.59867   0.16684   0.17869   0.00000  Uiso   1.00
C45    C     0.34602   0.16605   0.14805   0.00000  Uiso   1.00
C46    C     0.65398   0.16728   0.18528   0.00000  Uiso   1.00
C47    C     0.50163   0.02043   0.12399   0.00000  Uiso   1.00
C48    C     0.49837   0.31290   0.20934   0.00000  Uiso   1.00
C49    C     0.48982   0.31185   0.12364   0.00000  Uiso   1.00
C50    C     0.51017   0.02148   0.20969   0.00000  Uiso   1.00
C51    C     0.49268   0.29058   0.16645   0.00000  Uiso   1.00
C52    C     0.50731   0.04275   0.16688   0.00000  Uiso   1.00
C53    C     0.46571   0.14197   0.02054   0.00000  Uiso   1.00
C54    C     0.53429   0.19136   0.31279   0.00000  Uiso   1.00
C55    C     0.46583   0.14166   0.30442   0.00000  Uiso   1.00
C56    C     0.53417   0.19167   0.02891   0.00000  Uiso   1.00
Cu57   Cu    0.50000   0.16667   0.21355   0.00000  Uiso   1.00
Cu58   Cu    0.50000   0.16666   0.11978   0.00000  Uiso   1.00
H59    H     0.65944   0.16455   0.11231   0.00000  Uiso   1.00
H60    H     0.34056   0.16878   0.22102   0.00000  Uiso   1.00
N61    N     0.50001   0.16668   0.28403   0.00000  Uiso   1.00
N62    N     0.49999   0.16666   0.04931   0.00000  Uiso   1.00
O63    O     0.50000   0.10655   0.20625   0.00000  Uiso   1.00
O64    O     0.50000   0.22678   0.12709   0.00000  Uiso   1.00
O65    O     0.50000   0.10654   0.12706   0.00000  Uiso   1.00
O66    O     0.50000   0.22679   0.20628   0.00000  Uiso   1.00
O67    O     0.42495   0.16667   0.19712   0.00000  Uiso   1.00
O68    O     0.57505   0.16666   0.13621   0.00000  Uiso   1.00
O69    O     0.42494   0.16666   0.11793   0.00000  Uiso   1.00
O70    O     0.57506   0.16667   0.21540   0.00000  Uiso   1.00
Br71   Br    0.51823   0.04377   0.06580   0.00000  Uiso   1.00
Br72   Br    0.48178   0.28956   0.26753   0.00000  Uiso   1.00
Br73   Br    0.46143   0.28649   0.06394   0.00000  Uiso   1.00
Br74   Br    0.53856   0.04684   0.26939   0.00000  Uiso   1.00
C75    C     0.42880   0.11589   0.04050   0.00000  Uiso   1.00
N76    N     0.39901   0.09481   0.05613   0.00000  Uiso   1.00
C77    C     0.57120   0.21744   0.29284   0.00000  Uiso   1.00
N78    N     0.60099   0.23852   0.27721   0.00000  Uiso   1.00
Br79   Br    0.41740   0.10434   0.26728   0.00000  Uiso   1.00
Br80   Br    0.58259   0.22899   0.06605   0.00000  Uiso   1.00
C81    C     0.83732   0.08757   0.16692   0.00000  Uiso   1.00
C82    C     0.82934   0.24576   0.16641   0.00000  Uiso   1.00
C83    C     0.73466   0.16649   0.15464   0.00000  Uiso   1.00
C84    C     0.93201   0.16684   0.17869   0.00000  Uiso   1.00
C85    C     0.67935   0.16605   0.14805   0.00000  Uiso   1.00
C86    C     0.98732   0.16728   0.18528   0.00000  Uiso   1.00
C87    C     0.83496   0.02043   0.12399   0.00000  Uiso   1.00
C88    C     0.83170   0.31290   0.20934   0.00000  Uiso   1.00
C89    C     0.82316   0.31185   0.12364   0.00000  Uiso   1.00
C90    C     0.84351   0.02148   0.20969   0.00000  Uiso   1.00
C91    C     0.82602   0.29058   0.16645   0.00000  Uiso   1.00
C92    C     0.84065   0.04275   0.16688   0.00000  Uiso   1.00
C93    C     0.79904   0.14197   0.02054   0.00000  Uiso   1.00
C94    C     0.86762   0.19136   0.31279   0.00000  Uiso   1.00
C95    C     0.79916   0.14166   0.30442   0.00000  Uiso   1.00
C96    C     0.86750   0.19167   0.02891   0.00000  Uiso   1.00
Cu97   Cu    0.83333   0.16667   0.21355   0.00000  Uiso   1.00
Cu98   Cu    0.83333   0.16666   0.11978   0.00000  Uiso   1.00
H99    H     0.99277   0.16455   0.11231   0.00000  Uiso   1.00
H100   H     0.67390   0.16878   0.22102   0.00000  Uiso   1.00
N101   N     0.83335   0.16668   0.28403   0.00000  Uiso   1.00
N102   N     0.83332   0.16666   0.04931   0.00000  Uiso   1.00
O103   O     0.83333   0.10655   0.20625   0.00000  Uiso   1.00
O104   O     0.83334   0.22678   0.12709   0.00000  Uiso   1.00
O105   O     0.83333   0.10654   0.12706   0.00000  Uiso   1.00
O106   O     0.83334   0.22679   0.20628   0.00000  Uiso   1.00
O107   O     0.75828   0.16667   0.19712   0.00000  Uiso   1.00
O108   O     0.90839   0.16666   0.13621   0.00000  Uiso   1.00
O109   O     0.75828   0.16666   0.11793   0.00000  Uiso   1.00
O110   O     0.90839   0.16667   0.21540   0.00000  Uiso   1.00
Br111  Br    0.85156   0.04377   0.06580   0.00000  Uiso   1.00
Br112  Br    0.81511   0.28956   0.26753   0.00000  Uiso   1.00
Br113  Br    0.79476   0.28649   0.06394   0.00000  Uiso   1.00
Br114  Br    0.87189   0.04684   0.26939   0.00000  Uiso   1.00
C115   C     0.76214   0.11589   0.04050   0.00000  Uiso   1.00
N116   N     0.73235   0.09481   0.05613   0.00000  Uiso   1.00
C117   C     0.90453   0.21744   0.29284   0.00000  Uiso   1.00
N118   N     0.93432   0.23852   0.27721   0.00000  Uiso   1.00
Br119  Br    0.75073   0.10434   0.26728   0.00000  Uiso   1.00
Br120  Br    0.91593   0.22899   0.06605   0.00000  Uiso   1.00
C121   C     0.17065   0.42090   0.16692   0.00000  Uiso   1.00
C122   C     0.16268   0.57910   0.16641   0.00000  Uiso   1.00
C123   C     0.06799   0.49983   0.15464   0.00000  Uiso   1.00
C124   C     0.26534   0.50017   0.17869   0.00000  Uiso   1.00
C125   C     0.01268   0.49939   0.14805   0.00000  Uiso   1.00
C126   C     0.32065   0.50061   0.18528   0.00000  Uiso   1.00
C127   C     0.16829   0.35376   0.12399   0.00000  Uiso   1.00
C128   C     0.16504   0.64624   0.20934   0.00000  Uiso   1.00
C129   C     0.15649   0.64519   0.12364   0.00000  Uiso   1.00
C130   C     0.17684   0.35481   0.20969   0.00000  Uiso   1.00
C131   C     0.15935   0.62391   0.16645   0.00000  Uiso   1.00
C132   C     0.17398   0.37609   0.16688   0.00000  Uiso   1.00
C133   C     0.13238   0.47531   0.02054   0.00000  Uiso   1.00
C134   C     0.20096   0.52469   0.31279   0.00000  Uiso   1.00
C135   C     0.13250   0.47499   0.30442   0.00000  Uiso   1.00
C136   C     0.20084   0.52501   0.02891   0.00000  Uiso   1.00
Cu137  Cu    0.16667   0.50001   0.21355   0.00000  Uiso   1.00
Cu138  Cu    0.16667   0.49999   0.11978   0.00000  Uiso   1.00
H139   H     0.32610   0.49788   0.11231   0.00000  Uiso   1.00
H140   H     0.00723   0.50212   0.22102   0.00000  Uiso   1.00
N141   N     0.16668   0.50001   0.28403   0.00000  Uiso   1.00
N142   N     0.16665   0.49999   0.04931   0.00000  Uiso   1.00
O143   O     0.16666   0.43989   0.20625   0.00000  Uiso   1.00
O144   O     0.16667   0.56011   0.12709   0.00000  Uiso   1.00
O145   O     0.16666   0.43988   0.12706   0.00000  Uiso   1.00
O146   O     0.16667   0.56012   0.20628   0.00000  Uiso   1.00
O147   O     0.09161   0.50000   0.19712   0.00000  Uiso   1.00
O148   O     0.24172   0.50000   0.13621   0.00000  Uiso   1.00
O149   O     0.09161   0.49999   0.11793   0.00000  Uiso   1.00
O150   O     0.24172   0.50001   0.21540   0.00000  Uiso   1.00
Br151  Br    0.18490   0.37710   0.06580   0.00000  Uiso   1.00
Br152  Br    0.14844   0.62289   0.26753   0.00000  Uiso   1.00
Br153  Br    0.12810   0.61982   0.06394   0.00000  Uiso   1.00
Br154  Br    0.20523   0.38018   0.26939   0.00000  Uiso   1.00
C155   C     0.09547   0.44923   0.04050   0.00000  Uiso   1.00
N156   N     0.06568   0.42814   0.05613   0.00000  Uiso   1.00
C157   C     0.23787   0.55077   0.29284   0.00000  Uiso   1.00
N158   N     0.26766   0.57186   0.27721   0.00000  Uiso   1.00
Br159  Br    0.08407   0.43768   0.26728   0.00000  Uiso   1.00
Br160  Br    0.24926   0.56233   0.06605   0.00000  Uiso   1.00
C161   C     0.50399   0.42090   0.16692   0.00000  Uiso   1.00
C162   C     0.49601   0.57910   0.16641   0.00000  Uiso   1.00
C163   C     0.40133   0.49983   0.15464   0.00000  Uiso   1.00
C164   C     0.59867   0.50017   0.17869   0.00000  Uiso   1.00
C165   C     0.34602   0.49939   0.14805   0.00000  Uiso   1.00
C166   C     0.65398   0.50061   0.18528   0.00000  Uiso   1.00
C167   C     0.50163   0.35376   0.12399   0.00000  Uiso   1.00
C168   C     0.49837   0.64624   0.20934   0.00000  Uiso   1.00
C169   C     0.48982   0.64519   0.12364   0.00000  Uiso   1.00
C170   C     0.51017   0.35481   0.20969   0.00000  Uiso   1.00
C171   C     0.49268   0.62391   0.16645   0.00000  Uiso   1.00
C172   C     0.50731   0.37609   0.16688   0.00000  Uiso   1.00
C173   C     0.46571   0.47531   0.02054   0.00000  Uiso   1.00
C174   C     0.53429   0.52469   0.31279   0.00000  Uiso   1.00
C175   C     0.46583   0.47499   0.30442   0.00000  Uiso   1.00
C176   C     0.53417   0.52501   0.02891   0.00000  Uiso   1.00
Cu177  Cu    0.50000   0.50001   0.21355   0.00000  Uiso   1.00
Cu178  Cu    0.50000   0.49999   0.11978   0.00000  Uiso   1.00
H179   H     0.65944   0.49788   0.11231   0.00000  Uiso   1.00
H180   H     0.34056   0.50212   0.22102   0.00000  Uiso   1.00
N181   N     0.50001   0.50001   0.28403   0.00000  Uiso   1.00
N182   N     0.49999   0.49999   0.04931   0.00000  Uiso   1.00
O183   O     0.50000   0.43989   0.20625   0.00000  Uiso   1.00
O184   O     0.50000   0.56011   0.12709   0.00000  Uiso   1.00
O185   O     0.50000   0.43988   0.12706   0.00000  Uiso   1.00
O186   O     0.50000   0.56012   0.20628   0.00000  Uiso   1.00
O187   O     0.42495   0.50000   0.19712   0.00000  Uiso   1.00
O188   O     0.57505   0.50000   0.13621   0.00000  Uiso   1.00
O189   O     0.42494   0.49999   0.11793   0.00000  Uiso   1.00
O190   O     0.57506   0.50001   0.21540   0.00000  Uiso   1.00
Br191  Br    0.51823   0.37710   0.06580   0.00000  Uiso   1.00
Br192  Br    0.48178   0.62289   0.26753   0.00000  Uiso   1.00
Br193  Br    0.46143   0.61982   0.06394   0.00000  Uiso   1.00
Br194  Br    0.53856   0.38018   0.26939   0.00000  Uiso   1.00
C195   C     0.42880   0.44923   0.04050   0.00000  Uiso   1.00
N196   N     0.39901   0.42814   0.05613   0.00000  Uiso   1.00
C197   C     0.57120   0.55077   0.29284   0.00000  Uiso   1.00
N198   N     0.60099   0.57186   0.27721   0.00000  Uiso   1.00
Br199  Br    0.41740   0.43768   0.26728   0.00000  Uiso   1.00
Br200  Br    0.58259   0.56233   0.06605   0.00000  Uiso   1.00
C201   C     0.83732   0.42090   0.16692   0.00000  Uiso   1.00
C202   C     0.82934   0.57910   0.16641   0.00000  Uiso   1.00
C203   C     0.73466   0.49983   0.15464   0.00000  Uiso   1.00
C204   C     0.93201   0.50017   0.17869   0.00000  Uiso   1.00
C205   C     0.67935   0.49939   0.14805   0.00000  Uiso   1.00
C206   C     0.98732   0.50061   0.18528   0.00000  Uiso   1.00
C207   C     0.83496   0.35376   0.12399   0.00000  Uiso   1.00
C208   C     0.83170   0.64624   0.20934   0.00000  Uiso   1.00
C209   C     0.82316   0.64519   0.12364   0.00000  Uiso   1.00
C210   C     0.84351   0.35481   0.20969   0.00000  Uiso   1.00
C211   C     0.82602   0.62391   0.16645   0.00000  Uiso   1.00
C212   C     0.84065   0.37609   0.16688   0.00000  Uiso   1.00
C213   C     0.79904   0.47531   0.02054   0.00000  Uiso   1.00
C214   C     0.86762   0.52469   0.31279   0.00000  Uiso   1.00
C215   C     0.79916   0.47499   0.30442   0.00000  Uiso   1.00
C216   C     0.86750   0.52501   0.02891   0.00000  Uiso   1.00
Cu217  Cu    0.83333   0.50001   0.21355   0.00000  Uiso   1.00
Cu218  Cu    0.83333   0.49999   0.11978   0.00000  Uiso   1.00
H219   H     0.99277   0.49788   0.11231   0.00000  Uiso   1.00
H220   H     0.67390   0.50212   0.22102   0.00000  Uiso   1.00
N221   N     0.83335   0.50001   0.28403   0.00000  Uiso   1.00
N222   N     0.83332   0.49999   0.04931   0.00000  Uiso   1.00
O223   O     0.83333   0.43989   0.20625   0.00000  Uiso   1.00
O224   O     0.83334   0.56011   0.12709   0.00000  Uiso   1.00
O225   O     0.83333   0.43988   0.12706   0.00000  Uiso   1.00
O226   O     0.83334   0.56012   0.20628   0.00000  Uiso   1.00
O227   O     0.75828   0.50000   0.19712   0.00000  Uiso   1.00
O228   O     0.90839   0.50000   0.13621   0.00000  Uiso   1.00
O229   O     0.75828   0.49999   0.11793   0.00000  Uiso   1.00
O230   O     0.90839   0.50001   0.21540   0.00000  Uiso   1.00
Br231  Br    0.85156   0.37710   0.06580   0.00000  Uiso   1.00
Br232  Br    0.81511   0.62289   0.26753   0.00000  Uiso   1.00
Br233  Br    0.79476   0.61982   0.06394   0.00000  Uiso   1.00
Br234  Br    0.87189   0.38018   0.26939   0.00000  Uiso   1.00
C235   C     0.76214   0.44923   0.04050   0.00000  Uiso   1.00
N236   N     0.73235   0.42814   0.05613   0.00000  Uiso   1.00
C237   C     0.90453   0.55077   0.29284   0.00000  Uiso   1.00
N238   N     0.93432   0.57186   0.27721   0.00000  Uiso   1.00
Br239  Br    0.75073   0.43768   0.26728   0.00000  Uiso   1.00
Br240  Br    0.91593   0.56233   0.06605   0.00000  Uiso   1.00
C241   C     0.17065   0.75424   0.16692   0.00000  Uiso   1.00
C242   C     0.16268   0.91243   0.16641   0.00000  Uiso   1.00
C243   C     0.06799   0.83316   0.15464   0.00000  Uiso   1.00
C244   C     0.26534   0.83351   0.17869   0.00000  Uiso   1.00
C245   C     0.01268   0.83272   0.14805   0.00000  Uiso   1.00
C246   C     0.32065   0.83395   0.18528   0.00000  Uiso   1.00
C247   C     0.16829   0.68710   0.12399   0.00000  Uiso   1.00
C248   C     0.16504   0.97957   0.20934   0.00000  Uiso   1.00
C249   C     0.15649   0.97852   0.12364   0.00000  Uiso   1.00
C250   C     0.17684   0.68815   0.20969   0.00000  Uiso   1.00
C251   C     0.15935   0.95724   0.16645   0.00000  Uiso   1.00
C252   C     0.17398   0.70942   0.16688   0.00000  Uiso   1.00
C253   C     0.13238   0.80864   0.02054   0.00000  Uiso   1.00
C254   C     0.20096   0.85803   0.31279   0.00000  Uiso   1.00
C255   C     0.13250   0.80833   0.30442   0.00000  Uiso   1.00
C256   C     0.20084   0.85834   0.02891   0.00000  Uiso   1.00
Cu257  Cu    0.16667   0.83334   0.21355   0.00000  Uiso   1.00
Cu258  Cu    0.16667   0.83333   0.11978   0.00000  Uiso   1.00
H259   H     0.32610   0.83122   0.11231   0.00000  Uiso   1.00
H260   H     0.00723   0.83545   0.22102   0.00000  Uiso   1.00
N261   N     0.16668   0.83334   0.28403   0.00000  Uiso   1.00
N262   N     0.16665   0.83332   0.04931   0.00000  Uiso   1.00
O263   O     0.16666   0.77322   0.20625   0.00000  Uiso   1.00
O264   O     0.16667   0.89345   0.12709   0.00000  Uiso   1.00
O265   O     0.16666   0.77321   0.12706   0.00000  Uiso   1.00
O266   O     0.16667   0.89346   0.20628   0.00000  Uiso   1.00
O267   O     0.09161   0.83334   0.19712   0.00000  Uiso   1.00
O268   O     0.24172   0.83333   0.13621   0.00000  Uiso   1.00
O269   O     0.09161   0.83333   0.11793   0.00000  Uiso   1.00
O270   O     0.24172   0.83334   0.21540   0.00000  Uiso   1.00
Br271  Br    0.18490   0.71044   0.06580   0.00000  Uiso   1.00
Br272  Br    0.14844   0.95623   0.26753   0.00000  Uiso   1.00
Br273  Br    0.12810   0.95316   0.06394   0.00000  Uiso   1.00
Br274  Br    0.20523   0.71351   0.26939   0.00000  Uiso   1.00
C275   C     0.09547   0.78256   0.04050   0.00000  Uiso   1.00
N276   N     0.06568   0.76147   0.05613   0.00000  Uiso   1.00
C277   C     0.23787   0.88411   0.29284   0.00000  Uiso   1.00
N278   N     0.26766   0.90519   0.27721   0.00000  Uiso   1.00
Br279  Br    0.08407   0.77101   0.26728   0.00000  Uiso   1.00
Br280  Br    0.24926   0.89566   0.06605   0.00000  Uiso   1.00
C281   C     0.50399   0.75424   0.16692   0.00000  Uiso   1.00
C282   C     0.49601   0.91243   0.16641   0.00000  Uiso   1.00
C283   C     0.40133   0.83316   0.15464   0.00000  Uiso   1.00
C284   C     0.59867   0.83351   0.17869   0.00000  Uiso   1.00
C285   C     0.34602   0.83272   0.14805   0.00000  Uiso   1.00
C286   C     0.65398   0.83395   0.18528   0.00000  Uiso   1.00
C287   C     0.50163   0.68710   0.12399   0.00000  Uiso   1.00
C288   C     0.49837   0.97957   0.20934   0.00000  Uiso   1.00
C289   C     0.48982   0.97852   0.12364   0.00000  Uiso   1.00
C290   C     0.51017   0.68815   0.20969   0.00000  Uiso   1.00
C291   C     0.49268   0.95724   0.16645   0.00000  Uiso   1.00
C292   C     0.50731   0.70942   0.16688   0.00000  Uiso   1.00
C293   C     0.46571   0.80864   0.02054   0.00000  Uiso   1.00
C294   C     0.53429   0.85803   0.31279   0.00000  Uiso   1.00
C295   C     0.46583   0.80833   0.30442   0.00000  Uiso   1.00
C296   C     0.53417   0.85834   0.02891   0.00000  Uiso   1.00
Cu297  Cu    0.50000   0.83334   0.21355   0.00000  Uiso   1.00
Cu298  Cu    0.50000   0.83333   0.11978   0.00000  Uiso   1.00
H299   H     0.65944   0.83122   0.11231   0.00000  Uiso   1.00
H300   H     0.34056   0.83545   0.22102   0.00000  Uiso   1.00
N301   N     0.50001   0.83334   0.28403   0.00000  Uiso   1.00
N302   N     0.49999   0.83332   0.04931   0.00000  Uiso   1.00
O303   O     0.50000   0.77322   0.20625   0.00000  Uiso   1.00
O304   O     0.50000   0.89345   0.12709   0.00000  Uiso   1.00
O305   O     0.50000   0.77321   0.12706   0.00000  Uiso   1.00
O306   O     0.50000   0.89346   0.20628   0.00000  Uiso   1.00
O307   O     0.42495   0.83334   0.19712   0.00000  Uiso   1.00
O308   O     0.57505   0.83333   0.13621   0.00000  Uiso   1.00
O309   O     0.42494   0.83333   0.11793   0.00000  Uiso   1.00
O310   O     0.57506   0.83334   0.21540   0.00000  Uiso   1.00
Br311  Br    0.51823   0.71044   0.06580   0.00000  Uiso   1.00
Br312  Br    0.48178   0.95623   0.26753   0.00000  Uiso   1.00
Br313  Br    0.46143   0.95316   0.06394   0.00000  Uiso   1.00
Br314  Br    0.53856   0.71351   0.26939   0.00000  Uiso   1.00
C315   C     0.42880   0.78256   0.04050   0.00000  Uiso   1.00
N316   N     0.39901   0.76147   0.05613   0.00000  Uiso   1.00
C317   C     0.57120   0.88411   0.29284   0.00000  Uiso   1.00
N318   N     0.60099   0.90519   0.27721   0.00000  Uiso   1.00
Br319  Br    0.41740   0.77101   0.26728   0.00000  Uiso   1.00
Br320  Br    0.58259   0.89566   0.06605   0.00000  Uiso   1.00
C321   C     0.83732   0.75424   0.16692   0.00000  Uiso   1.00
C322   C     0.82934   0.91243   0.16641   0.00000  Uiso   1.00
C323   C     0.73466   0.83316   0.15464   0.00000  Uiso   1.00
C324   C     0.93201   0.83351   0.17869   0.00000  Uiso   1.00
C325   C     0.67935   0.83272   0.14805   0.00000  Uiso   1.00
C326   C     0.98732   0.83395   0.18528   0.00000  Uiso   1.00
C327   C     0.83496   0.68710   0.12399   0.00000  Uiso   1.00
C328   C     0.83170   0.97957   0.20934   0.00000  Uiso   1.00
C329   C     0.82316   0.97852   0.12364   0.00000  Uiso   1.00
C330   C     0.84351   0.68815   0.20969   0.00000  Uiso   1.00
C331   C     0.82602   0.95724   0.16645   0.00000  Uiso   1.00
C332   C     0.84065   0.70942   0.16688   0.00000  Uiso   1.00
C333   C     0.79904   0.80864   0.02054   0.00000  Uiso   1.00
C334   C     0.86762   0.85803   0.31279   0.00000  Uiso   1.00
C335   C     0.79916   0.80833   0.30442   0.00000  Uiso   1.00
C336   C     0.86750   0.85834   0.02891   0.00000  Uiso   1.00
Cu337  Cu    0.83333   0.83334   0.21355   0.00000  Uiso   1.00
Cu338  Cu    0.83333   0.83333   0.11978   0.00000  Uiso   1.00
H339   H     0.99277   0.83122   0.11231   0.00000  Uiso   1.00
H340   H     0.67390   0.83545   0.22102   0.00000  Uiso   1.00
N341   N     0.83335   0.83334   0.28403   0.00000  Uiso   1.00
N342   N     0.83332   0.83332   0.04931   0.00000  Uiso   1.00
O343   O     0.83333   0.77322   0.20625   0.00000  Uiso   1.00
O344   O     0.83334   0.89345   0.12709   0.00000  Uiso   1.00
O345   O     0.83333   0.77321   0.12706   0.00000  Uiso   1.00
O346   O     0.83334   0.89346   0.20628   0.00000  Uiso   1.00
O347   O     0.75828   0.83334   0.19712   0.00000  Uiso   1.00
O348   O     0.90839   0.83333   0.13621   0.00000  Uiso   1.00
O349   O     0.75828   0.83333   0.11793   0.00000  Uiso   1.00
O350   O     0.90839   0.83334   0.21540   0.00000  Uiso   1.00
Br351  Br    0.85156   0.71044   0.06580   0.00000  Uiso   1.00
Br352  Br    0.81511   0.95623   0.26753   0.00000  Uiso   1.00
Br353  Br    0.79476   0.95316   0.06394   0.00000  Uiso   1.00
Br354  Br    0.87189   0.71351   0.26939   0.00000  Uiso   1.00
C355   C     0.76214   0.78256   0.04050   0.00000  Uiso   1.00
N356   N     0.73235   0.76147   0.05613   0.00000  Uiso   1.00
C357   C     0.90453   0.88411   0.29284   0.00000  Uiso   1.00
N358   N     0.93432   0.90519   0.27721   0.00000  Uiso   1.00
Br359  Br    0.75073   0.77101   0.26728   0.00000  Uiso   1.00
Br360  Br    0.91593   0.89566   0.06605   0.00000  Uiso   1.00
C361   C     0.17065   0.08757   0.50026   0.00000  Uiso   1.00
C362   C     0.16268   0.24576   0.49974   0.00000  Uiso   1.00
C363   C     0.06799   0.16649   0.48797   0.00000  Uiso   1.00
C364   C     0.26534   0.16684   0.51203   0.00000  Uiso   1.00
C365   C     0.01268   0.16605   0.48139   0.00000  Uiso   1.00
C366   C     0.32065   0.16728   0.51861   0.00000  Uiso   1.00
C367   C     0.16829   0.02043   0.45733   0.00000  Uiso   1.00
C368   C     0.16504   0.31290   0.54267   0.00000  Uiso   1.00
C369   C     0.15649   0.31185   0.45697   0.00000  Uiso   1.00
C370   C     0.17684   0.02148   0.54303   0.00000  Uiso   1.00
C371   C     0.15935   0.29058   0.49978   0.00000  Uiso   1.00
C372   C     0.17398   0.04275   0.50022   0.00000  Uiso   1.00
C373   C     0.13238   0.14197   0.35387   0.00000  Uiso   1.00
C374   C     0.20096   0.19136   0.64613   0.00000  Uiso   1.00
C375   C     0.13250   0.14166   0.63776   0.00000  Uiso   1.00
C376   C     0.20084   0.19167   0.36224   0.00000  Uiso   1.00
Cu377  Cu    0.16667   0.16667   0.54689   0.00000  Uiso   1.00
Cu378  Cu    0.16667   0.16666   0.45311   0.00000  Uiso   1.00
H379   H     0.32610   0.16455   0.44565   0.00000  Uiso   1.00
H380   H     0.00723   0.16878   0.55435   0.00000  Uiso   1.00
N381   N     0.16668   0.16668   0.61736   0.00000  Uiso   1.00
N382   N     0.16665   0.16666   0.38264   0.00000  Uiso   1.00
O383   O     0.16666   0.10655   0.53958   0.00000  Uiso   1.00
O384   O     0.16667   0.22678   0.46042   0.00000  Uiso   1.00
O385   O     0.16666   0.10654   0.46039   0.00000  Uiso   1.00
O386   O     0.16667   0.22679   0.53961   0.00000  Uiso   1.00
O387   O     0.09161   0.16667   0.53046   0.00000  Uiso   1.00
O388   O     0.24172   0.16666   0.46954   0.00000  Uiso   1.00
O389   O     0.09161   0.16666   0.45127   0.00000  Uiso   1.00
O390   O     0.24172   0.16667   0.54873   0.00000  Uiso   1.00
Br391  Br    0.18490   0.04377   0.39914   0.00000  Uiso   1.00
Br392  Br    0.14844   0.28956   0.60086   0.00000  Uiso   1.00
Br393  Br    0.12810   0.28649   0.39728   0.00000  Uiso   1.00
Br394  Br    0.20523   0.04684   0.60272   0.00000  Uiso   1.00
C395   C     0.09547   0.11589   0.37383   0.00000  Uiso   1.00
N396   N     0.06568   0.09481   0.38946   0.00000  Uiso   1.00
C397   C     0.23787   0.21744   0.62617   0.00000  Uiso   1.00
N398   N     0.26766   0.23852   0.61054   0.00000  Uiso   1.00
Br399  Br    0.08407   0.10434   0.60061   0.00000  Uiso   1.00
Br400  Br    0.24926   0.22899   0.39939   0.00000  Uiso   1.00
C401   C     0.50399   0.08757   0.50026   0.00000  Uiso   1.00
C402   C     0.49601   0.24576   0.49974   0.00000  Uiso   1.00
C403   C     0.40133   0.16649   0.48797   0.00000  Uiso   1.00
C404   C     0.59867   0.16684   0.51203   0.00000  Uiso   1.00
C405   C     0.34602   0.16605   0.48139   0.00000  Uiso   1.00
C406   C     0.65398   0.16728   0.51861   0.00000  Uiso   1.00
C407   C     0.50163   0.02043   0.45733   0.00000  Uiso   1.00
C408   C     0.49837   0.31290   0.54267   0.00000  Uiso   1.00
C409   C     0.48982   0.31185   0.45697   0.00000  Uiso   1.00
C410   C     0.51017   0.02148   0.54303   0.00000  Uiso   1.00
C411   C     0.49268   0.29058   0.49978   0.00000  Uiso   1.00
C412   C     0.50731   0.04275   0.50022   0.00000  Uiso   1.00
C413   C     0.46571   0.14197   0.35387   0.00000  Uiso   1.00
C414   C     0.53429   0.19136   0.64613   0.00000  Uiso   1.00
C415   C     0.46583   0.14166   0.63776   0.00000  Uiso   1.00
C416   C     0.53417   0.19167   0.36224   0.00000  Uiso   1.00
Cu417  Cu    0.50000   0.16667   0.54689   0.00000  Uiso   1.00
Cu418  Cu    0.50000   0.16666   0.45311   0.00000  Uiso   1.00
H419   H     0.65944   0.16455   0.44565   0.00000  Uiso   1.00
H420   H     0.34056   0.16878   0.55435   0.00000  Uiso   1.00
N421   N     0.50001   0.16668   0.61736   0.00000  Uiso   1.00
N422   N     0.49999   0.16666   0.38264   0.00000  Uiso   1.00
O423   O     0.50000   0.10655   0.53958   0.00000  Uiso   1.00
O424   O     0.50000   0.22678   0.46042   0.00000  Uiso   1.00
O425   O     0.50000   0.10654   0.46039   0.00000  Uiso   1.00
O426   O     0.50000   0.22679   0.53961   0.00000  Uiso   1.00
O427   O     0.42495   0.16667   0.53046   0.00000  Uiso   1.00
O428   O     0.57505   0.16666   0.46954   0.00000  Uiso   1.00
O429   O     0.42494   0.16666   0.45127   0.00000  Uiso   1.00
O430   O     0.57506   0.16667   0.54873   0.00000  Uiso   1.00
Br431  Br    0.51823   0.04377   0.39914   0.00000  Uiso   1.00
Br432  Br    0.48178   0.28956   0.60086   0.00000  Uiso   1.00
Br433  Br    0.46143   0.28649   0.39728   0.00000  Uiso   1.00
Br434  Br    0.53856   0.04684   0.60272   0.00000  Uiso   1.00
C435   C     0.42880   0.11589   0.37383   0.00000  Uiso   1.00
N436   N     0.39901   0.09481   0.38946   0.00000  Uiso   1.00
C437   C     0.57120   0.21744   0.62617   0.00000  Uiso   1.00
N438   N     0.60099   0.23852   0.61054   0.00000  Uiso   1.00
Br439  Br    0.41740   0.10434   0.60061   0.00000  Uiso   1.00
Br440  Br    0.58259   0.22899   0.39939   0.00000  Uiso   1.00
C441   C     0.83732   0.08757   0.50026   0.00000  Uiso   1.00
C442   C     0.82934   0.24576   0.49974   0.00000  Uiso   1.00
C443   C     0.73466   0.16649   0.48797   0.00000  Uiso   1.00
C444   C     0.93201   0.16684   0.51203   0.00000  Uiso   1.00
C445   C     0.67935   0.16605   0.48139   0.00000  Uiso   1.00
C446   C     0.98732   0.16728   0.51861   0.00000  Uiso   1.00
C447   C     0.83496   0.02043   0.45733   0.00000  Uiso   1.00
C448   C     0.83170   0.31290   0.54267   0.00000  Uiso   1.00
C449   C     0.82316   0.31185   0.45697   0.00000  Uiso   1.00
C450   C     0.84351   0.02148   0.54303   0.00000  Uiso   1.00
C451   C     0.82602   0.29058   0.49978   0.00000  Uiso   1.00
C452   C     0.84065   0.04275   0.50022   0.00000  Uiso   1.00
C453   C     0.79904   0.14197   0.35387   0.00000  Uiso   1.00
C454   C     0.86762   0.19136   0.64613   0.00000  Uiso   1.00
C455   C     0.79916   0.14166   0.63776   0.00000  Uiso   1.00
C456   C     0.86750   0.19167   0.36224   0.00000  Uiso   1.00
Cu457  Cu    0.83333   0.16667   0.54689   0.00000  Uiso   1.00
Cu458  Cu    0.83333   0.16666   0.45311   0.00000  Uiso   1.00
H459   H     0.99277   0.16455   0.44565   0.00000  Uiso   1.00
H460   H     0.67390   0.16878   0.55435   0.00000  Uiso   1.00
N461   N     0.83335   0.16668   0.61736   0.00000  Uiso   1.00
N462   N     0.83332   0.16666   0.38264   0.00000  Uiso   1.00
O463   O     0.83333   0.10655   0.53958   0.00000  Uiso   1.00
O464   O     0.83334   0.22678   0.46042   0.00000  Uiso   1.00
O465   O     0.83333   0.10654   0.46039   0.00000  Uiso   1.00
O466   O     0.83334   0.22679   0.53961   0.00000  Uiso   1.00
O467   O     0.75828   0.16667   0.53046   0.00000  Uiso   1.00
O468   O     0.90839   0.16666   0.46954   0.00000  Uiso   1.00
O469   O     0.75828   0.16666   0.45127   0.00000  Uiso   1.00
O470   O     0.90839   0.16667   0.54873   0.00000  Uiso   1.00
Br471  Br    0.85156   0.04377   0.39914   0.00000  Uiso   1.00
Br472  Br    0.81511   0.28956   0.60086   0.00000  Uiso   1.00
Br473  Br    0.79476   0.28649   0.39728   0.00000  Uiso   1.00
Br474  Br    0.87189   0.04684   0.60272   0.00000  Uiso   1.00
C475   C     0.76214   0.11589   0.37383   0.00000  Uiso   1.00
N476   N     0.73235   0.09481   0.38946   0.00000  Uiso   1.00
C477   C     0.90453   0.21744   0.62617   0.00000  Uiso   1.00
N478   N     0.93432   0.23852   0.61054   0.00000  Uiso   1.00
Br479  Br    0.75073   0.10434   0.60061   0.00000  Uiso   1.00
Br480  Br    0.91593   0.22899   0.39939   0.00000  Uiso   1.00
C481   C     0.17065   0.42090   0.50026   0.00000  Uiso   1.00
C482   C     0.16268   0.57910   0.49974   0.00000  Uiso   1.00
C483   C     0.06799   0.49983   0.48797   0.00000  Uiso   1.00
C484   C     0.26534   0.50017   0.51203   0.00000  Uiso   1.00
C485   C     0.01268   0.49939   0.48139   0.00000  Uiso   1.00
C486   C     0.32065   0.50061   0.51861   0.00000  Uiso   1.00
C487   C     0.16829   0.35376   0.45733   0.00000  Uiso   1.00
C488   C     0.16504   0.64624   0.54267   0.00000  Uiso   1.00
C489   C     0.15649   0.64519   0.45697   0.00000  Uiso   1.00
C490   C     0.17684   0.35481   0.54303   0.00000  Uiso   1.00
C491   C     0.15935   0.62391   0.49978   0.00000  Uiso   1.00
C492   C     0.17398   0.37609   0.50022   0.00000  Uiso   1.00
C493   C     0.13238   0.47531   0.35387   0.00000  Uiso   1.00
C494   C     0.20096   0.52469   0.64613   0.00000  Uiso   1.00
C495   C     0.13250   0.47499   0.63776   0.00000  Uiso   1.00
C496   C     0.20084   0.52501   0.36224   0.00000  Uiso   1.00
Cu497  Cu    0.16667   0.50001   0.54689   0.00000  Uiso   1.00
Cu498  Cu    0.16667   0.49999   0.45311   0.00000  Uiso   1.00
H499   H     0.32610   0.49788   0.44565   0.00000  Uiso   1.00
H500   H     0.00723   0.50212   0.55435   0.00000  Uiso   1.00
N501   N     0.16668   0.50001   0.61736   0.00000  Uiso   1.00
N502   N     0.16665   0.49999   0.38264   0.00000  Uiso   1.00
O503   O     0.16666   0.43989   0.53958   0.00000  Uiso   1.00
O504   O     0.16667   0.56011   0.46042   0.00000  Uiso   1.00
O505   O     0.16666   0.43988   0.46039   0.00000  Uiso   1.00
O506   O     0.16667   0.56012   0.53961   0.00000  Uiso   1.00
O507   O     0.09161   0.50000   0.53046   0.00000  Uiso   1.00
O508   O     0.24172   0.50000   0.46954   0.00000  Uiso   1.00
O509   O     0.09161   0.49999   0.45127   0.00000  Uiso   1.00
O510   O     0.24172   0.50001   0.54873   0.00000  Uiso   1.00
Br511  Br    0.18490   0.37710   0.39914   0.00000  Uiso   1.00
Br512  Br    0.14844   0.62289   0.60086   0.00000  Uiso   1.00
Br513  Br    0.12810   0.61982   0.39728   0.00000  Uiso   1.00
Br514  Br    0.20523   0.38018   0.60272   0.00000  Uiso   1.00
C515   C     0.09547   0.44923   0.37383   0.00000  Uiso   1.00
N516   N     0.06568   0.42814   0.38946   0.00000  Uiso   1.00
C517   C     0.23787   0.55077   0.62617   0.00000  Uiso   1.00
N518   N     0.26766   0.57186   0.61054   0.00000  Uiso   1.00
Br519  Br    0.08407   0.43768   0.60061   0.00000  Uiso   1.00
Br520  Br    0.24926   0.56233   0.39939   0.00000  Uiso   1.00
C521   C     0.50399   0.42090   0.50026   0.00000  Uiso   1.00
C522   C     0.49601   0.57910   0.49974   0.00000  Uiso   1.00
C523   C     0.40133   0.49983   0.48797   0.00000  Uiso   1.00
C524   C     0.59867   0.50017   0.51203   0.00000  Uiso   1.00
C525   C     0.34602   0.49939   0.48139   0.00000  Uiso   1.00
C526   C     0.65398   0.50061   0.51861   0.00000  Uiso   1.00
C527   C     0.50163   0.35376   0.45733   0.00000  Uiso   1.00
C528   C     0.49837   0.64624   0.54267   0.00000  Uiso   1.00
C529   C     0.48982   0.64519   0.45697   0.00000  Uiso   1.00
C530   C     0.51017   0.35481   0.54303   0.00000  Uiso   1.00
C531   C     0.49268   0.62391   0.49978   0.00000  Uiso   1.00
C532   C     0.50731   0.37609   0.50022   0.00000  Uiso   1.00
C533   C     0.46571   0.47531   0.35387   0.00000  Uiso   1.00
C534   C     0.53429   0.52469   0.64613   0.00000  Uiso   1.00
C535   C     0.46583   0.47499   0.63776   0.00000  Uiso   1.00
C536   C     0.53417   0.52501   0.36224   0.00000  Uiso   1.00
Cu537  Cu    0.50000   0.50001   0.54689   0.00000  Uiso   1.00
Cu538  Cu    0.50000   0.49999   0.45311   0.00000  Uiso   1.00
H539   H     0.65944   0.49788   0.44565   0.00000  Uiso   1.00
H540   H     0.34056   0.50212   0.55435   0.00000  Uiso   1.00
N541   N     0.50001   0.50001   0.61736   0.00000  Uiso   1.00
N542   N     0.49999   0.49999   0.38264   0.00000  Uiso   1.00
O543   O     0.50000   0.43989   0.53958   0.00000  Uiso   1.00
O544   O     0.50000   0.56011   0.46042   0.00000  Uiso   1.00
O545   O     0.50000   0.43988   0.46039   0.00000  Uiso   1.00
O546   O     0.50000   0.56012   0.53961   0.00000  Uiso   1.00
O547   O     0.42495   0.50000   0.53046   0.00000  Uiso   1.00
O548   O     0.57505   0.50000   0.46954   0.00000  Uiso   1.00
O549   O     0.42494   0.49999   0.45127   0.00000  Uiso   1.00
O550   O     0.57506   0.50001   0.54873   0.00000  Uiso   1.00
Br551  Br    0.51823   0.37710   0.39914   0.00000  Uiso   1.00
Br552  Br    0.48178   0.62289   0.60086   0.00000  Uiso   1.00
Br553  Br    0.46143   0.61982   0.39728   0.00000  Uiso   1.00
Br554  Br    0.53856   0.38018   0.60272   0.00000  Uiso   1.00
C555   C     0.42880   0.44923   0.37383   0.00000  Uiso   1.00
N556   N     0.39901   0.42814   0.38946   0.00000  Uiso   1.00
C557   C     0.57120   0.55077   0.62617   0.00000  Uiso   1.00
N558   N     0.60099   0.57186   0.61054   0.00000  Uiso   1.00
Br559  Br    0.41740   0.43768   0.60061   0.00000  Uiso   1.00
Br560  Br    0.58259   0.56233   0.39939   0.00000  Uiso   1.00
C561   C     0.83732   0.42090   0.50026   0.00000  Uiso   1.00
C562   C     0.82934   0.57910   0.49974   0.00000  Uiso   1.00
C563   C     0.73466   0.49983   0.48797   0.00000  Uiso   1.00
C564   C     0.93201   0.50017   0.51203   0.00000  Uiso   1.00
C565   C     0.67935   0.49939   0.48139   0.00000  Uiso   1.00
C566   C     0.98732   0.50061   0.51861   0.00000  Uiso   1.00
C567   C     0.83496   0.35376   0.45733   0.00000  Uiso   1.00
C568   C     0.83170   0.64624   0.54267   0.00000  Uiso   1.00
C569   C     0.82316   0.64519   0.45697   0.00000  Uiso   1.00
C570   C     0.84351   0.35481   0.54303   0.00000  Uiso   1.00
C571   C     0.82602   0.62391   0.49978   0.00000  Uiso   1.00
C572   C     0.84065   0.37609   0.50022   0.00000  Uiso   1.00
C573   C     0.79904   0.47531   0.35387   0.00000  Uiso   1.00
C574   C     0.86762   0.52469   0.64613   0.00000  Uiso   1.00
C575   C     0.79916   0.47499   0.63776   0.00000  Uiso   1.00
C576   C     0.86750   0.52501   0.36224   0.00000  Uiso   1.00
Cu577  Cu    0.83333   0.50001   0.54689   0.00000  Uiso   1.00
Cu578  Cu    0.83333   0.49999   0.45311   0.00000  Uiso   1.00
H579   H     0.99277   0.49788   0.44565   0.00000  Uiso   1.00
H580   H     0.67390   0.50212   0.55435   0.00000  Uiso   1.00
N581   N     0.83335   0.50001   0.61736   0.00000  Uiso   1.00
N582   N     0.83332   0.49999   0.38264   0.00000  Uiso   1.00
O583   O     0.83333   0.43989   0.53958   0.00000  Uiso   1.00
O584   O     0.83334   0.56011   0.46042   0.00000  Uiso   1.00
O585   O     0.83333   0.43988   0.46039   0.00000  Uiso   1.00
O586   O     0.83334   0.56012   0.53961   0.00000  Uiso   1.00
O587   O     0.75828   0.50000   0.53046   0.00000  Uiso   1.00
O588   O     0.90839   0.50000   0.46954   0.00000  Uiso   1.00
O589   O     0.75828   0.49999   0.45127   0.00000  Uiso   1.00
O590   O     0.90839   0.50001   0.54873   0.00000  Uiso   1.00
Br591  Br    0.85156   0.37710   0.39914   0.00000  Uiso   1.00
Br592  Br    0.81511   0.62289   0.60086   0.00000  Uiso   1.00
Br593  Br    0.79476   0.61982   0.39728   0.00000  Uiso   1.00
Br594  Br    0.87189   0.38018   0.60272   0.00000  Uiso   1.00
C595   C     0.76214   0.44923   0.37383   0.00000  Uiso   1.00
N596   N     0.73235   0.42814   0.38946   0.00000  Uiso   1.00
C597   C     0.90453   0.55077   0.62617   0.00000  Uiso   1.00
N598   N     0.93432   0.57186   0.61054   0.00000  Uiso   1.00
Br599  Br    0.75073   0.43768   0.60061   0.00000  Uiso   1.00
Br600  Br    0.91593   0.56233   0.39939   0.00000  Uiso   1.00
C601   C     0.17065   0.75424   0.50026   0.00000  Uiso   1.00
C602   C     0.16268   0.91243   0.49974   0.00000  Uiso   1.00
C603   C     0.06799   0.83316   0.48797   0.00000  Uiso   1.00
C604   C     0.26534   0.83351   0.51203   0.00000  Uiso   1.00
C605   C     0.01268   0.83272   0.48139   0.00000  Uiso   1.00
C606   C     0.32065   0.83395   0.51861   0.00000  Uiso   1.00
C607   C     0.16829   0.68710   0.45733   0.00000  Uiso   1.00
C608   C     0.16504   0.97957   0.54267   0.00000  Uiso   1.00
C609   C     0.15649   0.97852   0.45697   0.00000  Uiso   1.00
C610   C     0.17684   0.68815   0.54303   0.00000  Uiso   1.00
C611   C     0.15935   0.95724   0.49978   0.00000  Uiso   1.00
C612   C     0.17398   0.70942   0.50022   0.00000  Uiso   1.00
C613   C     0.13238   0.80864   0.35387   0.00000  Uiso   1.00
C614   C     0.20096   0.85803   0.64613   0.00000  Uiso   1.00
C615   C     0.13250   0.80833   0.63776   0.00000  Uiso   1.00
C616   C     0.20084   0.85834   0.36224   0.00000  Uiso   1.00
Cu617  Cu    0.16667   0.83334   0.54689   0.00000  Uiso   1.00
Cu618  Cu    0.16667   0.83333   0.45311   0.00000  Uiso   1.00
H619   H     0.32610   0.83122   0.44565   0.00000  Uiso   1.00
H620   H     0.00723   0.83545   0.55435   0.00000  Uiso   1.00
N621   N     0.16668   0.83334   0.61736   0.00000  Uiso   1.00
N622   N     0.16665   0.83332   0.38264   0.00000  Uiso   1.00
O623   O     0.16666   0.77322   0.53958   0.00000  Uiso   1.00
O624   O     0.16667   0.89345   0.46042   0.00000  Uiso   1.00
O625   O     0.16666   0.77321   0.46039   0.00000  Uiso   1.00
O626   O     0.16667   0.89346   0.53961   0.00000  Uiso   1.00
O627   O     0.09161   0.83334   0.53046   0.00000  Uiso   1.00
O628   O     0.24172   0.83333   0.46954   0.00000  Uiso   1.00
O629   O     0.09161   0.83333   0.45127   0.00000  Uiso   1.00
O630   O     0.24172   0.83334   0.54873   0.00000  Uiso   1.00
Br631  Br    0.18490   0.71044   0.39914   0.00000  Uiso   1.00
Br632  Br    0.14844   0.95623   0.60086   0.00000  Uiso   1.00
Br633  Br    0.12810   0.95316   0.39728   0.00000  Uiso   1.00
Br634  Br    0.20523   0.71351   0.60272   0.00000  Uiso   1.00
C635   C     0.09547   0.78256   0.37383   0.00000  Uiso   1.00
N636   N     0.06568   0.76147   0.38946   0.00000  Uiso   1.00
C637   C     0.23787   0.88411   0.62617   0.00000  Uiso   1.00
N638   N     0.26766   0.90519   0.61054   0.00000  Uiso   1.00
Br639  Br    0.08407   0.77101   0.60061   0.00000  Uiso   1.00
Br640  Br    0.24926   0.89566   0.39939   0.00000  Uiso   1.00
C641   C     0.50399   0.75424   0.50026   0.00000  Uiso   1.00
C642   C     0.49601   0.91243   0.49974   0.00000  Uiso   1.00
C643   C     0.40133   0.83316   0.48797   0.00000  Uiso   1.00
C644   C     0.59867   0.83351   0.51203   0.00000  Uiso   1.00
C645   C     0.34602   0.83272   0.48139   0.00000  Uiso   1.00
C646   C     0.65398   0.83395   0.51861   0.00000  Uiso   1.00
C647   C     0.50163   0.68710   0.45733   0.00000  Uiso   1.00
C648   C     0.49837   0.97957   0.54267   0.00000  Uiso   1.00
C649   C     0.48982   0.97852   0.45697   0.00000  Uiso   1.00
C650   C     0.51017   0.68815   0.54303   0.00000  Uiso   1.00
C651   C     0.49268   0.95724   0.49978   0.00000  Uiso   1.00
C652   C     0.50731   0.70942   0.50022   0.00000  Uiso   1.00
C653   C     0.46571   0.80864   0.35387   0.00000  Uiso   1.00
C654   C     0.53429   0.85803   0.64613   0.00000  Uiso   1.00
C655   C     0.46583   0.80833   0.63776   0.00000  Uiso   1.00
C656   C     0.53417   0.85834   0.36224   0.00000  Uiso   1.00
Cu657  Cu    0.50000   0.83334   0.54689   0.00000  Uiso   1.00
Cu658  Cu    0.50000   0.83333   0.45311   0.00000  Uiso   1.00
H659   H     0.65944   0.83122   0.44565   0.00000  Uiso   1.00
H660   H     0.34056   0.83545   0.55435   0.00000  Uiso   1.00
N661   N     0.50001   0.83334   0.61736   0.00000  Uiso   1.00
N662   N     0.49999   0.83332   0.38264   0.00000  Uiso   1.00
O663   O     0.50000   0.77322   0.53958   0.00000  Uiso   1.00
O664   O     0.50000   0.89345   0.46042   0.00000  Uiso   1.00
O665   O     0.50000   0.77321   0.46039   0.00000  Uiso   1.00
O666   O     0.50000   0.89346   0.53961   0.00000  Uiso   1.00
O667   O     0.42495   0.83334   0.53046   0.00000  Uiso   1.00
O668   O     0.57505   0.83333   0.46954   0.00000  Uiso   1.00
O669   O     0.42494   0.83333   0.45127   0.00000  Uiso   1.00
O670   O     0.57506   0.83334   0.54873   0.00000  Uiso   1.00
Br671  Br    0.51823   0.71044   0.39914   0.00000  Uiso   1.00
Br672  Br    0.48178   0.95623   0.60086   0.00000  Uiso   1.00
Br673  Br    0.46143   0.95316   0.39728   0.00000  Uiso   1.00
Br674  Br    0.53856   0.71351   0.60272   0.00000  Uiso   1.00
C675   C     0.42880   0.78256   0.37383   0.00000  Uiso   1.00
N676   N     0.39901   0.76147   0.38946   0.00000  Uiso   1.00
C677   C     0.57120   0.88411   0.62617   0.00000  Uiso   1.00
N678   N     0.60099   0.90519   0.61054   0.00000  Uiso   1.00
Br679  Br    0.41740   0.77101   0.60061   0.00000  Uiso   1.00
Br680  Br    0.58259   0.89566   0.39939   0.00000  Uiso   1.00
C681   C     0.83732   0.75424   0.50026   0.00000  Uiso   1.00
C682   C     0.82934   0.91243   0.49974   0.00000  Uiso   1.00
C683   C     0.73466   0.83316   0.48797   0.00000  Uiso   1.00
C684   C     0.93201   0.83351   0.51203   0.00000  Uiso   1.00
C685   C     0.67935   0.83272   0.48139   0.00000  Uiso   1.00
C686   C     0.98732   0.83395   0.51861   0.00000  Uiso   1.00
C687   C     0.83496   0.68710   0.45733   0.00000  Uiso   1.00
C688   C     0.83170   0.97957   0.54267   0.00000  Uiso   1.00
C689   C     0.82316   0.97852   0.45697   0.00000  Uiso   1.00
C690   C     0.84351   0.68815   0.54303   0.00000  Uiso   1.00
C691   C     0.82602   0.95724   0.49978   0.00000  Uiso   1.00
C692   C     0.84065   0.70942   0.50022   0.00000  Uiso   1.00
C693   C     0.79904   0.80864   0.35387   0.00000  Uiso   1.00
C694   C     0.86762   0.85803   0.64613   0.00000  Uiso   1.00
C695   C     0.79916   0.80833   0.63776   0.00000  Uiso   1.00
C696   C     0.86750   0.85834   0.36224   0.00000  Uiso   1.00
Cu697  Cu    0.83333   0.83334   0.54689   0.00000  Uiso   1.00
Cu698  Cu    0.83333   0.83333   0.45311   0.00000  Uiso   1.00
H699   H     0.99277   0.83122   0.44565   0.00000  Uiso   1.00
H700   H     0.67390   0.83545   0.55435   0.00000  Uiso   1.00
N701   N     0.83335   0.83334   0.61736   0.00000  Uiso   1.00
N702   N     0.83332   0.83332   0.38264   0.00000  Uiso   1.00
O703   O     0.83333   0.77322   0.53958   0.00000  Uiso   1.00
O704   O     0.83334   0.89345   0.46042   0.00000  Uiso   1.00
O705   O     0.83333   0.77321   0.46039   0.00000  Uiso   1.00
O706   O     0.83334   0.89346   0.53961   0.00000  Uiso   1.00
O707   O     0.75828   0.83334   0.53046   0.00000  Uiso   1.00
O708   O     0.90839   0.83333   0.46954   0.00000  Uiso   1.00
O709   O     0.75828   0.83333   0.45127   0.00000  Uiso   1.00
O710   O     0.90839   0.83334   0.54873   0.00000  Uiso   1.00
Br711  Br    0.85156   0.71044   0.39914   0.00000  Uiso   1.00
Br712  Br    0.81511   0.95623   0.60086   0.00000  Uiso   1.00
Br713  Br    0.79476   0.95316   0.39728   0.00000  Uiso   1.00
Br714  Br    0.87189   0.71351   0.60272   0.00000  Uiso   1.00
C715   C     0.76214   0.78256   0.37383   0.00000  Uiso   1.00
N716   N     0.73235   0.76147   0.38946   0.00000  Uiso   1.00
C717   C     0.90453   0.88411   0.62617   0.00000  Uiso   1.00
N718   N     0.93432   0.90519   0.61054   0.00000  Uiso   1.00
Br719  Br    0.75073   0.77101   0.60061   0.00000  Uiso   1.00
Br720  Br    0.91593   0.89566   0.39939   0.00000  Uiso   1.00
C721   C     0.17065   0.08757   0.83359   0.00000  Uiso   1.00
C722   C     0.16268   0.24576   0.83308   0.00000  Uiso   1.00
C723   C     0.06799   0.16649   0.82131   0.00000  Uiso   1.00
C724   C     0.26534   0.16684   0.84536   0.00000  Uiso   1.00
C725   C     0.01268   0.16605   0.81472   0.00000  Uiso   1.00
C726   C     0.32065   0.16728   0.85195   0.00000  Uiso   1.00
C727   C     0.16829   0.02043   0.79066   0.00000  Uiso   1.00
C728   C     0.16504   0.31290   0.87600   0.00000  Uiso   1.00
C729   C     0.15649   0.31185   0.79031   0.00000  Uiso   1.00
C730   C     0.17684   0.02148   0.87636   0.00000  Uiso   1.00
C731   C     0.15935   0.29058   0.83312   0.00000  Uiso   1.00
C732   C     0.17398   0.04275   0.83355   0.00000  Uiso   1.00
C733   C     0.13238   0.14197   0.68720   0.00000  Uiso   1.00
C734   C     0.20096   0.19136   0.97946   0.00000  Uiso   1.00
C735   C     0.13250   0.14166   0.97109   0.00000  Uiso   1.00
C736   C     0.20084   0.19167   0.69558   0.00000  Uiso   1.00
Cu737  Cu    0.16667   0.16667   0.88022   0.00000  Uiso   1.00
Cu738  Cu    0.16667   0.16666   0.78645   0.00000  Uiso   1.00
H739   H     0.32610   0.16455   0.77898   0.00000  Uiso   1.00
H740   H     0.00723   0.16878   0.88769   0.00000  Uiso   1.00
N741   N     0.16668   0.16668   0.95069   0.00000  Uiso   1.00
N742   N     0.16665   0.16666   0.71597   0.00000  Uiso   1.00
O743   O     0.16666   0.10655   0.87291   0.00000  Uiso   1.00
O744   O     0.16667   0.22678   0.79375   0.00000  Uiso   1.00
O745   O     0.16666   0.10654   0.79372   0.00000  Uiso   1.00
O746   O     0.16667   0.22679   0.87294   0.00000  Uiso   1.00
O747   O     0.09161   0.16667   0.86379   0.00000  Uiso   1.00
O748   O     0.24172   0.16666   0.80288   0.00000  Uiso   1.00
O749   O     0.09161   0.16666   0.78460   0.00000  Uiso   1.00
O750   O     0.24172   0.16667   0.88207   0.00000  Uiso   1.00
Br751  Br    0.18490   0.04377   0.73247   0.00000  Uiso   1.00
Br752  Br    0.14844   0.28956   0.93420   0.00000  Uiso   1.00
Br753  Br    0.12810   0.28649   0.73061   0.00000  Uiso   1.00
Br754  Br    0.20523   0.04684   0.93605   0.00000  Uiso   1.00
C755   C     0.09547   0.11589   0.70716   0.00000  Uiso   1.00
N756   N     0.06568   0.09481   0.72279   0.00000  Uiso   1.00
C757   C     0.23787   0.21744   0.95950   0.00000  Uiso   1.00
N758   N     0.26766   0.23852   0.94387   0.00000  Uiso   1.00
Br759  Br    0.08407   0.10434   0.93395   0.00000  Uiso   1.00
Br760  Br    0.24926   0.22899   0.73272   0.00000  Uiso   1.00
C761   C     0.50399   0.08757   0.83359   0.00000  Uiso   1.00
C762   C     0.49601   0.24576   0.83308   0.00000  Uiso   1.00
C763   C     0.40133   0.16649   0.82131   0.00000  Uiso   1.00
C764   C     0.59867   0.16684   0.84536   0.00000  Uiso   1.00
C765   C     0.34602   0.16605   0.81472   0.00000  Uiso   1.00
C766   C     0.65398   0.16728   0.85195   0.00000  Uiso   1.00
C767   C     0.50163   0.02043   0.79066   0.00000  Uiso   1.00
C768   C     0.49837   0.31290   0.87600   0.00000  Uiso   1.00
C769   C     0.48982   0.31185   0.79031   0.00000  Uiso   1.00
C770   C     0.51017   0.02148   0.87636   0.00000  Uiso   1.00
C771   C     0.49268   0.29058   0.83312   0.00000  Uiso   1.00
C772   C     0.50731   0.04275   0.83355   0.00000  Uiso   1.00
C773   C     0.46571   0.14197   0.68720   0.00000  Uiso   1.00
C774   C     0.53429   0.19136   0.97946   0.00000  Uiso   1.00
C775   C     0.46583   0.14166   0.97109   0.00000  Uiso   1.00
C776   C     0.53417   0.19167   0.69558   0.00000  Uiso   1.00
Cu777  Cu    0.50000   0.16667   0.88022   0.00000  Uiso   1.00
Cu778  Cu    0.50000   0.16666   0.78645   0.00000  Uiso   1.00
H779   H     0.65944   0.16455   0.77898   0.00000  Uiso   1.00
H780   H     0.34056   0.16878   0.88769   0.00000  Uiso   1.00
N781   N     0.50001   0.16668   0.95069   0.00000  Uiso   1.00
N782   N     0.49999   0.16666   0.71597   0.00000  Uiso   1.00
O783   O     0.50000   0.10655   0.87291   0.00000  Uiso   1.00
O784   O     0.50000   0.22678   0.79375   0.00000  Uiso   1.00
O785   O     0.50000   0.10654   0.79372   0.00000  Uiso   1.00
O786   O     0.50000   0.22679   0.87294   0.00000  Uiso   1.00
O787   O     0.42495   0.16667   0.86379   0.00000  Uiso   1.00
O788   O     0.57505   0.16666   0.80288   0.00000  Uiso   1.00
O789   O     0.42494   0.16666   0.78460   0.00000  Uiso   1.00
O790   O     0.57506   0.16667   0.88207   0.00000  Uiso   1.00
Br791  Br    0.51823   0.04377   0.73247   0.00000  Uiso   1.00
Br792  Br    0.48178   0.28956   0.93420   0.00000  Uiso   1.00
Br793  Br    0.46143   0.28649   0.73061   0.00000  Uiso   1.00
Br794  Br    0.53856   0.04684   0.93605   0.00000  Uiso   1.00
C795   C     0.42880   0.11589   0.70716   0.00000  Uiso   1.00
N796   N     0.39901   0.09481   0.72279   0.00000  Uiso   1.00
C797   C     0.57120   0.21744   0.95950   0.00000  Uiso   1.00
N798   N     0.60099   0.23852   0.94387   0.00000  Uiso   1.00
Br799  Br    0.41740   0.10434   0.93395   0.00000  Uiso   1.00
Br800  Br    0.58259   0.22899   0.73272   0.00000  Uiso   1.00
C801   C     0.83732   0.08757   0.83359   0.00000  Uiso   1.00
C802   C     0.82934   0.24576   0.83308   0.00000  Uiso   1.00
C803   C     0.73466   0.16649   0.82131   0.00000  Uiso   1.00
C804   C     0.93201   0.16684   0.84536   0.00000  Uiso   1.00
C805   C     0.67935   0.16605   0.81472   0.00000  Uiso   1.00
C806   C     0.98732   0.16728   0.85195   0.00000  Uiso   1.00
C807   C     0.83496   0.02043   0.79066   0.00000  Uiso   1.00
C808   C     0.83170   0.31290   0.87600   0.00000  Uiso   1.00
C809   C     0.82316   0.31185   0.79031   0.00000  Uiso   1.00
C810   C     0.84351   0.02148   0.87636   0.00000  Uiso   1.00
C811   C     0.82602   0.29058   0.83312   0.00000  Uiso   1.00
C812   C     0.84065   0.04275   0.83355   0.00000  Uiso   1.00
C813   C     0.79904   0.14197   0.68720   0.00000  Uiso   1.00
C814   C     0.86762   0.19136   0.97946   0.00000  Uiso   1.00
C815   C     0.79916   0.14166   0.97109   0.00000  Uiso   1.00
C816   C     0.86750   0.19167   0.69558   0.00000  Uiso   1.00
Cu817  Cu    0.83333   0.16667   0.88022   0.00000  Uiso   1.00
Cu818  Cu    0.83333   0.16666   0.78645   0.00000  Uiso   1.00
H819   H     0.99277   0.16455   0.77898   0.00000  Uiso   1.00
H820   H     0.67390   0.16878   0.88769   0.00000  Uiso   1.00
N821   N     0.83335   0.16668   0.95069   0.00000  Uiso   1.00
N822   N     0.83332   0.16666   0.71597   0.00000  Uiso   1.00
O823   O     0.83333   0.10655   0.87291   0.00000  Uiso   1.00
O824   O     0.83334   0.22678   0.79375   0.00000  Uiso   1.00
O825   O     0.83333   0.10654   0.79372   0.00000  Uiso   1.00
O826   O     0.83334   0.22679   0.87294   0.00000  Uiso   1.00
O827   O     0.75828   0.16667   0.86379   0.00000  Uiso   1.00
O828   O     0.90839   0.16666   0.80288   0.00000  Uiso   1.00
O829   O     0.75828   0.16666   0.78460   0.00000  Uiso   1.00
O830   O     0.90839   0.16667   0.88207   0.00000  Uiso   1.00
Br831  Br    0.85156   0.04377   0.73247   0.00000  Uiso   1.00
Br832  Br    0.81511   0.28956   0.93420   0.00000  Uiso   1.00
Br833  Br    0.79476   0.28649   0.73061   0.00000  Uiso   1.00
Br834  Br    0.87189   0.04684   0.93605   0.00000  Uiso   1.00
C835   C     0.76214   0.11589   0.70716   0.00000  Uiso   1.00
N836   N     0.73235   0.09481   0.72279   0.00000  Uiso   1.00
C837   C     0.90453   0.21744   0.95950   0.00000  Uiso   1.00
N838   N     0.93432   0.23852   0.94387   0.00000  Uiso   1.00
Br839  Br    0.75073   0.10434   0.93395   0.00000  Uiso   1.00
Br840  Br    0.91593   0.22899   0.73272   0.00000  Uiso   1.00
C841   C     0.17065   0.42090   0.83359   0.00000  Uiso   1.00
C842   C     0.16268   0.57910   0.83308   0.00000  Uiso   1.00
C843   C     0.06799   0.49983   0.82131   0.00000  Uiso   1.00
C844   C     0.26534   0.50017   0.84536   0.00000  Uiso   1.00
C845   C     0.01268   0.49939   0.81472   0.00000  Uiso   1.00
C846   C     0.32065   0.50061   0.85195   0.00000  Uiso   1.00
C847   C     0.16829   0.35376   0.79066   0.00000  Uiso   1.00
C848   C     0.16504   0.64624   0.87600   0.00000  Uiso   1.00
C849   C     0.15649   0.64519   0.79031   0.00000  Uiso   1.00
C850   C     0.17684   0.35481   0.87636   0.00000  Uiso   1.00
C851   C     0.15935   0.62391   0.83312   0.00000  Uiso   1.00
C852   C     0.17398   0.37609   0.83355   0.00000  Uiso   1.00
C853   C     0.13238   0.47531   0.68720   0.00000  Uiso   1.00
C854   C     0.20096   0.52469   0.97946   0.00000  Uiso   1.00
C855   C     0.13250   0.47499   0.97109   0.00000  Uiso   1.00
C856   C     0.20084   0.52501   0.69558   0.00000  Uiso   1.00
Cu857  Cu    0.16667   0.50001   0.88022   0.00000  Uiso   1.00
Cu858  Cu    0.16667   0.49999   0.78645   0.00000  Uiso   1.00
H859   H     0.32610   0.49788   0.77898   0.00000  Uiso   1.00
H860   H     0.00723   0.50212   0.88769   0.00000  Uiso   1.00
N861   N     0.16668   0.50001   0.95069   0.00000  Uiso   1.00
N862   N     0.16665   0.49999   0.71597   0.00000  Uiso   1.00
O863   O     0.16666   0.43989   0.87291   0.00000  Uiso   1.00
O864   O     0.16667   0.56011   0.79375   0.00000  Uiso   1.00
O865   O     0.16666   0.43988   0.79372   0.00000  Uiso   1.00
O866   O     0.16667   0.56012   0.87294   0.00000  Uiso   1.00
O867   O     0.09161   0.50000   0.86379   0.00000  Uiso   1.00
O868   O     0.24172   0.50000   0.80288   0.00000  Uiso   1.00
O869   O     0.09161   0.49999   0.78460   0.00000  Uiso   1.00
O870   O     0.24172   0.50001   0.88207   0.00000  Uiso   1.00
Br871  Br    0.18490   0.37710   0.73247   0.00000  Uiso   1.00
Br872  Br    0.14844   0.62289   0.93420   0.00000  Uiso   1.00
Br873  Br    0.12810   0.61982   0.73061   0.00000  Uiso   1.00
Br874  Br    0.20523   0.38018   0.93605   0.00000  Uiso   1.00
C875   C     0.09547   0.44923   0.70716   0.00000  Uiso   1.00
N876   N     0.06568   0.42814   0.72279   0.00000  Uiso   1.00
C877   C     0.23787   0.55077   0.95950   0.00000  Uiso   1.00
N878   N     0.26766   0.57186   0.94387   0.00000  Uiso   1.00
Br879  Br    0.08407   0.43768   0.93395   0.00000  Uiso   1.00
Br880  Br    0.24926   0.56233   0.73272   0.00000  Uiso   1.00
C881   C     0.50399   0.42090   0.83359   0.00000  Uiso   1.00
C882   C     0.49601   0.57910   0.83308   0.00000  Uiso   1.00
C883   C     0.40133   0.49983   0.82131   0.00000  Uiso   1.00
C884   C     0.59867   0.50017   0.84536   0.00000  Uiso   1.00
C885   C     0.34602   0.49939   0.81472   0.00000  Uiso   1.00
C886   C     0.65398   0.50061   0.85195   0.00000  Uiso   1.00
C887   C     0.50163   0.35376   0.79066   0.00000  Uiso   1.00
C888   C     0.49837   0.64624   0.87600   0.00000  Uiso   1.00
C889   C     0.48982   0.64519   0.79031   0.00000  Uiso   1.00
C890   C     0.51017   0.35481   0.87636   0.00000  Uiso   1.00
C891   C     0.49268   0.62391   0.83312   0.00000  Uiso   1.00
C892   C     0.50731   0.37609   0.83355   0.00000  Uiso   1.00
C893   C     0.46571   0.47531   0.68720   0.00000  Uiso   1.00
C894   C     0.53429   0.52469   0.97946   0.00000  Uiso   1.00
C895   C     0.46583   0.47499   0.97109   0.00000  Uiso   1.00
C896   C     0.53417   0.52501   0.69558   0.00000  Uiso   1.00
Cu897  Cu    0.50000   0.50001   0.88022   0.00000  Uiso   1.00
Cu898  Cu    0.50000   0.49999   0.78645   0.00000  Uiso   1.00
H899   H     0.65944   0.49788   0.77898   0.00000  Uiso   1.00
H900   H     0.34056   0.50212   0.88769   0.00000  Uiso   1.00
N901   N     0.50001   0.50001   0.95069   0.00000  Uiso   1.00
N902   N     0.49999   0.49999   0.71597   0.00000  Uiso   1.00
O903   O     0.50000   0.43989   0.87291   0.00000  Uiso   1.00
O904   O     0.50000   0.56011   0.79375   0.00000  Uiso   1.00
O905   O     0.50000   0.43988   0.79372   0.00000  Uiso   1.00
O906   O     0.50000   0.56012   0.87294   0.00000  Uiso   1.00
O907   O     0.42495   0.50000   0.86379   0.00000  Uiso   1.00
O908   O     0.57505   0.50000   0.80288   0.00000  Uiso   1.00
O909   O     0.42494   0.49999   0.78460   0.00000  Uiso   1.00
O910   O     0.57506   0.50001   0.88207   0.00000  Uiso   1.00
Br911  Br    0.51823   0.37710   0.73247   0.00000  Uiso   1.00
Br912  Br    0.48178   0.62289   0.93420   0.00000  Uiso   1.00
Br913  Br    0.46143   0.61982   0.73061   0.00000  Uiso   1.00
Br914  Br    0.53856   0.38018   0.93605   0.00000  Uiso   1.00
C915   C     0.42880   0.44923   0.70716   0.00000  Uiso   1.00
N916   N     0.39901   0.42814   0.72279   0.00000  Uiso   1.00
C917   C     0.57120   0.55077   0.95950   0.00000  Uiso   1.00
N918   N     0.60099   0.57186   0.94387   0.00000  Uiso   1.00
Br919  Br    0.41740   0.43768   0.93395   0.00000  Uiso   1.00
Br920  Br    0.58259   0.56233   0.73272   0.00000  Uiso   1.00
C921   C     0.83732   0.42090   0.83359   0.00000  Uiso   1.00
C922   C     0.82934   0.57910   0.83308   0.00000  Uiso   1.00
C923   C     0.73466   0.49983   0.82131   0.00000  Uiso   1.00
C924   C     0.93201   0.50017   0.84536   0.00000  Uiso   1.00
C925   C     0.67935   0.49939   0.81472   0.00000  Uiso   1.00
C926   C     0.98732   0.50061   0.85195   0.00000  Uiso   1.00
C927   C     0.83496   0.35376   0.79066   0.00000  Uiso   1.00
C928   C     0.83170   0.64624   0.87600   0.00000  Uiso   1.00
C929   C     0.82316   0.64519   0.79031   0.00000  Uiso   1.00
C930   C     0.84351   0.35481   0.87636   0.00000  Uiso   1.00
C931   C     0.82602   0.62391   0.83312   0.00000  Uiso   1.00
C932   C     0.84065   0.37609   0.83355   0.00000  Uiso   1.00
C933   C     0.79904   0.47531   0.68720   0.00000  Uiso   1.00
C934   C     0.86762   0.52469   0.97946   0.00000  Uiso   1.00
C935   C     0.79916   0.47499   0.97109   0.00000  Uiso   1.00
C936   C     0.86750   0.52501   0.69558   0.00000  Uiso   1.00
Cu937  Cu    0.83333   0.50001   0.88022   0.00000  Uiso   1.00
Cu938  Cu    0.83333   0.49999   0.78645   0.00000  Uiso   1.00
H939   H     0.99277   0.49788   0.77898   0.00000  Uiso   1.00
H940   H     0.67390   0.50212   0.88769   0.00000  Uiso   1.00
N941   N     0.83335   0.50001   0.95069   0.00000  Uiso   1.00
N942   N     0.83332   0.49999   0.71597   0.00000  Uiso   1.00
O943   O     0.83333   0.43989   0.87291   0.00000  Uiso   1.00
O944   O     0.83334   0.56011   0.79375   0.00000  Uiso   1.00
O945   O     0.83333   0.43988   0.79372   0.00000  Uiso   1.00
O946   O     0.83334   0.56012   0.87294   0.00000  Uiso   1.00
O947   O     0.75828   0.50000   0.86379   0.00000  Uiso   1.00
O948   O     0.90839   0.50000   0.80288   0.00000  Uiso   1.00
O949   O     0.75828   0.49999   0.78460   0.00000  Uiso   1.00
O950   O     0.90839   0.50001   0.88207   0.00000  Uiso   1.00
Br951  Br    0.85156   0.37710   0.73247   0.00000  Uiso   1.00
Br952  Br    0.81511   0.62289   0.93420   0.00000  Uiso   1.00
Br953  Br    0.79476   0.61982   0.73061   0.00000  Uiso   1.00
Br954  Br    0.87189   0.38018   0.93605   0.00000  Uiso   1.00
C955   C     0.76214   0.44923   0.70716   0.00000  Uiso   1.00
N956   N     0.73235   0.42814   0.72279   0.00000  Uiso   1.00
C957   C     0.90453   0.55077   0.95950   0.00000  Uiso   1.00
N958   N     0.93432   0.57186   0.94387   0.00000  Uiso   1.00
Br959  Br    0.75073   0.43768   0.93395   0.00000  Uiso   1.00
Br960  Br    0.91593   0.56233   0.73272   0.00000  Uiso   1.00
C961   C     0.17065   0.75424   0.83359   0.00000  Uiso   1.00
C962   C     0.16268   0.91243   0.83308   0.00000  Uiso   1.00
C963   C     0.06799   0.83316   0.82131   0.00000  Uiso   1.00
C964   C     0.26534   0.83351   0.84536   0.00000  Uiso   1.00
C965   C     0.01268   0.83272   0.81472   0.00000  Uiso   1.00
C966   C     0.32065   0.83395   0.85195   0.00000  Uiso   1.00
C967   C     0.16829   0.68710   0.79066   0.00000  Uiso   1.00
C968   C     0.16504   0.97957   0.87600   0.00000  Uiso   1.00
C969   C     0.15649   0.97852   0.79031   0.00000  Uiso   1.00
C970   C     0.17684   0.68815   0.87636   0.00000  Uiso   1.00
C971   C     0.15935   0.95724   0.83312   0.00000  Uiso   1.00
C972   C     0.17398   0.70942   0.83355   0.00000  Uiso   1.00
C973   C     0.13238   0.80864   0.68720   0.00000  Uiso   1.00
C974   C     0.20096   0.85803   0.97946   0.00000  Uiso   1.00
C975   C     0.13250   0.80833   0.97109   0.00000  Uiso   1.00
C976   C     0.20084   0.85834   0.69558   0.00000  Uiso   1.00
Cu977  Cu    0.16667   0.83334   0.88022   0.00000  Uiso   1.00
Cu978  Cu    0.16667   0.83333   0.78645   0.00000  Uiso   1.00
H979   H     0.32610   0.83122   0.77898   0.00000  Uiso   1.00
H980   H     0.00723   0.83545   0.88769   0.00000  Uiso   1.00
N981   N     0.16668   0.83334   0.95069   0.00000  Uiso   1.00
N982   N     0.16665   0.83332   0.71597   0.00000  Uiso   1.00
O983   O     0.16666   0.77322   0.87291   0.00000  Uiso   1.00
O984   O     0.16667   0.89345   0.79375   0.00000  Uiso   1.00
O985   O     0.16666   0.77321   0.79372   0.00000  Uiso   1.00
O986   O     0.16667   0.89346   0.87294   0.00000  Uiso   1.00
O987   O     0.09161   0.83334   0.86379   0.00000  Uiso   1.00
O988   O     0.24172   0.83333   0.80288   0.00000  Uiso   1.00
O989   O     0.09161   0.83333   0.78460   0.00000  Uiso   1.00
O990   O     0.24172   0.83334   0.88207   0.00000  Uiso   1.00
Br991  Br    0.18490   0.71044   0.73247   0.00000  Uiso   1.00
Br992  Br    0.14844   0.95623   0.93420   0.00000  Uiso   1.00
Br993  Br    0.12810   0.95316   0.73061   0.00000  Uiso   1.00
Br994  Br    0.20523   0.71351   0.93605   0.00000  Uiso   1.00
C995   C     0.09547   0.78256   0.70716   0.00000  Uiso   1.00
N996   N     0.06568   0.76147   0.72279   0.00000  Uiso   1.00
C997   C     0.23787   0.88411   0.95950   0.00000  Uiso   1.00
N998   N     0.26766   0.90519   0.94387   0.00000  Uiso   1.00
Br999  Br    0.08407   0.77101   0.93395   0.00000  Uiso   1.00
Br1000 Br    0.24926   0.89566   0.73272   0.00000  Uiso   1.00
C1001  C     0.50399   0.75424   0.83359   0.00000  Uiso   1.00
C1002  C     0.49601   0.91243   0.83308   0.00000  Uiso   1.00
C1003  C     0.40133   0.83316   0.82131   0.00000  Uiso   1.00
C1004  C     0.59867   0.83351   0.84536   0.00000  Uiso   1.00
C1005  C     0.34602   0.83272   0.81472   0.00000  Uiso   1.00
C1006  C     0.65398   0.83395   0.85195   0.00000  Uiso   1.00
C1007  C     0.50163   0.68710   0.79066   0.00000  Uiso   1.00
C1008  C     0.49837   0.97957   0.87600   0.00000  Uiso   1.00
C1009  C     0.48982   0.97852   0.79031   0.00000  Uiso   1.00
C1010  C     0.51017   0.68815   0.87636   0.00000  Uiso   1.00
C1011  C     0.49268   0.95724   0.83312   0.00000  Uiso   1.00
C1012  C     0.50731   0.70942   0.83355   0.00000  Uiso   1.00
C1013  C     0.46571   0.80864   0.68720   0.00000  Uiso   1.00
C1014  C     0.53429   0.85803   0.97946   0.00000  Uiso   1.00
C1015  C     0.46583   0.80833   0.97109   0.00000  Uiso   1.00
C1016  C     0.53417   0.85834   0.69558   0.00000  Uiso   1.00
Cu1017 Cu    0.50000   0.83334   0.88022   0.00000  Uiso   1.00
Cu1018 Cu    0.50000   0.83333   0.78645   0.00000  Uiso   1.00
H1019  H     0.65944   0.83122   0.77898   0.00000  Uiso   1.00
H1020  H     0.34056   0.83545   0.88769   0.00000  Uiso   1.00
N1021  N     0.50001   0.83334   0.95069   0.00000  Uiso   1.00
N1022  N     0.49999   0.83332   0.71597   0.00000  Uiso   1.00
O1023  O     0.50000   0.77322   0.87291   0.00000  Uiso   1.00
O1024  O     0.50000   0.89345   0.79375   0.00000  Uiso   1.00
O1025  O     0.50000   0.77321   0.79372   0.00000  Uiso   1.00
O1026  O     0.50000   0.89346   0.87294   0.00000  Uiso   1.00
O1027  O     0.42495   0.83334   0.86379   0.00000  Uiso   1.00
O1028  O     0.57505   0.83333   0.80288   0.00000  Uiso   1.00
O1029  O     0.42494   0.83333   0.78460   0.00000  Uiso   1.00
O1030  O     0.57506   0.83334   0.88207   0.00000  Uiso   1.00
Br1031 Br    0.51823   0.71044   0.73247   0.00000  Uiso   1.00
Br1032 Br    0.48178   0.95623   0.93420   0.00000  Uiso   1.00
Br1033 Br    0.46143   0.95316   0.73061   0.00000  Uiso   1.00
Br1034 Br    0.53856   0.71351   0.93605   0.00000  Uiso   1.00
C1035  C     0.42880   0.78256   0.70716   0.00000  Uiso   1.00
N1036  N     0.39901   0.76147   0.72279   0.00000  Uiso   1.00
C1037  C     0.57120   0.88411   0.95950   0.00000  Uiso   1.00
N1038  N     0.60099   0.90519   0.94387   0.00000  Uiso   1.00
Br1039 Br    0.41740   0.77101   0.93395   0.00000  Uiso   1.00
Br1040 Br    0.58259   0.89566   0.73272   0.00000  Uiso   1.00
C1041  C     0.83732   0.75424   0.83359   0.00000  Uiso   1.00
C1042  C     0.82934   0.91243   0.83308   0.00000  Uiso   1.00
C1043  C     0.73466   0.83316   0.82131   0.00000  Uiso   1.00
C1044  C     0.93201   0.83351   0.84536   0.00000  Uiso   1.00
C1045  C     0.67935   0.83272   0.81472   0.00000  Uiso   1.00
C1046  C     0.98732   0.83395   0.85195   0.00000  Uiso   1.00
C1047  C     0.83496   0.68710   0.79066   0.00000  Uiso   1.00
C1048  C     0.83170   0.97957   0.87600   0.00000  Uiso   1.00
C1049  C     0.82316   0.97852   0.79031   0.00000  Uiso   1.00
C1050  C     0.84351   0.68815   0.87636   0.00000  Uiso   1.00
C1051  C     0.82602   0.95724   0.83312   0.00000  Uiso   1.00
C1052  C     0.84065   0.70942   0.83355   0.00000  Uiso   1.00
C1053  C     0.79904   0.80864   0.68720   0.00000  Uiso   1.00
C1054  C     0.86762   0.85803   0.97946   0.00000  Uiso   1.00
C1055  C     0.79916   0.80833   0.97109   0.00000  Uiso   1.00
C1056  C     0.86750   0.85834   0.69558   0.00000  Uiso   1.00
Cu1057 Cu    0.83333   0.83334   0.88022   0.00000  Uiso   1.00
Cu1058 Cu    0.83333   0.83333   0.78645   0.00000  Uiso   1.00
H1059  H     0.99277   0.83122   0.77898   0.00000  Uiso   1.00
H1060  H     0.67390   0.83545   0.88769   0.00000  Uiso   1.00
N1061  N     0.83335   0.83334   0.95069   0.00000  Uiso   1.00
N1062  N     0.83332   0.83332   0.71597   0.00000  Uiso   1.00
O1063  O     0.83333   0.77322   0.87291   0.00000  Uiso   1.00
O1064  O     0.83334   0.89345   0.79375   0.00000  Uiso   1.00
O1065  O     0.83333   0.77321   0.79372   0.00000  Uiso   1.00
O1066  O     0.83334   0.89346   0.87294   0.00000  Uiso   1.00
O1067  O     0.75828   0.83334   0.86379   0.00000  Uiso   1.00
O1068  O     0.90839   0.83333   0.80288   0.00000  Uiso   1.00
O1069  O     0.75828   0.83333   0.78460   0.00000  Uiso   1.00
O1070  O     0.90839   0.83334   0.88207   0.00000  Uiso   1.00
Br1071 Br    0.85156   0.71044   0.73247   0.00000  Uiso   1.00
Br1072 Br    0.81511   0.95623   0.93420   0.00000  Uiso   1.00
Br1073 Br    0.79476   0.95316   0.73061   0.00000  Uiso   1.00
Br1074 Br    0.87189   0.71351   0.93605   0.00000  Uiso   1.00
C1075  C     0.76214   0.78256   0.70716   0.00000  Uiso   1.00
N1076  N     0.73235   0.76147   0.72279   0.00000  Uiso   1.00
C1077  C     0.90453   0.88411   0.95950   0.00000  Uiso   1.00
N1078  N     0.93432   0.90519   0.94387   0.00000  Uiso   1.00
Br1079 Br    0.75073   0.77101   0.93395   0.00000  Uiso   1.00
Br1080 Br    0.91593   0.89566   0.73272   0.00000  Uiso   1.00
loop_
_geom_bond_atom_site_label_1
_geom_bond_atom_site_label_2
_geom_bond_distance
_geom_bond_site_symmetry_2
_ccdc_geom_bond_type
C1     O25     1.301   .     A
C1     O23     1.304   .     A
C1     C12     1.472   .     S
C2     O26     1.301   .     A
C2     O24     1.304   .     A
C2     C11     1.472   .     S
C3     O27     1.292   .     A
C3     O29     1.293   .     A
C3     C5      1.434   .     S
C4     O30     1.293   .     A
C4     C6      1.434   .     S
C4     O28     1.292   .     A
C5     C86     1.335   1_455 S
C5     H99     1.087   1_455 S
C6     C45     1.335   .     S
C6     H60     1.087   .     S
C7     C12     1.416   .     A
C7     Br31    1.938   .     S
C7     C249    1.392   1_545 S
C8     C11     1.415   .     A
C8     Br32    1.938   .     S
C8     C130    1.392   .     S
C9     Br33    1.941   .     S
C9     C11     1.412   .     A
C9     C127    1.392   .     S
C10    C12     1.412   .     A
C10    Br34    1.941   .     S
C10    C248    1.392   1_545 S
C13    C35     1.442   .     S
C13    N22     1.368   .     A
C13    C735    1.422   1_554 S
C14    C37     1.442   .     S
C14    N21     1.368   .     A
C14    C376    1.422   .     S
C15    Br39    1.930   .     S
C15    N21     1.379   .     A
C15    C373    1.422   .     S
C16    Br40    1.930   .     S
C16    N22     1.379   .     A
C16    C734    1.422   1_554 S
Cu17   Cu18    2.695   .     S
Cu17   O30     1.958   .     S
Cu17   O23     1.976   .     S
Cu17   O26     1.979   .     S
Cu17   N21     2.025   .     S
Cu17   O27     1.957   .     S
Cu18   O29     1.958   .     S
Cu18   O25     1.979   .     S
Cu18   O24     1.976   .     S
Cu18   O28     1.957   .     S
Cu18   N22     2.025   .     S
H19    C45     1.087   .     S
H20    C86     1.087   1_455 S
C35    N36     1.158   .     T
C37    N38     1.158   .     T
C41    O65     1.301   .     A
C41    O63     1.304   .     A
C41    C52     1.472   .     S
C42    O66     1.301   .     A
C42    O64     1.304   .     A
C42    C51     1.472   .     S
C43    O67     1.292   .     A
C43    O69     1.293   .     A
C43    C45     1.434   .     S
C44    O70     1.293   .     A
C44    C46     1.434   .     S
C44    O68     1.292   .     A
C46    C85     1.335   .     S
C46    H100    1.087   .     S
C47    C52     1.416   .     A
C47    Br71    1.938   .     S
C47    C289    1.392   1_545 S
C48    C51     1.415   .     A
C48    Br72    1.938   .     S
C48    C170    1.392   .     S
C49    Br73    1.941   .     S
C49    C51     1.412   .     A
C49    C167    1.392   .     S
C50    C52     1.412   .     A
C50    Br74    1.941   .     S
C50    C288    1.392   1_545 S
C53    C75     1.442   .     S
C53    N62     1.368   .     A
C53    C775    1.422   1_554 S
C54    C77     1.442   .     S
C54    N61     1.368   .     A
C54    C416    1.422   .     S
C55    Br79    1.930   .     S
C55    N61     1.379   .     A
C55    C413    1.422   .     S
C56    Br80    1.930   .     S
C56    N62     1.379   .     A
C56    C774    1.422   1_554 S
Cu57   Cu58    2.695   .     S
Cu57   O70     1.958   .     S
Cu57   O63     1.976   .     S
Cu57   O66     1.979   .     S
Cu57   N61     2.025   .     S
Cu57   O67     1.957   .     S
Cu58   O69     1.958   .     S
Cu58   O65     1.979   .     S
Cu58   O64     1.976   .     S
Cu58   O68     1.957   .     S
Cu58   N62     2.025   .     S
H59    C85     1.087   .     S
C75    N76     1.158   .     T
C77    N78     1.158   .     T
C81    O105    1.301   .     A
C81    O103    1.304   .     A
C81    C92     1.472   .     S
C82    O106    1.301   .     A
C82    O104    1.304   .     A
C82    C91     1.472   .     S
C83    O107    1.292   .     A
C83    O109    1.293   .     A
C83    C85     1.434   .     S
C84    O110    1.293   .     A
C84    C86     1.434   .     S
C84    O108    1.292   .     A
C86    C5      1.335   1_655 S
C86    H20     1.087   1_655 S
C87    C92     1.416   .     A
C87    Br111   1.938   .     S
C87    C329    1.392   1_545 S
C88    C91     1.415   .     A
C88    Br112   1.938   .     S
C88    C210    1.392   .     S
C89    Br113   1.941   .     S
C89    C91     1.412   .     A
C89    C207    1.392   .     S
C90    C92     1.412   .     A
C90    Br114   1.941   .     S
C90    C328    1.392   1_545 S
C93    C115    1.442   .     S
C93    N102    1.368   .     A
C93    C815    1.422   1_554 S
C94    C117    1.442   .     S
C94    N101    1.368   .     A
C94    C456    1.422   .     S
C95    Br119   1.930   .     S
C95    N101    1.379   .     A
C95    C453    1.422   .     S
C96    Br120   1.930   .     S
C96    N102    1.379   .     A
C96    C814    1.422   1_554 S
Cu97   Cu98    2.695   .     S
Cu97   O110    1.958   .     S
Cu97   O103    1.976   .     S
Cu97   O106    1.979   .     S
Cu97   N101    2.025   .     S
Cu97   O107    1.957   .     S
Cu98   O109    1.958   .     S
Cu98   O105    1.979   .     S
Cu98   O104    1.976   .     S
Cu98   O108    1.957   .     S
Cu98   N102    2.025   .     S
H99    C5      1.087   1_655 S
C115   N116    1.158   .     T
C117   N118    1.158   .     T
C121   O145    1.301   .     A
C121   O143    1.304   .     A
C121   C132    1.472   .     S
C122   O146    1.301   .     A
C122   O144    1.304   .     A
C122   C131    1.472   .     S
C123   O147    1.292   .     A
C123   O149    1.293   .     A
C123   C125    1.434   .     S
C124   O150    1.293   .     A
C124   C126    1.434   .     S
C124   O148    1.292   .     A
C125   C206    1.335   1_455 S
C125   H219    1.087   1_455 S
C126   C165    1.335   .     S
C126   H180    1.087   .     S
C127   C132    1.416   .     A
C127   Br151   1.938   .     S
C128   C131    1.415   .     A
C128   Br152   1.938   .     S
C128   C250    1.392   .     S
C129   Br153   1.941   .     S
C129   C131    1.412   .     A
C129   C247    1.392   .     S
C130   C132    1.412   .     A
C130   Br154   1.941   .     S
C133   C155    1.442   .     S
C133   N142    1.368   .     A
C133   C855    1.422   1_554 S
C134   C157    1.442   .     S
C134   N141    1.368   .     A
C134   C496    1.422   .     S
C135   Br159   1.930   .     S
C135   N141    1.379   .     A
C135   C493    1.422   .     S
C136   Br160   1.930   .     S
C136   N142    1.379   .     A
C136   C854    1.422   1_554 S
Cu137  Cu138   2.695   .     S
Cu137  O150    1.958   .     S
Cu137  O143    1.976   .     S
Cu137  O146    1.979   .     S
Cu137  N141    2.025   .     S
Cu137  O147    1.957   .     S
Cu138  O149    1.958   .     S
Cu138  O145    1.979   .     S
Cu138  O144    1.976   .     S
Cu138  O148    1.957   .     S
Cu138  N142    2.025   .     S
H139   C165    1.087   .     S
H140   C206    1.087   1_455 S
C155   N156    1.158   .     T
C157   N158    1.158   .     T
C161   O185    1.301   .     A
C161   O183    1.304   .     A
C161   C172    1.472   .     S
C162   O186    1.301   .     A
C162   O184    1.304   .     A
C162   C171    1.472   .     S
C163   O187    1.292   .     A
C163   O189    1.293   .     A
C163   C165    1.434   .     S
C164   O190    1.293   .     A
C164   C166    1.434   .     S
C164   O188    1.292   .     A
C166   C205    1.335   .     S
C166   H220    1.087   .     S
C167   C172    1.416   .     A
C167   Br191   1.938   .     S
C168   C171    1.415   .     A
C168   Br192   1.938   .     S
C168   C290    1.392   .     S
C169   Br193   1.941   .     S
C169   C171    1.412   .     A
C169   C287    1.392   .     S
C170   C172    1.412   .     A
C170   Br194   1.941   .     S
C173   C195    1.442   .     S
C173   N182    1.368   .     A
C173   C895    1.422   1_554 S
C174   C197    1.442   .     S
C174   N181    1.368   .     A
C174   C536    1.422   .     S
C175   Br199   1.930   .     S
C175   N181    1.379   .     A
C175   C533    1.422   .     S
C176   Br200   1.930   .     S
C176   N182    1.379   .     A
C176   C894    1.422   1_554 S
Cu177  Cu178   2.695   .     S
Cu177  O190    1.958   .     S
Cu177  O183    1.976   .     S
Cu177  O186    1.979   .     S
Cu177  N181    2.025   .     S
Cu177  O187    1.957   .     S
Cu178  O189    1.958   .     S
Cu178  O185    1.979   .     S
Cu178  O184    1.976   .     S
Cu178  O188    1.957   .     S
Cu178  N182    2.025   .     S
H179   C205    1.087   .     S
C195   N196    1.158   .     T
C197   N198    1.158   .     T
C201   O225    1.301   .     A
C201   O223    1.304   .     A
C201   C212    1.472   .     S
C202   O226    1.301   .     A
C202   O224    1.304   .     A
C202   C211    1.472   .     S
C203   O227    1.292   .     A
C203   O229    1.293   .     A
C203   C205    1.434   .     S
C204   O230    1.293   .     A
C204   C206    1.434   .     S
C204   O228    1.292   .     A
C206   C125    1.335   1_655 S
C206   H140    1.087   1_655 S
C207   C212    1.416   .     A
C207   Br231   1.938   .     S
C208   C211    1.415   .     A
C208   Br232   1.938   .     S
C208   C330    1.392   .     S
C209   Br233   1.941   .     S
C209   C211    1.412   .     A
C209   C327    1.392   .     S
C210   C212    1.412   .     A
C210   Br234   1.941   .     S
C213   C235    1.442   .     S
C213   N222    1.368   .     A
C213   C935    1.422   1_554 S
C214   C237    1.442   .     S
C214   N221    1.368   .     A
C214   C576    1.422   .     S
C215   Br239   1.930   .     S
C215   N221    1.379   .     A
C215   C573    1.422   .     S
C216   Br240   1.930   .     S
C216   N222    1.379   .     A
C216   C934    1.422   1_554 S
Cu217  Cu218   2.695   .     S
Cu217  O230    1.958   .     S
Cu217  O223    1.976   .     S
Cu217  O226    1.979   .     S
Cu217  N221    2.025   .     S
Cu217  O227    1.957   .     S
Cu218  O229    1.958   .     S
Cu218  O225    1.979   .     S
Cu218  O224    1.976   .     S
Cu218  O228    1.957   .     S
Cu218  N222    2.025   .     S
H219   C125    1.087   1_655 S
C235   N236    1.158   .     T
C237   N238    1.158   .     T
C241   O265    1.301   .     A
C241   O263    1.304   .     A
C241   C252    1.472   .     S
C242   O266    1.301   .     A
C242   O264    1.304   .     A
C242   C251    1.472   .     S
C243   O267    1.292   .     A
C243   O269    1.293   .     A
C243   C245    1.434   .     S
C244   O270    1.293   .     A
C244   C246    1.434   .     S
C244   O268    1.292   .     A
C245   C326    1.335   1_455 S
C245   H339    1.087   1_455 S
C246   C285    1.335   .     S
C246   H300    1.087   .     S
C247   C252    1.416   .     A
C247   Br271   1.938   .     S
C248   C251    1.415   .     A
C248   Br272   1.938   .     S
C248   C10     1.392   1_565 S
C249   Br273   1.941   .     S
C249   C251    1.412   .     A
C249   C7      1.392   1_565 S
C250   C252    1.412   .     A
C250   Br274   1.941   .     S
C253   C275    1.442   .     S
C253   N262    1.368   .     A
C253   C975    1.422   1_554 S
C254   C277    1.442   .     S
C254   N261    1.368   .     A
C254   C616    1.422   .     S
C255   Br279   1.930   .     S
C255   N261    1.379   .     A
C255   C613    1.422   .     S
C256   Br280   1.930   .     S
C256   N262    1.379   .     A
C256   C974    1.422   1_554 S
Cu257  Cu258   2.695   .     S
Cu257  O270    1.958   .     S
Cu257  O263    1.976   .     S
Cu257  O266    1.979   .     S
Cu257  N261    2.025   .     S
Cu257  O267    1.957   .     S
Cu258  O269    1.958   .     S
Cu258  O265    1.979   .     S
Cu258  O264    1.976   .     S
Cu258  O268    1.957   .     S
Cu258  N262    2.025   .     S
H259   C285    1.087   .     S
H260   C326    1.087   1_455 S
C275   N276    1.158   .     T
C277   N278    1.158   .     T
C281   O305    1.301   .     A
C281   O303    1.304   .     A
C281   C292    1.472   .     S
C282   O306    1.301   .     A
C282   O304    1.304   .     A
C282   C291    1.472   .     S
C283   O307    1.292   .     A
C283   O309    1.293   .     A
C283   C285    1.434   .     S
C284   O310    1.293   .     A
C284   C286    1.434   .     S
C284   O308    1.292   .     A
C286   C325    1.335   .     S
C286   H340    1.087   .     S
C287   C292    1.416   .     A
C287   Br311   1.938   .     S
C288   C291    1.415   .     A
C288   Br312   1.938   .     S
C288   C50     1.392   1_565 S
C289   Br313   1.941   .     S
C289   C291    1.412   .     A
C289   C47     1.392   1_565 S
C290   C292    1.412   .     A
C290   Br314   1.941   .     S
C293   C315    1.442   .     S
C293   N302    1.368   .     A
C293   C1015   1.422   1_554 S
C294   C317    1.442   .     S
C294   N301    1.368   .     A
C294   C656    1.422   .     S
C295   Br319   1.930   .     S
C295   N301    1.379   .     A
C295   C653    1.422   .     S
C296   Br320   1.930   .     S
C296   N302    1.379   .     A
C296   C1014   1.422   1_554 S
Cu297  Cu298   2.695   .     S
Cu297  O310    1.958   .     S
Cu297  O303    1.976   .     S
Cu297  O306    1.979   .     S
Cu297  N301    2.025   .     S
Cu297  O307    1.957   .     S
Cu298  O309    1.958   .     S
Cu298  O305    1.979   .     S
Cu298  O304    1.976   .     S
Cu298  O308    1.957   .     S
Cu298  N302    2.025   .     S
H299   C325    1.087   .     S
C315   N316    1.158   .     T
C317   N318    1.158   .     T
C321   O345    1.301   .     A
C321   O343    1.304   .     A
C321   C332    1.472   .     S
C322   O346    1.301   .     A
C322   O344    1.304   .     A
C322   C331    1.472   .     S
C323   O347    1.292   .     A
C323   O349    1.293   .     A
C323   C325    1.434   .     S
C324   O350    1.293   .     A
C324   C326    1.434   .     S
C324   O348    1.292   .     A
C326   C245    1.335   1_655 S
C326   H260    1.087   1_655 S
C327   C332    1.416   .     A
C327   Br351   1.938   .     S
C328   C331    1.415   .     A
C328   Br352   1.938   .     S
C328   C90     1.392   1_565 S
C329   Br353   1.941   .     S
C329   C331    1.412   .     A
C329   C87     1.392   1_565 S
C330   C332    1.412   .     A
C330   Br354   1.941   .     S
C333   C355    1.442   .     S
C333   N342    1.368   .     A
C333   C1055   1.422   1_554 S
C334   C357    1.442   .     S
C334   N341    1.368   .     A
C334   C696    1.422   .     S
C335   Br359   1.930   .     S
C335   N341    1.379   .     A
C335   C693    1.422   .     S
C336   Br360   1.930   .     S
C336   N342    1.379   .     A
C336   C1054   1.422   1_554 S
Cu337  Cu338   2.695   .     S
Cu337  O350    1.958   .     S
Cu337  O343    1.976   .     S
Cu337  O346    1.979   .     S
Cu337  N341    2.025   .     S
Cu337  O347    1.957   .     S
Cu338  O349    1.958   .     S
Cu338  O345    1.979   .     S
Cu338  O344    1.976   .     S
Cu338  O348    1.957   .     S
Cu338  N342    2.025   .     S
H339   C245    1.087   1_655 S
C355   N356    1.158   .     T
C357   N358    1.158   .     T
C361   O385    1.301   .     A
C361   O383    1.304   .     A
C361   C372    1.472   .     S
C362   O386    1.301   .     A
C362   O384    1.304   .     A
C362   C371    1.472   .     S
C363   O387    1.292   .     A
C363   O389    1.293   .     A
C363   C365    1.434   .     S
C364   O390    1.293   .     A
C364   C366    1.434   .     S
C364   O388    1.292   .     A
C365   C446    1.335   1_455 S
C365   H459    1.087   1_455 S
C366   C405    1.335   .     S
C366   H420    1.087   .     S
C367   C372    1.416   .     A
C367   Br391   1.938   .     S
C367   C609    1.392   1_545 S
C368   C371    1.415   .     A
C368   Br392   1.938   .     S
C368   C490    1.392   .     S
C369   Br393   1.941   .     S
C369   C371    1.412   .     A
C369   C487    1.392   .     S
C370   C372    1.412   .     A
C370   Br394   1.941   .     S
C370   C608    1.392   1_545 S
C373   C395    1.442   .     S
C373   N382    1.368   .     A
C374   C397    1.442   .     S
C374   N381    1.368   .     A
C374   C736    1.422   .     S
C375   Br399   1.930   .     S
C375   N381    1.379   .     A
C375   C733    1.422   .     S
C376   Br400   1.930   .     S
C376   N382    1.379   .     A
Cu377  Cu378   2.695   .     S
Cu377  O390    1.958   .     S
Cu377  O383    1.976   .     S
Cu377  O386    1.979   .     S
Cu377  N381    2.025   .     S
Cu377  O387    1.957   .     S
Cu378  O389    1.958   .     S
Cu378  O385    1.979   .     S
Cu378  O384    1.976   .     S
Cu378  O388    1.957   .     S
Cu378  N382    2.025   .     S
H379   C405    1.087   .     S
H380   C446    1.087   1_455 S
C395   N396    1.158   .     T
C397   N398    1.158   .     T
C401   O425    1.301   .     A
C401   O423    1.304   .     A
C401   C412    1.472   .     S
C402   O426    1.301   .     A
C402   O424    1.304   .     A
C402   C411    1.472   .     S
C403   O427    1.292   .     A
C403   O429    1.293   .     A
C403   C405    1.434   .     S
C404   O430    1.293   .     A
C404   C406    1.434   .     S
C404   O428    1.292   .     A
C406   C445    1.335   .     S
C406   H460    1.087   .     S
C407   C412    1.416   .     A
C407   Br431   1.938   .     S
C407   C649    1.392   1_545 S
C408   C411    1.415   .     A
C408   Br432   1.938   .     S
C408   C530    1.392   .     S
C409   Br433   1.941   .     S
C409   C411    1.412   .     A
C409   C527    1.392   .     S
C410   C412    1.412   .     A
C410   Br434   1.941   .     S
C410   C648    1.392   1_545 S
C413   C435    1.442   .     S
C413   N422    1.368   .     A
C414   C437    1.442   .     S
C414   N421    1.368   .     A
C414   C776    1.422   .     S
C415   Br439   1.930   .     S
C415   N421    1.379   .     A
C415   C773    1.422   .     S
C416   Br440   1.930   .     S
C416   N422    1.379   .     A
Cu417  Cu418   2.695   .     S
Cu417  O430    1.958   .     S
Cu417  O423    1.976   .     S
Cu417  O426    1.979   .     S
Cu417  N421    2.025   .     S
Cu417  O427    1.957   .     S
Cu418  O429    1.958   .     S
Cu418  O425    1.979   .     S
Cu418  O424    1.976   .     S
Cu418  O428    1.957   .     S
Cu418  N422    2.025   .     S
H419   C445    1.087   .     S
C435   N436    1.158   .     T
C437   N438    1.158   .     T
C441   O465    1.301   .     A
C441   O463    1.304   .     A
C441   C452    1.472   .     S
C442   O466    1.301   .     A
C442   O464    1.304   .     A
C442   C451    1.472   .     S
C443   O467    1.292   .     A
C443   O469    1.293   .     A
C443   C445    1.434   .     S
C444   O470    1.293   .     A
C444   C446    1.434   .     S
C444   O468    1.292   .     A
C446   C365    1.335   1_655 S
C446   H380    1.087   1_655 S
C447   C452    1.416   .     A
C447   Br471   1.938   .     S
C447   C689    1.392   1_545 S
C448   C451    1.415   .     A
C448   Br472   1.938   .     S
C448   C570    1.392   .     S
C449   Br473   1.941   .     S
C449   C451    1.412   .     A
C449   C567    1.392   .     S
C450   C452    1.412   .     A
C450   Br474   1.941   .     S
C450   C688    1.392   1_545 S
C453   C475    1.442   .     S
C453   N462    1.368   .     A
C454   C477    1.442   .     S
C454   N461    1.368   .     A
C454   C816    1.422   .     S
C455   Br479   1.930   .     S
C455   N461    1.379   .     A
C455   C813    1.422   .     S
C456   Br480   1.930   .     S
C456   N462    1.379   .     A
Cu457  Cu458   2.695   .     S
Cu457  O470    1.958   .     S
Cu457  O463    1.976   .     S
Cu457  O466    1.979   .     S
Cu457  N461    2.025   .     S
Cu457  O467    1.957   .     S
Cu458  O469    1.958   .     S
Cu458  O465    1.979   .     S
Cu458  O464    1.976   .     S
Cu458  O468    1.957   .     S
Cu458  N462    2.025   .     S
H459   C365    1.087   1_655 S
C475   N476    1.158   .     T
C477   N478    1.158   .     T
C481   O505    1.301   .     A
C481   O503    1.304   .     A
C481   C492    1.472   .     S
C482   O506    1.301   .     A
C482   O504    1.304   .     A
C482   C491    1.472   .     S
C483   O507    1.292   .     A
C483   O509    1.293   .     A
C483   C485    1.434   .     S
C484   O510    1.293   .     A
C484   C486    1.434   .     S
C484   O508    1.292   .     A
C485   C566    1.335   1_455 S
C485   H579    1.087   1_455 S
C486   C525    1.335   .     S
C486   H540    1.087   .     S
C487   C492    1.416   .     A
C487   Br511   1.938   .     S
C488   C491    1.415   .     A
C488   Br512   1.938   .     S
C488   C610    1.392   .     S
C489   Br513   1.941   .     S
C489   C491    1.412   .     A
C489   C607    1.392   .     S
C490   C492    1.412   .     A
C490   Br514   1.941   .     S
C493   C515    1.442   .     S
C493   N502    1.368   .     A
C494   C517    1.442   .     S
C494   N501    1.368   .     A
C494   C856    1.422   .     S
C495   Br519   1.930   .     S
C495   N501    1.379   .     A
C495   C853    1.422   .     S
C496   Br520   1.930   .     S
C496   N502    1.379   .     A
Cu497  Cu498   2.695   .     S
Cu497  O510    1.958   .     S
Cu497  O503    1.976   .     S
Cu497  O506    1.979   .     S
Cu497  N501    2.025   .     S
Cu497  O507    1.957   .     S
Cu498  O509    1.958   .     S
Cu498  O505    1.979   .     S
Cu498  O504    1.976   .     S
Cu498  O508    1.957   .     S
Cu498  N502    2.025   .     S
H499   C525    1.087   .     S
H500   C566    1.087   1_455 S
C515   N516    1.158   .     T
C517   N518    1.158   .     T
C521   O545    1.301   .     A
C521   O543    1.304   .     A
C521   C532    1.472   .     S
C522   O546    1.301   .     A
C522   O544    1.304   .     A
C522   C531    1.472   .     S
C523   O547    1.292   .     A
C523   O549    1.293   .     A
C523   C525    1.434   .     S
C524   O550    1.293   .     A
C524   C526    1.434   .     S
C524   O548    1.292   .     A
C526   C565    1.335   .     S
C526   H580    1.087   .     S
C527   C532    1.416   .     A
C527   Br551   1.938   .     S
C528   C531    1.415   .     A
C528   Br552   1.938   .     S
C528   C650    1.392   .     S
C529   Br553   1.941   .     S
C529   C531    1.412   .     A
C529   C647    1.392   .     S
C530   C532    1.412   .     A
C530   Br554   1.941   .     S
C533   C555    1.442   .     S
C533   N542    1.368   .     A
C534   C557    1.442   .     S
C534   N541    1.368   .     A
C534   C896    1.422   .     S
C535   Br559   1.930   .     S
C535   N541    1.379   .     A
C535   C893    1.422   .     S
C536   Br560   1.930   .     S
C536   N542    1.379   .     A
Cu537  Cu538   2.695   .     S
Cu537  O550    1.958   .     S
Cu537  O543    1.976   .     S
Cu537  O546    1.979   .     S
Cu537  N541    2.025   .     S
Cu537  O547    1.957   .     S
Cu538  O549    1.958   .     S
Cu538  O545    1.979   .     S
Cu538  O544    1.976   .     S
Cu538  O548    1.957   .     S
Cu538  N542    2.025   .     S
H539   C565    1.087   .     S
C555   N556    1.158   .     T
C557   N558    1.158   .     T
C561   O585    1.301   .     A
C561   O583    1.304   .     A
C561   C572    1.472   .     S
C562   O586    1.301   .     A
C562   O584    1.304   .     A
C562   C571    1.472   .     S
C563   O587    1.292   .     A
C563   O589    1.293   .     A
C563   C565    1.434   .     S
C564   O590    1.293   .     A
C564   C566    1.434   .     S
C564   O588    1.292   .     A
C566   C485    1.335   1_655 S
C566   H500    1.087   1_655 S
C567   C572    1.416   .     A
C567   Br591   1.938   .     S
C568   C571    1.415   .     A
C568   Br592   1.938   .     S
C568   C690    1.392   .     S
C569   Br593   1.941   .     S
C569   C571    1.412   .     A
C569   C687    1.392   .     S
C570   C572    1.412   .     A
C570   Br594   1.941   .     S
C573   C595    1.442   .     S
C573   N582    1.368   .     A
C574   C597    1.442   .     S
C574   N581    1.368   .     A
C574   C936    1.422   .     S
C575   Br599   1.930   .     S
C575   N581    1.379   .     A
C575   C933    1.422   .     S
C576   Br600   1.930   .     S
C576   N582    1.379   .     A
Cu577  Cu578   2.695   .     S
Cu577  O590    1.958   .     S
Cu577  O583    1.976   .     S
Cu577  O586    1.979   .     S
Cu577  N581    2.025   .     S
Cu577  O587    1.957   .     S
Cu578  O589    1.958   .     S
Cu578  O585    1.979   .     S
Cu578  O584    1.976   .     S
Cu578  O588    1.957   .     S
Cu578  N582    2.025   .     S
H579   C485    1.087   1_655 S
C595   N596    1.158   .     T
C597   N598    1.158   .     T
C601   O625    1.301   .     A
C601   O623    1.304   .     A
C601   C612    1.472   .     S
C602   O626    1.301   .     A
C602   O624    1.304   .     A
C602   C611    1.472   .     S
C603   O627    1.292   .     A
C603   O629    1.293   .     A
C603   C605    1.434   .     S
C604   O630    1.293   .     A
C604   C606    1.434   .     S
C604   O628    1.292   .     A
C605   C686    1.335   1_455 S
C605   H699    1.087   1_455 S
C606   C645    1.335   .     S
C606   H660    1.087   .     S
C607   C612    1.416   .     A
C607   Br631   1.938   .     S
C608   C611    1.415   .     A
C608   Br632   1.938   .     S
C608   C370    1.392   1_565 S
C609   Br633   1.941   .     S
C609   C611    1.412   .     A
C609   C367    1.392   1_565 S
C610   C612    1.412   .     A
C610   Br634   1.941   .     S
C613   C635    1.442   .     S
C613   N622    1.368   .     A
C614   C637    1.442   .     S
C614   N621    1.368   .     A
C614   C976    1.422   .     S
C615   Br639   1.930   .     S
C615   N621    1.379   .     A
C615   C973    1.422   .     S
C616   Br640   1.930   .     S
C616   N622    1.379   .     A
Cu617  Cu618   2.695   .     S
Cu617  O630    1.958   .     S
Cu617  O623    1.976   .     S
Cu617  O626    1.979   .     S
Cu617  N621    2.025   .     S
Cu617  O627    1.957   .     S
Cu618  O629    1.958   .     S
Cu618  O625    1.979   .     S
Cu618  O624    1.976   .     S
Cu618  O628    1.957   .     S
Cu618  N622    2.025   .     S
H619   C645    1.087   .     S
H620   C686    1.087   1_455 S
C635   N636    1.158   .     T
C637   N638    1.158   .     T
C641   O665    1.301   .     A
C641   O663    1.304   .     A
C641   C652    1.472   .     S
C642   O666    1.301   .     A
C642   O664    1.304   .     A
C642   C651    1.472   .     S
C643   O667    1.292   .     A
C643   O669    1.293   .     A
C643   C645    1.434   .     S
C644   O670    1.293   .     A
C644   C646    1.434   .     S
C644   O668    1.292   .     A
C646   C685    1.335   .     S
C646   H700    1.087   .     S
C647   C652    1.416   .     A
C647   Br671   1.938   .     S
C648   C651    1.415   .     A
C648   Br672   1.938   .     S
C648   C410    1.392   1_565 S
C649   Br673   1.941   .     S
C649   C651    1.412   .     A
C649   C407    1.392   1_565 S
C650   C652    1.412   .     A
C650   Br674   1.941   .     S
C653   C675    1.442   .     S
C653   N662    1.368   .     A
C654   C677    1.442   .     S
C654   N661    1.368   .     A
C654   C1016   1.422   .     S
C655   Br679   1.930   .     S
C655   N661    1.379   .     A
C655   C1013   1.422   .     S
C656   Br680   1.930   .     S
C656   N662    1.379   .     A
Cu657  Cu658   2.695   .     S
Cu657  O670    1.958   .     S
Cu657  O663    1.976   .     S
Cu657  O666    1.979   .     S
Cu657  N661    2.025   .     S
Cu657  O667    1.957   .     S
Cu658  O669    1.958   .     S
Cu658  O665    1.979   .     S
Cu658  O664    1.976   .     S
Cu658  O668    1.957   .     S
Cu658  N662    2.025   .     S
H659   C685    1.087   .     S
C675   N676    1.158   .     T
C677   N678    1.158   .     T
C681   O705    1.301   .     A
C681   O703    1.304   .     A
C681   C692    1.472   .     S
C682   O706    1.301   .     A
C682   O704    1.304   .     A
C682   C691    1.472   .     S
C683   O707    1.292   .     A
C683   O709    1.293   .     A
C683   C685    1.434   .     S
C684   O710    1.293   .     A
C684   C686    1.434   .     S
C684   O708    1.292   .     A
C686   C605    1.335   1_655 S
C686   H620    1.087   1_655 S
C687   C692    1.416   .     A
C687   Br711   1.938   .     S
C688   C691    1.415   .     A
C688   Br712   1.938   .     S
C688   C450    1.392   1_565 S
C689   Br713   1.941   .     S
C689   C691    1.412   .     A
C689   C447    1.392   1_565 S
C690   C692    1.412   .     A
C690   Br714   1.941   .     S
C693   C715    1.442   .     S
C693   N702    1.368   .     A
C694   C717    1.442   .     S
C694   N701    1.368   .     A
C694   C1056   1.422   .     S
C695   Br719   1.930   .     S
C695   N701    1.379   .     A
C695   C1053   1.422   .     S
C696   Br720   1.930   .     S
C696   N702    1.379   .     A
Cu697  Cu698   2.695   .     S
Cu697  O710    1.958   .     S
Cu697  O703    1.976   .     S
Cu697  O706    1.979   .     S
Cu697  N701    2.025   .     S
Cu697  O707    1.957   .     S
Cu698  O709    1.958   .     S
Cu698  O705    1.979   .     S
Cu698  O704    1.976   .     S
Cu698  O708    1.957   .     S
Cu698  N702    2.025   .     S
H699   C605    1.087   1_655 S
C715   N716    1.158   .     T
C717   N718    1.158   .     T
C721   O745    1.301   .     A
C721   O743    1.304   .     A
C721   C732    1.472   .     S
C722   O746    1.301   .     A
C722   O744    1.304   .     A
C722   C731    1.472   .     S
C723   O747    1.292   .     A
C723   O749    1.293   .     A
C723   C725    1.434   .     S
C724   O750    1.293   .     A
C724   C726    1.434   .     S
C724   O748    1.292   .     A
C725   C806    1.335   1_455 S
C725   H819    1.087   1_455 S
C726   C765    1.335   .     S
C726   H780    1.087   .     S
C727   C732    1.416   .     A
C727   Br751   1.938   .     S
C727   C969    1.392   1_545 S
C728   C731    1.415   .     A
C728   Br752   1.938   .     S
C728   C850    1.392   .     S
C729   Br753   1.941   .     S
C729   C731    1.412   .     A
C729   C847    1.392   .     S
C730   C732    1.412   .     A
C730   Br754   1.941   .     S
C730   C968    1.392   1_545 S
C733   C755    1.442   .     S
C733   N742    1.368   .     A
C734   C757    1.442   .     S
C734   N741    1.368   .     A
C734   C16     1.422   1_556 S
C735   Br759   1.930   .     S
C735   N741    1.379   .     A
C735   C13     1.422   1_556 S
C736   Br760   1.930   .     S
C736   N742    1.379   .     A
Cu737  Cu738   2.695   .     S
Cu737  O750    1.958   .     S
Cu737  O743    1.976   .     S
Cu737  O746    1.979   .     S
Cu737  N741    2.025   .     S
Cu737  O747    1.957   .     S
Cu738  O749    1.958   .     S
Cu738  O745    1.979   .     S
Cu738  O744    1.976   .     S
Cu738  O748    1.957   .     S
Cu738  N742    2.025   .     S
H739   C765    1.087   .     S
H740   C806    1.087   1_455 S
C755   N756    1.158   .     T
C757   N758    1.158   .     T
C761   O785    1.301   .     A
C761   O783    1.304   .     A
C761   C772    1.472   .     S
C762   O786    1.301   .     A
C762   O784    1.304   .     A
C762   C771    1.472   .     S
C763   O787    1.292   .     A
C763   O789    1.293   .     A
C763   C765    1.434   .     S
C764   O790    1.293   .     A
C764   C766    1.434   .     S
C764   O788    1.292   .     A
C766   C805    1.335   .     S
C766   H820    1.087   .     S
C767   C772    1.416   .     A
C767   Br791   1.938   .     S
C767   C1009   1.392   1_545 S
C768   C771    1.415   .     A
C768   Br792   1.938   .     S
C768   C890    1.392   .     S
C769   Br793   1.941   .     S
C769   C771    1.412   .     A
C769   C887    1.392   .     S
C770   C772    1.412   .     A
C770   Br794   1.941   .     S
C770   C1008   1.392   1_545 S
C773   C795    1.442   .     S
C773   N782    1.368   .     A
C774   C797    1.442   .     S
C774   N781    1.368   .     A
C774   C56     1.422   1_556 S
C775   Br799   1.930   .     S
C775   N781    1.379   .     A
C775   C53     1.422   1_556 S
C776   Br800   1.930   .     S
C776   N782    1.379   .     A
Cu777  Cu778   2.695   .     S
Cu777  O790    1.958   .     S
Cu777  O783    1.976   .     S
Cu777  O786    1.979   .     S
Cu777  N781    2.025   .     S
Cu777  O787    1.957   .     S
Cu778  O789    1.958   .     S
Cu778  O785    1.979   .     S
Cu778  O784    1.976   .     S
Cu778  O788    1.957   .     S
Cu778  N782    2.025   .     S
H779   C805    1.087   .     S
C795   N796    1.158   .     T
C797   N798    1.158   .     T
C801   O825    1.301   .     A
C801   O823    1.304   .     A
C801   C812    1.472   .     S
C802   O826    1.301   .     A
C802   O824    1.304   .     A
C802   C811    1.472   .     S
C803   O827    1.292   .     A
C803   O829    1.293   .     A
C803   C805    1.434   .     S
C804   O830    1.293   .     A
C804   C806    1.434   .     S
C804   O828    1.292   .     A
C806   C725    1.335   1_655 S
C806   H740    1.087   1_655 S
C807   C812    1.416   .     A
C807   Br831   1.938   .     S
C807   C1049   1.392   1_545 S
C808   C811    1.415   .     A
C808   Br832   1.938   .     S
C808   C930    1.392   .     S
C809   Br833   1.941   .     S
C809   C811    1.412   .     A
C809   C927    1.392   .     S
C810   C812    1.412   .     A
C810   Br834   1.941   .     S
C810   C1048   1.392   1_545 S
C813   C835    1.442   .     S
C813   N822    1.368   .     A
C814   C837    1.442   .     S
C814   N821    1.368   .     A
C814   C96     1.422   1_556 S
C815   Br839   1.930   .     S
C815   N821    1.379   .     A
C815   C93     1.422   1_556 S
C816   Br840   1.930   .     S
C816   N822    1.379   .     A
Cu817  Cu818   2.695   .     S
Cu817  O830    1.958   .     S
Cu817  O823    1.976   .     S
Cu817  O826    1.979   .     S
Cu817  N821    2.025   .     S
Cu817  O827    1.957   .     S
Cu818  O829    1.958   .     S
Cu818  O825    1.979   .     S
Cu818  O824    1.976   .     S
Cu818  O828    1.957   .     S
Cu818  N822    2.025   .     S
H819   C725    1.087   1_655 S
C835   N836    1.158   .     T
C837   N838    1.158   .     T
C841   O865    1.301   .     A
C841   O863    1.304   .     A
C841   C852    1.472   .     S
C842   O866    1.301   .     A
C842   O864    1.304   .     A
C842   C851    1.472   .     S
C843   O867    1.292   .     A
C843   O869    1.293   .     A
C843   C845    1.434   .     S
C844   O870    1.293   .     A
C844   C846    1.434   .     S
C844   O868    1.292   .     A
C845   C926    1.335   1_455 S
C845   H939    1.087   1_455 S
C846   C885    1.335   .     S
C846   H900    1.087   .     S
C847   C852    1.416   .     A
C847   Br871   1.938   .     S
C848   C851    1.415   .     A
C848   Br872   1.938   .     S
C848   C970    1.392   .     S
C849   Br873   1.941   .     S
C849   C851    1.412   .     A
C849   C967    1.392   .     S
C850   C852    1.412   .     A
C850   Br874   1.941   .     S
C853   C875    1.442   .     S
C853   N862    1.368   .     A
C854   C877    1.442   .     S
C854   N861    1.368   .     A
C854   C136    1.422   1_556 S
C855   Br879   1.930   .     S
C855   N861    1.379   .     A
C855   C133    1.422   1_556 S
C856   Br880   1.930   .     S
C856   N862    1.379   .     A
Cu857  Cu858   2.695   .     S
Cu857  O870    1.958   .     S
Cu857  O863    1.976   .     S
Cu857  O866    1.979   .     S
Cu857  N861    2.025   .     S
Cu857  O867    1.957   .     S
Cu858  O869    1.958   .     S
Cu858  O865    1.979   .     S
Cu858  O864    1.976   .     S
Cu858  O868    1.957   .     S
Cu858  N862    2.025   .     S
H859   C885    1.087   .     S
H860   C926    1.087   1_455 S
C875   N876    1.158   .     T
C877   N878    1.158   .     T
C881   O905    1.301   .     A
C881   O903    1.304   .     A
C881   C892    1.472   .     S
C882   O906    1.301   .     A
C882   O904    1.304   .     A
C882   C891    1.472   .     S
C883   O907    1.292   .     A
C883   O909    1.293   .     A
C883   C885    1.434   .     S
C884   O910    1.293   .     A
C884   C886    1.434   .     S
C884   O908    1.292   .     A
C886   C925    1.335   .     S
C886   H940    1.087   .     S
C887   C892    1.416   .     A
C887   Br911   1.938   .     S
C888   C891    1.415   .     A
C888   Br912   1.938   .     S
C888   C1010   1.392   .     S
C889   Br913   1.941   .     S
C889   C891    1.412   .     A
C889   C1007   1.392   .     S
C890   C892    1.412   .     A
C890   Br914   1.941   .     S
C893   C915    1.442   .     S
C893   N902    1.368   .     A
C894   C917    1.442   .     S
C894   N901    1.368   .     A
C894   C176    1.422   1_556 S
C895   Br919   1.930   .     S
C895   N901    1.379   .     A
C895   C173    1.422   1_556 S
C896   Br920   1.930   .     S
C896   N902    1.379   .     A
Cu897  Cu898   2.695   .     S
Cu897  O910    1.958   .     S
Cu897  O903    1.976   .     S
Cu897  O906    1.979   .     S
Cu897  N901    2.025   .     S
Cu897  O907    1.957   .     S
Cu898  O909    1.958   .     S
Cu898  O905    1.979   .     S
Cu898  O904    1.976   .     S
Cu898  O908    1.957   .     S
Cu898  N902    2.025   .     S
H899   C925    1.087   .     S
C915   N916    1.158   .     T
C917   N918    1.158   .     T
C921   O945    1.301   .     A
C921   O943    1.304   .     A
C921   C932    1.472   .     S
C922   O946    1.301   .     A
C922   O944    1.304   .     A
C922   C931    1.472   .     S
C923   O947    1.292   .     A
C923   O949    1.293   .     A
C923   C925    1.434   .     S
C924   O950    1.293   .     A
C924   C926    1.434   .     S
C924   O948    1.292   .     A
C926   C845    1.335   1_655 S
C926   H860    1.087   1_655 S
C927   C932    1.416   .     A
C927   Br951   1.938   .     S
C928   C931    1.415   .     A
C928   Br952   1.938   .     S
C928   C1050   1.392   .     S
C929   Br953   1.941   .     S
C929   C931    1.412   .     A
C929   C1047   1.392   .     S
C930   C932    1.412   .     A
C930   Br954   1.941   .     S
C933   C955    1.442   .     S
C933   N942    1.368   .     A
C934   C957    1.442   .     S
C934   N941    1.368   .     A
C934   C216    1.422   1_556 S
C935   Br959   1.930   .     S
C935   N941    1.379   .     A
C935   C213    1.422   1_556 S
C936   Br960   1.930   .     S
C936   N942    1.379   .     A
Cu937  Cu938   2.695   .     S
Cu937  O950    1.958   .     S
Cu937  O943    1.976   .     S
Cu937  O946    1.979   .     S
Cu937  N941    2.025   .     S
Cu937  O947    1.957   .     S
Cu938  O949    1.958   .     S
Cu938  O945    1.979   .     S
Cu938  O944    1.976   .     S
Cu938  O948    1.957   .     S
Cu938  N942    2.025   .     S
H939   C845    1.087   1_655 S
C955   N956    1.158   .     T
C957   N958    1.158   .     T
C961   O985    1.301   .     A
C961   O983    1.304   .     A
C961   C972    1.472   .     S
C962   O986    1.301   .     A
C962   O984    1.304   .     A
C962   C971    1.472   .     S
C963   O987    1.292   .     A
C963   O989    1.293   .     A
C963   C965    1.434   .     S
C964   O990    1.293   .     A
C964   C966    1.434   .     S
C964   O988    1.292   .     A
C965   C1046   1.335   1_455 S
C965   H1059   1.087   1_455 S
C966   C1005   1.335   .     S
C966   H1020   1.087   .     S
C967   C972    1.416   .     A
C967   Br991   1.938   .     S
C968   C971    1.415   .     A
C968   Br992   1.938   .     S
C968   C730    1.392   1_565 S
C969   Br993   1.941   .     S
C969   C971    1.412   .     A
C969   C727    1.392   1_565 S
C970   C972    1.412   .     A
C970   Br994   1.941   .     S
C973   C995    1.442   .     S
C973   N982    1.368   .     A
C974   C997    1.442   .     S
C974   N981    1.368   .     A
C974   C256    1.422   1_556 S
C975   Br999   1.930   .     S
C975   N981    1.379   .     A
C975   C253    1.422   1_556 S
C976   Br1000  1.930   .     S
C976   N982    1.379   .     A
Cu977  Cu978   2.695   .     S
Cu977  O990    1.958   .     S
Cu977  O983    1.976   .     S
Cu977  O986    1.979   .     S
Cu977  N981    2.025   .     S
Cu977  O987    1.957   .     S
Cu978  O989    1.958   .     S
Cu978  O985    1.979   .     S
Cu978  O984    1.976   .     S
Cu978  O988    1.957   .     S
Cu978  N982    2.025   .     S
H979   C1005   1.087   .     S
H980   C1046   1.087   1_455 S
C995   N996    1.158   .     T
C997   N998    1.158   .     T
C1001  O1025   1.301   .     A
C1001  O1023   1.304   .     A
C1001  C1012   1.472   .     S
C1002  O1026   1.301   .     A
C1002  O1024   1.304   .     A
C1002  C1011   1.472   .     S
C1003  O1027   1.292   .     A
C1003  O1029   1.293   .     A
C1003  C1005   1.434   .     S
C1004  O1030   1.293   .     A
C1004  C1006   1.434   .     S
C1004  O1028   1.292   .     A
C1006  C1045   1.335   .     S
C1006  H1060   1.087   .     S
C1007  C1012   1.416   .     A
C1007  Br1031  1.938   .     S
C1008  C1011   1.415   .     A
C1008  Br1032  1.938   .     S
C1008  C770    1.392   1_565 S
C1009  Br1033  1.941   .     S
C1009  C1011   1.412   .     A
C1009  C767    1.392   1_565 S
C1010  C1012   1.412   .     A
C1010  Br1034  1.941   .     S
C1013  C1035   1.442   .     S
C1013  N1022   1.368   .     A
C1014  C1037   1.442   .     S
C1014  N1021   1.368   .     A
C1014  C296    1.422   1_556 S
C1015  Br1039  1.930   .     S
C1015  N1021   1.379   .     A
C1015  C293    1.422   1_556 S
C1016  Br1040  1.930   .     S
C1016  N1022   1.379   .     A
Cu1017 Cu1018  2.695   .     S
Cu1017 O1030   1.958   .     S
Cu1017 O1023   1.976   .     S
Cu1017 O1026   1.979   .     S
Cu1017 N1021   2.025   .     S
Cu1017 O1027   1.957   .     S
Cu1018 O1029   1.958   .     S
Cu1018 O1025   1.979   .     S
Cu1018 O1024   1.976   .     S
Cu1018 O1028   1.957   .     S
Cu1018 N1022   2.025   .     S
H1019  C1045   1.087   .     S
C1035  N1036   1.158   .     T
C1037  N1038   1.158   .     T
C1041  O1065   1.301   .     A
C1041  O1063   1.304   .     A
C1041  C1052   1.472   .     S
C1042  O1066   1.301   .     A
C1042  O1064   1.304   .     A
C1042  C1051   1.472   .     S
C1043  O1067   1.292   .     A
C1043  O1069   1.293   .     A
C1043  C1045   1.434   .     S
C1044  O1070   1.293   .     A
C1044  C1046   1.434   .     S
C1044  O1068   1.292   .     A
C1046  C965    1.335   1_655 S
C1046  H980    1.087   1_655 S
C1047  C1052   1.416   .     A
C1047  Br1071  1.938   .     S
C1048  C1051   1.415   .     A
C1048  Br1072  1.938   .     S
C1048  C810    1.392   1_565 S
C1049  Br1073  1.941   .     S
C1049  C1051   1.412   .     A
C1049  C807    1.392   1_565 S
C1050  C1052   1.412   .     A
C1050  Br1074  1.941   .     S
C1053  C1075   1.442   .     S
C1053  N1062   1.368   .     A
C1054  C1077   1.442   .     S
C1054  N1061   1.368   .     A
C1054  C336    1.422   1_556 S
C1055  Br1079  1.930   .     S
C1055  N1061   1.379   .     A
C1055  C333    1.422   1_556 S
C1056  Br1080  1.930   .     S
C1056  N1062   1.379   .     A
Cu1057 Cu1058  2.695   .     S
Cu1057 O1070   1.958   .     S
Cu1057 O1063   1.976   .     S
Cu1057 O1066   1.979   .     S
Cu1057 N1061   2.025   .     S
Cu1057 O1067   1.957   .     S
Cu1058 O1069   1.958   .     S
Cu1058 O1065   1.979   .     S
Cu1058 O1064   1.976   .     S
Cu1058 O1068   1.957   .     S
Cu1058 N1062   2.025   .     S
H1059  C965    1.087   1_655 S
C1075  N1076   1.158   .     T
C1077  N1078   1.158   .     T
