data_str_m2_o10_o17_pcu_sym.162
_audit_creation_date              2020-01-03
_audit_creation_method            'Materials Studio'
_symmetry_space_group_name_H-M    'P1'
_symmetry_Int_Tables_number       1
_symmetry_cell_setting            triclinic
loop_
_symmetry_equiv_pos_as_xyz
  x,y,z
_cell_length_a                    29.9543
_cell_length_b                    26.0231
_cell_length_c                    22.3610
_cell_angle_alpha                 102.8776
_cell_angle_beta                  93.9584
_cell_angle_gamma                 92.4612
loop_
_atom_site_label
_atom_site_type_symbol
_atom_site_fract_x
_atom_site_fract_y
_atom_site_fract_z
_atom_site_U_iso_or_equiv
_atom_site_adp_type
_atom_site_occupancy
C1     C     0.24866   0.06660   0.15111   0.00000  Uiso   1.00
C2     C     0.25134   0.26674   0.18222   0.00000  Uiso   1.00
C3     C     0.01896   0.07073   0.12961   0.00000  Uiso   1.00
C4     C     0.48104   0.26261   0.20372   0.00000  Uiso   1.00
C5     C     0.24802   0.01063   0.14236   0.00000  Uiso   1.00
C6     C     0.25198   0.32271   0.19098   0.00000  Uiso   1.00
C7     C     0.16463   0.16665   0.16760   0.00000  Uiso   1.00
C8     C     0.33537   0.16669   0.16573   0.00000  Uiso   1.00
C9     C     0.40875   0.21357   0.18189   0.00000  Uiso   1.00
C10    C     0.09125   0.11977   0.15144   0.00000  Uiso   1.00
C11    C     0.38335   0.16593   0.16366   0.00000  Uiso   1.00
C12    C     0.11665   0.16741   0.16967   0.00000  Uiso   1.00
C13    C     0.40338   0.11772   0.14797   0.00000  Uiso   1.00
C14    C     0.09662   0.21562   0.18536   0.00000  Uiso   1.00
C15    C     0.45053   0.11771   0.14763   0.00000  Uiso   1.00
C16    C     0.04947   0.21562   0.18570   0.00000  Uiso   1.00
C17    C     0.47649   0.16637   0.16626   0.00000  Uiso   1.00
C18    C     0.02351   0.16697   0.16707   0.00000  Uiso   1.00
C19    C     0.45539   0.21447   0.18394   0.00000  Uiso   1.00
C20    C     0.04461   0.11886   0.14939   0.00000  Uiso   1.00
C21    C     0.47212   0.07068   0.12809   0.00000  Uiso   1.00
C22    C     0.02788   0.26266   0.20525   0.00000  Uiso   1.00
Cu23   Cu    0.25500   0.17246   0.22813   0.00000  Uiso   1.00
Cu24   Cu    0.24499   0.16087   0.10521   0.00000  Uiso   1.00
H25    H     0.39170   0.24985   0.19502   0.00000  Uiso   1.00
H26    H     0.10830   0.08349   0.13831   0.00000  Uiso   1.00
H27    H     0.45302   0.03350   0.11072   0.00000  Uiso   1.00
H28    H     0.04698   0.29983   0.22262   0.00000  Uiso   1.00
H29    H     0.24429   0.32013   0.09550   0.00000  Uiso   1.00
H30    H     0.25571   0.01320   0.23784   0.00000  Uiso   1.00
H31    H     0.21504   0.12589   0.31627   0.00000  Uiso   1.00
H32    H     0.28496   0.20744   0.01707   0.00000  Uiso   1.00
N33    N     0.23744   0.15214   0.01284   0.00000  Uiso   1.00
N34    N     0.26255   0.18119   0.32049   0.00000  Uiso   1.00
O35    O     0.25325   0.09538   0.20659   0.00000  Uiso   1.00
O36    O     0.24674   0.23796   0.12674   0.00000  Uiso   1.00
O37    O     0.24480   0.08559   0.10279   0.00000  Uiso   1.00
O38    O     0.25520   0.24774   0.23055   0.00000  Uiso   1.00
O39    O     0.18935   0.17155   0.21857   0.00000  Uiso   1.00
O40    O     0.31064   0.16179   0.11476   0.00000  Uiso   1.00
O41    O     0.18090   0.16176   0.11477   0.00000  Uiso   1.00
O42    O     0.31910   0.17157   0.21857   0.00000  Uiso   1.00
O43    O     0.37594   0.07189   0.13405   0.00000  Uiso   1.00
H44    H     0.39080   0.04504   0.15221   0.00000  Uiso   1.00
O45    O     0.12406   0.26144   0.19929   0.00000  Uiso   1.00
H46    H     0.10920   0.28829   0.18112   0.00000  Uiso   1.00
O47    O     0.04026   0.02429   0.11160   0.00000  Uiso   1.00
H48    H     0.01753   0.32754   0.09975   0.00000  Uiso   1.00
O49    O     0.45974   0.30904   0.22173   0.00000  Uiso   1.00
H50    H     0.48247   0.00579   0.23359   0.00000  Uiso   1.00
C51    C     0.74866   0.06660   0.15111   0.00000  Uiso   1.00
C52    C     0.75134   0.26674   0.18222   0.00000  Uiso   1.00
C53    C     0.51896   0.07073   0.12961   0.00000  Uiso   1.00
C54    C     0.98104   0.26261   0.20372   0.00000  Uiso   1.00
C55    C     0.74802   0.01063   0.14236   0.00000  Uiso   1.00
C56    C     0.75198   0.32271   0.19098   0.00000  Uiso   1.00
C57    C     0.66463   0.16665   0.16760   0.00000  Uiso   1.00
C58    C     0.83537   0.16669   0.16573   0.00000  Uiso   1.00
C59    C     0.90875   0.21357   0.18189   0.00000  Uiso   1.00
C60    C     0.59125   0.11977   0.15144   0.00000  Uiso   1.00
C61    C     0.88335   0.16593   0.16366   0.00000  Uiso   1.00
C62    C     0.61665   0.16741   0.16967   0.00000  Uiso   1.00
C63    C     0.90338   0.11772   0.14797   0.00000  Uiso   1.00
C64    C     0.59662   0.21562   0.18536   0.00000  Uiso   1.00
C65    C     0.95053   0.11771   0.14763   0.00000  Uiso   1.00
C66    C     0.54947   0.21562   0.18570   0.00000  Uiso   1.00
C67    C     0.97649   0.16637   0.16626   0.00000  Uiso   1.00
C68    C     0.52351   0.16697   0.16707   0.00000  Uiso   1.00
C69    C     0.95539   0.21447   0.18394   0.00000  Uiso   1.00
C70    C     0.54461   0.11886   0.14939   0.00000  Uiso   1.00
C71    C     0.97212   0.07068   0.12809   0.00000  Uiso   1.00
C72    C     0.52788   0.26266   0.20525   0.00000  Uiso   1.00
Cu73   Cu    0.75500   0.17246   0.22813   0.00000  Uiso   1.00
Cu74   Cu    0.74499   0.16087   0.10521   0.00000  Uiso   1.00
H75    H     0.89170   0.24985   0.19502   0.00000  Uiso   1.00
H76    H     0.60830   0.08349   0.13831   0.00000  Uiso   1.00
H77    H     0.95302   0.03350   0.11072   0.00000  Uiso   1.00
H78    H     0.54698   0.29983   0.22262   0.00000  Uiso   1.00
H79    H     0.74429   0.32013   0.09550   0.00000  Uiso   1.00
H80    H     0.75571   0.01320   0.23784   0.00000  Uiso   1.00
H81    H     0.71504   0.12589   0.31627   0.00000  Uiso   1.00
H82    H     0.78496   0.20744   0.01707   0.00000  Uiso   1.00
N83    N     0.73744   0.15214   0.01284   0.00000  Uiso   1.00
N84    N     0.76255   0.18119   0.32049   0.00000  Uiso   1.00
O85    O     0.75325   0.09538   0.20659   0.00000  Uiso   1.00
O86    O     0.74674   0.23796   0.12674   0.00000  Uiso   1.00
O87    O     0.74480   0.08559   0.10279   0.00000  Uiso   1.00
O88    O     0.75520   0.24774   0.23055   0.00000  Uiso   1.00
O89    O     0.68935   0.17155   0.21857   0.00000  Uiso   1.00
O90    O     0.81064   0.16179   0.11476   0.00000  Uiso   1.00
O91    O     0.68090   0.16176   0.11477   0.00000  Uiso   1.00
O92    O     0.81910   0.17157   0.21857   0.00000  Uiso   1.00
O93    O     0.87594   0.07189   0.13405   0.00000  Uiso   1.00
H94    H     0.89080   0.04504   0.15221   0.00000  Uiso   1.00
O95    O     0.62406   0.26144   0.19929   0.00000  Uiso   1.00
H96    H     0.60920   0.28829   0.18112   0.00000  Uiso   1.00
O97    O     0.54026   0.02429   0.11160   0.00000  Uiso   1.00
H98    H     0.51753   0.32754   0.09975   0.00000  Uiso   1.00
O99    O     0.95974   0.30904   0.22173   0.00000  Uiso   1.00
H100   H     0.98247   0.00579   0.23359   0.00000  Uiso   1.00
C101   C     0.24866   0.39993   0.15111   0.00000  Uiso   1.00
C102   C     0.25134   0.60007   0.18222   0.00000  Uiso   1.00
C103   C     0.01896   0.40406   0.12961   0.00000  Uiso   1.00
C104   C     0.48104   0.59594   0.20372   0.00000  Uiso   1.00
C105   C     0.24802   0.34396   0.14236   0.00000  Uiso   1.00
C106   C     0.25198   0.65604   0.19098   0.00000  Uiso   1.00
C107   C     0.16463   0.49998   0.16760   0.00000  Uiso   1.00
C108   C     0.33537   0.50002   0.16573   0.00000  Uiso   1.00
C109   C     0.40875   0.54690   0.18189   0.00000  Uiso   1.00
C110   C     0.09125   0.45310   0.15144   0.00000  Uiso   1.00
C111   C     0.38335   0.49926   0.16366   0.00000  Uiso   1.00
C112   C     0.11665   0.50074   0.16967   0.00000  Uiso   1.00
C113   C     0.40338   0.45105   0.14797   0.00000  Uiso   1.00
C114   C     0.09662   0.54895   0.18536   0.00000  Uiso   1.00
C115   C     0.45053   0.45105   0.14763   0.00000  Uiso   1.00
C116   C     0.04947   0.54895   0.18570   0.00000  Uiso   1.00
C117   C     0.47649   0.49970   0.16626   0.00000  Uiso   1.00
C118   C     0.02351   0.50030   0.16707   0.00000  Uiso   1.00
C119   C     0.45539   0.54781   0.18394   0.00000  Uiso   1.00
C120   C     0.04461   0.45219   0.14939   0.00000  Uiso   1.00
C121   C     0.47212   0.40401   0.12809   0.00000  Uiso   1.00
C122   C     0.02788   0.59599   0.20525   0.00000  Uiso   1.00
Cu123  Cu    0.25500   0.50579   0.22813   0.00000  Uiso   1.00
Cu124  Cu    0.24499   0.49421   0.10521   0.00000  Uiso   1.00
H125   H     0.39170   0.58318   0.19502   0.00000  Uiso   1.00
H126   H     0.10830   0.41682   0.13831   0.00000  Uiso   1.00
H127   H     0.45302   0.36683   0.11072   0.00000  Uiso   1.00
H128   H     0.04698   0.63317   0.22262   0.00000  Uiso   1.00
H129   H     0.24429   0.65346   0.09550   0.00000  Uiso   1.00
H130   H     0.25571   0.34654   0.23784   0.00000  Uiso   1.00
H131   H     0.21504   0.45923   0.31627   0.00000  Uiso   1.00
H132   H     0.28496   0.54077   0.01707   0.00000  Uiso   1.00
N133   N     0.23744   0.48547   0.01284   0.00000  Uiso   1.00
N134   N     0.26255   0.51453   0.32049   0.00000  Uiso   1.00
O135   O     0.25325   0.42871   0.20659   0.00000  Uiso   1.00
O136   O     0.24674   0.57129   0.12674   0.00000  Uiso   1.00
O137   O     0.24480   0.41892   0.10279   0.00000  Uiso   1.00
O138   O     0.25520   0.58108   0.23055   0.00000  Uiso   1.00
O139   O     0.18935   0.50488   0.21857   0.00000  Uiso   1.00
O140   O     0.31064   0.49512   0.11476   0.00000  Uiso   1.00
O141   O     0.18090   0.49510   0.11477   0.00000  Uiso   1.00
O142   O     0.31910   0.50490   0.21857   0.00000  Uiso   1.00
O143   O     0.37594   0.40523   0.13405   0.00000  Uiso   1.00
H144   H     0.39080   0.37838   0.15221   0.00000  Uiso   1.00
O145   O     0.12406   0.59477   0.19929   0.00000  Uiso   1.00
H146   H     0.10920   0.62162   0.18112   0.00000  Uiso   1.00
O147   O     0.04026   0.35763   0.11160   0.00000  Uiso   1.00
H148   H     0.01753   0.66087   0.09975   0.00000  Uiso   1.00
O149   O     0.45974   0.64237   0.22173   0.00000  Uiso   1.00
H150   H     0.48247   0.33913   0.23359   0.00000  Uiso   1.00
C151   C     0.74866   0.39993   0.15111   0.00000  Uiso   1.00
C152   C     0.75134   0.60007   0.18222   0.00000  Uiso   1.00
C153   C     0.51896   0.40406   0.12961   0.00000  Uiso   1.00
C154   C     0.98104   0.59594   0.20372   0.00000  Uiso   1.00
C155   C     0.74802   0.34396   0.14236   0.00000  Uiso   1.00
C156   C     0.75198   0.65604   0.19098   0.00000  Uiso   1.00
C157   C     0.66463   0.49998   0.16760   0.00000  Uiso   1.00
C158   C     0.83537   0.50002   0.16573   0.00000  Uiso   1.00
C159   C     0.90875   0.54690   0.18189   0.00000  Uiso   1.00
C160   C     0.59125   0.45310   0.15144   0.00000  Uiso   1.00
C161   C     0.88335   0.49926   0.16366   0.00000  Uiso   1.00
C162   C     0.61665   0.50074   0.16967   0.00000  Uiso   1.00
C163   C     0.90338   0.45105   0.14797   0.00000  Uiso   1.00
C164   C     0.59662   0.54895   0.18536   0.00000  Uiso   1.00
C165   C     0.95053   0.45105   0.14763   0.00000  Uiso   1.00
C166   C     0.54947   0.54895   0.18570   0.00000  Uiso   1.00
C167   C     0.97649   0.49970   0.16626   0.00000  Uiso   1.00
C168   C     0.52351   0.50030   0.16707   0.00000  Uiso   1.00
C169   C     0.95539   0.54781   0.18394   0.00000  Uiso   1.00
C170   C     0.54461   0.45219   0.14939   0.00000  Uiso   1.00
C171   C     0.97212   0.40401   0.12809   0.00000  Uiso   1.00
C172   C     0.52788   0.59599   0.20525   0.00000  Uiso   1.00
Cu173  Cu    0.75500   0.50579   0.22813   0.00000  Uiso   1.00
Cu174  Cu    0.74499   0.49421   0.10521   0.00000  Uiso   1.00
H175   H     0.89170   0.58318   0.19502   0.00000  Uiso   1.00
H176   H     0.60830   0.41682   0.13831   0.00000  Uiso   1.00
H177   H     0.95302   0.36683   0.11072   0.00000  Uiso   1.00
H178   H     0.54698   0.63317   0.22262   0.00000  Uiso   1.00
H179   H     0.74429   0.65346   0.09550   0.00000  Uiso   1.00
H180   H     0.75571   0.34654   0.23784   0.00000  Uiso   1.00
H181   H     0.71504   0.45923   0.31627   0.00000  Uiso   1.00
H182   H     0.78496   0.54077   0.01707   0.00000  Uiso   1.00
N183   N     0.73744   0.48547   0.01284   0.00000  Uiso   1.00
N184   N     0.76255   0.51453   0.32049   0.00000  Uiso   1.00
O185   O     0.75325   0.42871   0.20659   0.00000  Uiso   1.00
O186   O     0.74674   0.57129   0.12674   0.00000  Uiso   1.00
O187   O     0.74480   0.41892   0.10279   0.00000  Uiso   1.00
O188   O     0.75520   0.58108   0.23055   0.00000  Uiso   1.00
O189   O     0.68935   0.50488   0.21857   0.00000  Uiso   1.00
O190   O     0.81064   0.49512   0.11476   0.00000  Uiso   1.00
O191   O     0.68090   0.49510   0.11477   0.00000  Uiso   1.00
O192   O     0.81910   0.50490   0.21857   0.00000  Uiso   1.00
O193   O     0.87594   0.40523   0.13405   0.00000  Uiso   1.00
H194   H     0.89080   0.37838   0.15221   0.00000  Uiso   1.00
O195   O     0.62406   0.59477   0.19929   0.00000  Uiso   1.00
H196   H     0.60920   0.62162   0.18112   0.00000  Uiso   1.00
O197   O     0.54026   0.35763   0.11160   0.00000  Uiso   1.00
H198   H     0.51753   0.66087   0.09975   0.00000  Uiso   1.00
O199   O     0.95974   0.64237   0.22173   0.00000  Uiso   1.00
H200   H     0.98247   0.33913   0.23359   0.00000  Uiso   1.00
C201   C     0.24866   0.73326   0.15111   0.00000  Uiso   1.00
C202   C     0.25134   0.93340   0.18222   0.00000  Uiso   1.00
C203   C     0.01896   0.73739   0.12961   0.00000  Uiso   1.00
C204   C     0.48104   0.92927   0.20372   0.00000  Uiso   1.00
C205   C     0.24802   0.67729   0.14236   0.00000  Uiso   1.00
C206   C     0.25198   0.98937   0.19098   0.00000  Uiso   1.00
C207   C     0.16463   0.83331   0.16760   0.00000  Uiso   1.00
C208   C     0.33537   0.83335   0.16573   0.00000  Uiso   1.00
C209   C     0.40875   0.88023   0.18189   0.00000  Uiso   1.00
C210   C     0.09125   0.78643   0.15144   0.00000  Uiso   1.00
C211   C     0.38335   0.83260   0.16366   0.00000  Uiso   1.00
C212   C     0.11665   0.83407   0.16967   0.00000  Uiso   1.00
C213   C     0.40338   0.78438   0.14797   0.00000  Uiso   1.00
C214   C     0.09662   0.88229   0.18536   0.00000  Uiso   1.00
C215   C     0.45053   0.78438   0.14763   0.00000  Uiso   1.00
C216   C     0.04947   0.88229   0.18570   0.00000  Uiso   1.00
C217   C     0.47649   0.83303   0.16626   0.00000  Uiso   1.00
C218   C     0.02351   0.83363   0.16707   0.00000  Uiso   1.00
C219   C     0.45539   0.88114   0.18394   0.00000  Uiso   1.00
C220   C     0.04461   0.78553   0.14939   0.00000  Uiso   1.00
C221   C     0.47212   0.73734   0.12809   0.00000  Uiso   1.00
C222   C     0.02788   0.92932   0.20525   0.00000  Uiso   1.00
Cu223  Cu    0.25500   0.83913   0.22813   0.00000  Uiso   1.00
Cu224  Cu    0.24499   0.82754   0.10521   0.00000  Uiso   1.00
H225   H     0.39170   0.91651   0.19502   0.00000  Uiso   1.00
H226   H     0.10830   0.75015   0.13831   0.00000  Uiso   1.00
H227   H     0.45302   0.70017   0.11072   0.00000  Uiso   1.00
H228   H     0.04698   0.96650   0.22262   0.00000  Uiso   1.00
H229   H     0.24429   0.98680   0.09550   0.00000  Uiso   1.00
H230   H     0.25571   0.67987   0.23784   0.00000  Uiso   1.00
H231   H     0.21504   0.79256   0.31627   0.00000  Uiso   1.00
H232   H     0.28496   0.87411   0.01707   0.00000  Uiso   1.00
N233   N     0.23744   0.81881   0.01284   0.00000  Uiso   1.00
N234   N     0.26255   0.84786   0.32049   0.00000  Uiso   1.00
O235   O     0.25325   0.76204   0.20659   0.00000  Uiso   1.00
O236   O     0.24674   0.90462   0.12674   0.00000  Uiso   1.00
O237   O     0.24480   0.75226   0.10279   0.00000  Uiso   1.00
O238   O     0.25520   0.91441   0.23055   0.00000  Uiso   1.00
O239   O     0.18935   0.83821   0.21857   0.00000  Uiso   1.00
O240   O     0.31064   0.82845   0.11476   0.00000  Uiso   1.00
O241   O     0.18090   0.82843   0.11477   0.00000  Uiso   1.00
O242   O     0.31910   0.83824   0.21857   0.00000  Uiso   1.00
O243   O     0.37594   0.73856   0.13405   0.00000  Uiso   1.00
H244   H     0.39080   0.71171   0.15221   0.00000  Uiso   1.00
O245   O     0.12406   0.92811   0.19929   0.00000  Uiso   1.00
H246   H     0.10920   0.95496   0.18112   0.00000  Uiso   1.00
O247   O     0.04026   0.69096   0.11160   0.00000  Uiso   1.00
H248   H     0.01753   0.99421   0.09975   0.00000  Uiso   1.00
O249   O     0.45974   0.97571   0.22173   0.00000  Uiso   1.00
H250   H     0.48247   0.67246   0.23359   0.00000  Uiso   1.00
C251   C     0.74866   0.73326   0.15111   0.00000  Uiso   1.00
C252   C     0.75134   0.93340   0.18222   0.00000  Uiso   1.00
C253   C     0.51896   0.73739   0.12961   0.00000  Uiso   1.00
C254   C     0.98104   0.92927   0.20372   0.00000  Uiso   1.00
C255   C     0.74802   0.67729   0.14236   0.00000  Uiso   1.00
C256   C     0.75198   0.98937   0.19098   0.00000  Uiso   1.00
C257   C     0.66463   0.83331   0.16760   0.00000  Uiso   1.00
C258   C     0.83537   0.83335   0.16573   0.00000  Uiso   1.00
C259   C     0.90875   0.88023   0.18189   0.00000  Uiso   1.00
C260   C     0.59125   0.78643   0.15144   0.00000  Uiso   1.00
C261   C     0.88335   0.83260   0.16366   0.00000  Uiso   1.00
C262   C     0.61665   0.83407   0.16967   0.00000  Uiso   1.00
C263   C     0.90338   0.78438   0.14797   0.00000  Uiso   1.00
C264   C     0.59662   0.88229   0.18536   0.00000  Uiso   1.00
C265   C     0.95053   0.78438   0.14763   0.00000  Uiso   1.00
C266   C     0.54947   0.88229   0.18570   0.00000  Uiso   1.00
C267   C     0.97649   0.83303   0.16626   0.00000  Uiso   1.00
C268   C     0.52351   0.83363   0.16707   0.00000  Uiso   1.00
C269   C     0.95539   0.88114   0.18394   0.00000  Uiso   1.00
C270   C     0.54461   0.78553   0.14939   0.00000  Uiso   1.00
C271   C     0.97212   0.73734   0.12809   0.00000  Uiso   1.00
C272   C     0.52788   0.92932   0.20525   0.00000  Uiso   1.00
Cu273  Cu    0.75500   0.83913   0.22813   0.00000  Uiso   1.00
Cu274  Cu    0.74499   0.82754   0.10521   0.00000  Uiso   1.00
H275   H     0.89170   0.91651   0.19502   0.00000  Uiso   1.00
H276   H     0.60830   0.75015   0.13831   0.00000  Uiso   1.00
H277   H     0.95302   0.70017   0.11072   0.00000  Uiso   1.00
H278   H     0.54698   0.96650   0.22262   0.00000  Uiso   1.00
H279   H     0.74429   0.98680   0.09550   0.00000  Uiso   1.00
H280   H     0.75571   0.67987   0.23784   0.00000  Uiso   1.00
H281   H     0.71504   0.79256   0.31627   0.00000  Uiso   1.00
H282   H     0.78496   0.87411   0.01707   0.00000  Uiso   1.00
N283   N     0.73744   0.81881   0.01284   0.00000  Uiso   1.00
N284   N     0.76255   0.84786   0.32049   0.00000  Uiso   1.00
O285   O     0.75325   0.76204   0.20659   0.00000  Uiso   1.00
O286   O     0.74674   0.90462   0.12674   0.00000  Uiso   1.00
O287   O     0.74480   0.75226   0.10279   0.00000  Uiso   1.00
O288   O     0.75520   0.91441   0.23055   0.00000  Uiso   1.00
O289   O     0.68935   0.83821   0.21857   0.00000  Uiso   1.00
O290   O     0.81064   0.82845   0.11476   0.00000  Uiso   1.00
O291   O     0.68090   0.82843   0.11477   0.00000  Uiso   1.00
O292   O     0.81910   0.83824   0.21857   0.00000  Uiso   1.00
O293   O     0.87594   0.73856   0.13405   0.00000  Uiso   1.00
H294   H     0.89080   0.71171   0.15221   0.00000  Uiso   1.00
O295   O     0.62406   0.92811   0.19929   0.00000  Uiso   1.00
H296   H     0.60920   0.95496   0.18112   0.00000  Uiso   1.00
O297   O     0.54026   0.69096   0.11160   0.00000  Uiso   1.00
H298   H     0.51753   0.99421   0.09975   0.00000  Uiso   1.00
O299   O     0.95974   0.97571   0.22173   0.00000  Uiso   1.00
H300   H     0.98247   0.67246   0.23359   0.00000  Uiso   1.00
C301   C     0.24866   0.06660   0.48444   0.00000  Uiso   1.00
C302   C     0.25134   0.26674   0.51556   0.00000  Uiso   1.00
C303   C     0.01896   0.07073   0.46294   0.00000  Uiso   1.00
C304   C     0.48104   0.26261   0.53706   0.00000  Uiso   1.00
C305   C     0.24802   0.01063   0.47569   0.00000  Uiso   1.00
C306   C     0.25198   0.32271   0.52431   0.00000  Uiso   1.00
C307   C     0.16463   0.16665   0.50094   0.00000  Uiso   1.00
C308   C     0.33537   0.16669   0.49906   0.00000  Uiso   1.00
C309   C     0.40875   0.21357   0.51522   0.00000  Uiso   1.00
C310   C     0.09125   0.11977   0.48478   0.00000  Uiso   1.00
C311   C     0.38335   0.16593   0.49699   0.00000  Uiso   1.00
C312   C     0.11665   0.16741   0.50301   0.00000  Uiso   1.00
C313   C     0.40338   0.11772   0.48130   0.00000  Uiso   1.00
C314   C     0.09662   0.21562   0.51870   0.00000  Uiso   1.00
C315   C     0.45053   0.11771   0.48096   0.00000  Uiso   1.00
C316   C     0.04947   0.21562   0.51903   0.00000  Uiso   1.00
C317   C     0.47649   0.16637   0.49960   0.00000  Uiso   1.00
C318   C     0.02351   0.16697   0.50040   0.00000  Uiso   1.00
C319   C     0.45539   0.21447   0.51728   0.00000  Uiso   1.00
C320   C     0.04461   0.11886   0.48272   0.00000  Uiso   1.00
C321   C     0.47212   0.07068   0.46142   0.00000  Uiso   1.00
C322   C     0.02788   0.26266   0.53858   0.00000  Uiso   1.00
Cu323  Cu    0.25500   0.17246   0.56146   0.00000  Uiso   1.00
Cu324  Cu    0.24499   0.16087   0.43854   0.00000  Uiso   1.00
H325   H     0.39170   0.24985   0.52836   0.00000  Uiso   1.00
H326   H     0.10830   0.08349   0.47164   0.00000  Uiso   1.00
H327   H     0.45302   0.03350   0.44405   0.00000  Uiso   1.00
H328   H     0.04698   0.29983   0.55595   0.00000  Uiso   1.00
H329   H     0.24429   0.32013   0.42883   0.00000  Uiso   1.00
H330   H     0.25571   0.01320   0.57117   0.00000  Uiso   1.00
H331   H     0.21504   0.12589   0.64960   0.00000  Uiso   1.00
H332   H     0.28496   0.20744   0.35040   0.00000  Uiso   1.00
N333   N     0.23744   0.15214   0.34617   0.00000  Uiso   1.00
N334   N     0.26255   0.18119   0.65383   0.00000  Uiso   1.00
O335   O     0.25325   0.09538   0.53992   0.00000  Uiso   1.00
O336   O     0.24674   0.23796   0.46008   0.00000  Uiso   1.00
O337   O     0.24480   0.08559   0.43612   0.00000  Uiso   1.00
O338   O     0.25520   0.24774   0.56388   0.00000  Uiso   1.00
O339   O     0.18935   0.17155   0.55191   0.00000  Uiso   1.00
O340   O     0.31064   0.16179   0.44809   0.00000  Uiso   1.00
O341   O     0.18090   0.16176   0.44810   0.00000  Uiso   1.00
O342   O     0.31910   0.17157   0.55190   0.00000  Uiso   1.00
O343   O     0.37594   0.07189   0.46738   0.00000  Uiso   1.00
H344   H     0.39080   0.04504   0.48554   0.00000  Uiso   1.00
O345   O     0.12406   0.26144   0.53262   0.00000  Uiso   1.00
H346   H     0.10920   0.28829   0.51446   0.00000  Uiso   1.00
O347   O     0.04026   0.02429   0.44493   0.00000  Uiso   1.00
H348   H     0.01753   0.32754   0.43308   0.00000  Uiso   1.00
O349   O     0.45974   0.30904   0.55507   0.00000  Uiso   1.00
H350   H     0.48247   0.00579   0.56692   0.00000  Uiso   1.00
C351   C     0.74866   0.06660   0.48444   0.00000  Uiso   1.00
C352   C     0.75134   0.26674   0.51556   0.00000  Uiso   1.00
C353   C     0.51896   0.07073   0.46294   0.00000  Uiso   1.00
C354   C     0.98104   0.26261   0.53706   0.00000  Uiso   1.00
C355   C     0.74802   0.01063   0.47569   0.00000  Uiso   1.00
C356   C     0.75198   0.32271   0.52431   0.00000  Uiso   1.00
C357   C     0.66463   0.16665   0.50094   0.00000  Uiso   1.00
C358   C     0.83537   0.16669   0.49906   0.00000  Uiso   1.00
C359   C     0.90875   0.21357   0.51522   0.00000  Uiso   1.00
C360   C     0.59125   0.11977   0.48478   0.00000  Uiso   1.00
C361   C     0.88335   0.16593   0.49699   0.00000  Uiso   1.00
C362   C     0.61665   0.16741   0.50301   0.00000  Uiso   1.00
C363   C     0.90338   0.11772   0.48130   0.00000  Uiso   1.00
C364   C     0.59662   0.21562   0.51870   0.00000  Uiso   1.00
C365   C     0.95053   0.11771   0.48096   0.00000  Uiso   1.00
C366   C     0.54947   0.21562   0.51903   0.00000  Uiso   1.00
C367   C     0.97649   0.16637   0.49960   0.00000  Uiso   1.00
C368   C     0.52351   0.16697   0.50040   0.00000  Uiso   1.00
C369   C     0.95539   0.21447   0.51728   0.00000  Uiso   1.00
C370   C     0.54461   0.11886   0.48272   0.00000  Uiso   1.00
C371   C     0.97212   0.07068   0.46142   0.00000  Uiso   1.00
C372   C     0.52788   0.26266   0.53858   0.00000  Uiso   1.00
Cu373  Cu    0.75500   0.17246   0.56146   0.00000  Uiso   1.00
Cu374  Cu    0.74499   0.16087   0.43854   0.00000  Uiso   1.00
H375   H     0.89170   0.24985   0.52836   0.00000  Uiso   1.00
H376   H     0.60830   0.08349   0.47164   0.00000  Uiso   1.00
H377   H     0.95302   0.03350   0.44405   0.00000  Uiso   1.00
H378   H     0.54698   0.29983   0.55595   0.00000  Uiso   1.00
H379   H     0.74429   0.32013   0.42883   0.00000  Uiso   1.00
H380   H     0.75571   0.01320   0.57117   0.00000  Uiso   1.00
H381   H     0.71504   0.12589   0.64960   0.00000  Uiso   1.00
H382   H     0.78496   0.20744   0.35040   0.00000  Uiso   1.00
N383   N     0.73744   0.15214   0.34617   0.00000  Uiso   1.00
N384   N     0.76255   0.18119   0.65383   0.00000  Uiso   1.00
O385   O     0.75325   0.09538   0.53992   0.00000  Uiso   1.00
O386   O     0.74674   0.23796   0.46008   0.00000  Uiso   1.00
O387   O     0.74480   0.08559   0.43612   0.00000  Uiso   1.00
O388   O     0.75520   0.24774   0.56388   0.00000  Uiso   1.00
O389   O     0.68935   0.17155   0.55191   0.00000  Uiso   1.00
O390   O     0.81064   0.16179   0.44809   0.00000  Uiso   1.00
O391   O     0.68090   0.16176   0.44810   0.00000  Uiso   1.00
O392   O     0.81910   0.17157   0.55190   0.00000  Uiso   1.00
O393   O     0.87594   0.07189   0.46738   0.00000  Uiso   1.00
H394   H     0.89080   0.04504   0.48554   0.00000  Uiso   1.00
O395   O     0.62406   0.26144   0.53262   0.00000  Uiso   1.00
H396   H     0.60920   0.28829   0.51446   0.00000  Uiso   1.00
O397   O     0.54026   0.02429   0.44493   0.00000  Uiso   1.00
H398   H     0.51753   0.32754   0.43308   0.00000  Uiso   1.00
O399   O     0.95974   0.30904   0.55507   0.00000  Uiso   1.00
H400   H     0.98247   0.00579   0.56692   0.00000  Uiso   1.00
C401   C     0.24866   0.39993   0.48444   0.00000  Uiso   1.00
C402   C     0.25134   0.60007   0.51556   0.00000  Uiso   1.00
C403   C     0.01896   0.40406   0.46294   0.00000  Uiso   1.00
C404   C     0.48104   0.59594   0.53706   0.00000  Uiso   1.00
C405   C     0.24802   0.34396   0.47569   0.00000  Uiso   1.00
C406   C     0.25198   0.65604   0.52431   0.00000  Uiso   1.00
C407   C     0.16463   0.49998   0.50094   0.00000  Uiso   1.00
C408   C     0.33537   0.50002   0.49906   0.00000  Uiso   1.00
C409   C     0.40875   0.54690   0.51522   0.00000  Uiso   1.00
C410   C     0.09125   0.45310   0.48478   0.00000  Uiso   1.00
C411   C     0.38335   0.49926   0.49699   0.00000  Uiso   1.00
C412   C     0.11665   0.50074   0.50301   0.00000  Uiso   1.00
C413   C     0.40338   0.45105   0.48130   0.00000  Uiso   1.00
C414   C     0.09662   0.54895   0.51870   0.00000  Uiso   1.00
C415   C     0.45053   0.45105   0.48096   0.00000  Uiso   1.00
C416   C     0.04947   0.54895   0.51903   0.00000  Uiso   1.00
C417   C     0.47649   0.49970   0.49960   0.00000  Uiso   1.00
C418   C     0.02351   0.50030   0.50040   0.00000  Uiso   1.00
C419   C     0.45539   0.54781   0.51728   0.00000  Uiso   1.00
C420   C     0.04461   0.45219   0.48272   0.00000  Uiso   1.00
C421   C     0.47212   0.40401   0.46142   0.00000  Uiso   1.00
C422   C     0.02788   0.59599   0.53858   0.00000  Uiso   1.00
Cu423  Cu    0.25500   0.50579   0.56146   0.00000  Uiso   1.00
Cu424  Cu    0.24499   0.49421   0.43854   0.00000  Uiso   1.00
H425   H     0.39170   0.58318   0.52836   0.00000  Uiso   1.00
H426   H     0.10830   0.41682   0.47164   0.00000  Uiso   1.00
H427   H     0.45302   0.36683   0.44405   0.00000  Uiso   1.00
H428   H     0.04698   0.63317   0.55595   0.00000  Uiso   1.00
H429   H     0.24429   0.65346   0.42883   0.00000  Uiso   1.00
H430   H     0.25571   0.34654   0.57117   0.00000  Uiso   1.00
H431   H     0.21504   0.45923   0.64960   0.00000  Uiso   1.00
H432   H     0.28496   0.54077   0.35040   0.00000  Uiso   1.00
N433   N     0.23744   0.48547   0.34617   0.00000  Uiso   1.00
N434   N     0.26255   0.51453   0.65383   0.00000  Uiso   1.00
O435   O     0.25325   0.42871   0.53992   0.00000  Uiso   1.00
O436   O     0.24674   0.57129   0.46008   0.00000  Uiso   1.00
O437   O     0.24480   0.41892   0.43612   0.00000  Uiso   1.00
O438   O     0.25520   0.58108   0.56388   0.00000  Uiso   1.00
O439   O     0.18935   0.50488   0.55191   0.00000  Uiso   1.00
O440   O     0.31064   0.49512   0.44809   0.00000  Uiso   1.00
O441   O     0.18090   0.49510   0.44810   0.00000  Uiso   1.00
O442   O     0.31910   0.50490   0.55190   0.00000  Uiso   1.00
O443   O     0.37594   0.40523   0.46738   0.00000  Uiso   1.00
H444   H     0.39080   0.37838   0.48554   0.00000  Uiso   1.00
O445   O     0.12406   0.59477   0.53262   0.00000  Uiso   1.00
H446   H     0.10920   0.62162   0.51446   0.00000  Uiso   1.00
O447   O     0.04026   0.35763   0.44493   0.00000  Uiso   1.00
H448   H     0.01753   0.66087   0.43308   0.00000  Uiso   1.00
O449   O     0.45974   0.64237   0.55507   0.00000  Uiso   1.00
H450   H     0.48247   0.33913   0.56692   0.00000  Uiso   1.00
C451   C     0.74866   0.39993   0.48444   0.00000  Uiso   1.00
C452   C     0.75134   0.60007   0.51556   0.00000  Uiso   1.00
C453   C     0.51896   0.40406   0.46294   0.00000  Uiso   1.00
C454   C     0.98104   0.59594   0.53706   0.00000  Uiso   1.00
C455   C     0.74802   0.34396   0.47569   0.00000  Uiso   1.00
C456   C     0.75198   0.65604   0.52431   0.00000  Uiso   1.00
C457   C     0.66463   0.49998   0.50094   0.00000  Uiso   1.00
C458   C     0.83537   0.50002   0.49906   0.00000  Uiso   1.00
C459   C     0.90875   0.54690   0.51522   0.00000  Uiso   1.00
C460   C     0.59125   0.45310   0.48478   0.00000  Uiso   1.00
C461   C     0.88335   0.49926   0.49699   0.00000  Uiso   1.00
C462   C     0.61665   0.50074   0.50301   0.00000  Uiso   1.00
C463   C     0.90338   0.45105   0.48130   0.00000  Uiso   1.00
C464   C     0.59662   0.54895   0.51870   0.00000  Uiso   1.00
C465   C     0.95053   0.45105   0.48096   0.00000  Uiso   1.00
C466   C     0.54947   0.54895   0.51903   0.00000  Uiso   1.00
C467   C     0.97649   0.49970   0.49960   0.00000  Uiso   1.00
C468   C     0.52351   0.50030   0.50040   0.00000  Uiso   1.00
C469   C     0.95539   0.54781   0.51728   0.00000  Uiso   1.00
C470   C     0.54461   0.45219   0.48272   0.00000  Uiso   1.00
C471   C     0.97212   0.40401   0.46142   0.00000  Uiso   1.00
C472   C     0.52788   0.59599   0.53858   0.00000  Uiso   1.00
Cu473  Cu    0.75500   0.50579   0.56146   0.00000  Uiso   1.00
Cu474  Cu    0.74499   0.49421   0.43854   0.00000  Uiso   1.00
H475   H     0.89170   0.58318   0.52836   0.00000  Uiso   1.00
H476   H     0.60830   0.41682   0.47164   0.00000  Uiso   1.00
H477   H     0.95302   0.36683   0.44405   0.00000  Uiso   1.00
H478   H     0.54698   0.63317   0.55595   0.00000  Uiso   1.00
H479   H     0.74429   0.65346   0.42883   0.00000  Uiso   1.00
H480   H     0.75571   0.34654   0.57117   0.00000  Uiso   1.00
H481   H     0.71504   0.45923   0.64960   0.00000  Uiso   1.00
H482   H     0.78496   0.54077   0.35040   0.00000  Uiso   1.00
N483   N     0.73744   0.48547   0.34617   0.00000  Uiso   1.00
N484   N     0.76255   0.51453   0.65383   0.00000  Uiso   1.00
O485   O     0.75325   0.42871   0.53992   0.00000  Uiso   1.00
O486   O     0.74674   0.57129   0.46008   0.00000  Uiso   1.00
O487   O     0.74480   0.41892   0.43612   0.00000  Uiso   1.00
O488   O     0.75520   0.58108   0.56388   0.00000  Uiso   1.00
O489   O     0.68935   0.50488   0.55191   0.00000  Uiso   1.00
O490   O     0.81064   0.49512   0.44809   0.00000  Uiso   1.00
O491   O     0.68090   0.49510   0.44810   0.00000  Uiso   1.00
O492   O     0.81910   0.50490   0.55190   0.00000  Uiso   1.00
O493   O     0.87594   0.40523   0.46738   0.00000  Uiso   1.00
H494   H     0.89080   0.37838   0.48554   0.00000  Uiso   1.00
O495   O     0.62406   0.59477   0.53262   0.00000  Uiso   1.00
H496   H     0.60920   0.62162   0.51446   0.00000  Uiso   1.00
O497   O     0.54026   0.35763   0.44493   0.00000  Uiso   1.00
H498   H     0.51753   0.66087   0.43308   0.00000  Uiso   1.00
O499   O     0.95974   0.64237   0.55507   0.00000  Uiso   1.00
H500   H     0.98247   0.33913   0.56692   0.00000  Uiso   1.00
C501   C     0.24866   0.73326   0.48444   0.00000  Uiso   1.00
C502   C     0.25134   0.93340   0.51556   0.00000  Uiso   1.00
C503   C     0.01896   0.73739   0.46294   0.00000  Uiso   1.00
C504   C     0.48104   0.92927   0.53706   0.00000  Uiso   1.00
C505   C     0.24802   0.67729   0.47569   0.00000  Uiso   1.00
C506   C     0.25198   0.98937   0.52431   0.00000  Uiso   1.00
C507   C     0.16463   0.83331   0.50094   0.00000  Uiso   1.00
C508   C     0.33537   0.83335   0.49906   0.00000  Uiso   1.00
C509   C     0.40875   0.88023   0.51522   0.00000  Uiso   1.00
C510   C     0.09125   0.78643   0.48478   0.00000  Uiso   1.00
C511   C     0.38335   0.83260   0.49699   0.00000  Uiso   1.00
C512   C     0.11665   0.83407   0.50301   0.00000  Uiso   1.00
C513   C     0.40338   0.78438   0.48130   0.00000  Uiso   1.00
C514   C     0.09662   0.88229   0.51870   0.00000  Uiso   1.00
C515   C     0.45053   0.78438   0.48096   0.00000  Uiso   1.00
C516   C     0.04947   0.88229   0.51903   0.00000  Uiso   1.00
C517   C     0.47649   0.83303   0.49960   0.00000  Uiso   1.00
C518   C     0.02351   0.83363   0.50040   0.00000  Uiso   1.00
C519   C     0.45539   0.88114   0.51728   0.00000  Uiso   1.00
C520   C     0.04461   0.78553   0.48272   0.00000  Uiso   1.00
C521   C     0.47212   0.73734   0.46142   0.00000  Uiso   1.00
C522   C     0.02788   0.92932   0.53858   0.00000  Uiso   1.00
Cu523  Cu    0.25500   0.83913   0.56146   0.00000  Uiso   1.00
Cu524  Cu    0.24499   0.82754   0.43854   0.00000  Uiso   1.00
H525   H     0.39170   0.91651   0.52836   0.00000  Uiso   1.00
H526   H     0.10830   0.75015   0.47164   0.00000  Uiso   1.00
H527   H     0.45302   0.70017   0.44405   0.00000  Uiso   1.00
H528   H     0.04698   0.96650   0.55595   0.00000  Uiso   1.00
H529   H     0.24429   0.98680   0.42883   0.00000  Uiso   1.00
H530   H     0.25571   0.67987   0.57117   0.00000  Uiso   1.00
H531   H     0.21504   0.79256   0.64960   0.00000  Uiso   1.00
H532   H     0.28496   0.87411   0.35040   0.00000  Uiso   1.00
N533   N     0.23744   0.81881   0.34617   0.00000  Uiso   1.00
N534   N     0.26255   0.84786   0.65383   0.00000  Uiso   1.00
O535   O     0.25325   0.76204   0.53992   0.00000  Uiso   1.00
O536   O     0.24674   0.90462   0.46008   0.00000  Uiso   1.00
O537   O     0.24480   0.75226   0.43612   0.00000  Uiso   1.00
O538   O     0.25520   0.91441   0.56388   0.00000  Uiso   1.00
O539   O     0.18935   0.83821   0.55191   0.00000  Uiso   1.00
O540   O     0.31064   0.82845   0.44809   0.00000  Uiso   1.00
O541   O     0.18090   0.82843   0.44810   0.00000  Uiso   1.00
O542   O     0.31910   0.83824   0.55190   0.00000  Uiso   1.00
O543   O     0.37594   0.73856   0.46738   0.00000  Uiso   1.00
H544   H     0.39080   0.71171   0.48554   0.00000  Uiso   1.00
O545   O     0.12406   0.92811   0.53262   0.00000  Uiso   1.00
H546   H     0.10920   0.95496   0.51446   0.00000  Uiso   1.00
O547   O     0.04026   0.69096   0.44493   0.00000  Uiso   1.00
H548   H     0.01753   0.99421   0.43308   0.00000  Uiso   1.00
O549   O     0.45974   0.97571   0.55507   0.00000  Uiso   1.00
H550   H     0.48247   0.67246   0.56692   0.00000  Uiso   1.00
C551   C     0.74866   0.73326   0.48444   0.00000  Uiso   1.00
C552   C     0.75134   0.93340   0.51556   0.00000  Uiso   1.00
C553   C     0.51896   0.73739   0.46294   0.00000  Uiso   1.00
C554   C     0.98104   0.92927   0.53706   0.00000  Uiso   1.00
C555   C     0.74802   0.67729   0.47569   0.00000  Uiso   1.00
C556   C     0.75198   0.98937   0.52431   0.00000  Uiso   1.00
C557   C     0.66463   0.83331   0.50094   0.00000  Uiso   1.00
C558   C     0.83537   0.83335   0.49906   0.00000  Uiso   1.00
C559   C     0.90875   0.88023   0.51522   0.00000  Uiso   1.00
C560   C     0.59125   0.78643   0.48478   0.00000  Uiso   1.00
C561   C     0.88335   0.83260   0.49699   0.00000  Uiso   1.00
C562   C     0.61665   0.83407   0.50301   0.00000  Uiso   1.00
C563   C     0.90338   0.78438   0.48130   0.00000  Uiso   1.00
C564   C     0.59662   0.88229   0.51870   0.00000  Uiso   1.00
C565   C     0.95053   0.78438   0.48096   0.00000  Uiso   1.00
C566   C     0.54947   0.88229   0.51903   0.00000  Uiso   1.00
C567   C     0.97649   0.83303   0.49960   0.00000  Uiso   1.00
C568   C     0.52351   0.83363   0.50040   0.00000  Uiso   1.00
C569   C     0.95539   0.88114   0.51728   0.00000  Uiso   1.00
C570   C     0.54461   0.78553   0.48272   0.00000  Uiso   1.00
C571   C     0.97212   0.73734   0.46142   0.00000  Uiso   1.00
C572   C     0.52788   0.92932   0.53858   0.00000  Uiso   1.00
Cu573  Cu    0.75500   0.83913   0.56146   0.00000  Uiso   1.00
Cu574  Cu    0.74499   0.82754   0.43854   0.00000  Uiso   1.00
H575   H     0.89170   0.91651   0.52836   0.00000  Uiso   1.00
H576   H     0.60830   0.75015   0.47164   0.00000  Uiso   1.00
H577   H     0.95302   0.70017   0.44405   0.00000  Uiso   1.00
H578   H     0.54698   0.96650   0.55595   0.00000  Uiso   1.00
H579   H     0.74429   0.98680   0.42883   0.00000  Uiso   1.00
H580   H     0.75571   0.67987   0.57117   0.00000  Uiso   1.00
H581   H     0.71504   0.79256   0.64960   0.00000  Uiso   1.00
H582   H     0.78496   0.87411   0.35040   0.00000  Uiso   1.00
N583   N     0.73744   0.81881   0.34617   0.00000  Uiso   1.00
N584   N     0.76255   0.84786   0.65383   0.00000  Uiso   1.00
O585   O     0.75325   0.76204   0.53992   0.00000  Uiso   1.00
O586   O     0.74674   0.90462   0.46008   0.00000  Uiso   1.00
O587   O     0.74480   0.75226   0.43612   0.00000  Uiso   1.00
O588   O     0.75520   0.91441   0.56388   0.00000  Uiso   1.00
O589   O     0.68935   0.83821   0.55191   0.00000  Uiso   1.00
O590   O     0.81064   0.82845   0.44809   0.00000  Uiso   1.00
O591   O     0.68090   0.82843   0.44810   0.00000  Uiso   1.00
O592   O     0.81910   0.83824   0.55190   0.00000  Uiso   1.00
O593   O     0.87594   0.73856   0.46738   0.00000  Uiso   1.00
H594   H     0.89080   0.71171   0.48554   0.00000  Uiso   1.00
O595   O     0.62406   0.92811   0.53262   0.00000  Uiso   1.00
H596   H     0.60920   0.95496   0.51446   0.00000  Uiso   1.00
O597   O     0.54026   0.69096   0.44493   0.00000  Uiso   1.00
H598   H     0.51753   0.99421   0.43308   0.00000  Uiso   1.00
O599   O     0.95974   0.97571   0.55507   0.00000  Uiso   1.00
H600   H     0.98247   0.67246   0.56692   0.00000  Uiso   1.00
C601   C     0.24866   0.06660   0.81778   0.00000  Uiso   1.00
C602   C     0.25134   0.26674   0.84889   0.00000  Uiso   1.00
C603   C     0.01896   0.07073   0.79628   0.00000  Uiso   1.00
C604   C     0.48104   0.26261   0.87039   0.00000  Uiso   1.00
C605   C     0.24802   0.01063   0.80902   0.00000  Uiso   1.00
C606   C     0.25198   0.32271   0.85764   0.00000  Uiso   1.00
C607   C     0.16463   0.16665   0.83427   0.00000  Uiso   1.00
C608   C     0.33537   0.16669   0.83240   0.00000  Uiso   1.00
C609   C     0.40875   0.21357   0.84856   0.00000  Uiso   1.00
C610   C     0.09125   0.11977   0.81811   0.00000  Uiso   1.00
C611   C     0.38335   0.16593   0.83033   0.00000  Uiso   1.00
C612   C     0.11665   0.16741   0.83634   0.00000  Uiso   1.00
C613   C     0.40338   0.11772   0.81464   0.00000  Uiso   1.00
C614   C     0.09662   0.21562   0.85203   0.00000  Uiso   1.00
C615   C     0.45053   0.11771   0.81430   0.00000  Uiso   1.00
C616   C     0.04947   0.21562   0.85237   0.00000  Uiso   1.00
C617   C     0.47649   0.16637   0.83293   0.00000  Uiso   1.00
C618   C     0.02351   0.16697   0.83374   0.00000  Uiso   1.00
C619   C     0.45539   0.21447   0.85061   0.00000  Uiso   1.00
C620   C     0.04461   0.11886   0.81606   0.00000  Uiso   1.00
C621   C     0.47212   0.07068   0.79475   0.00000  Uiso   1.00
C622   C     0.02788   0.26266   0.87191   0.00000  Uiso   1.00
Cu623  Cu    0.25500   0.17246   0.89479   0.00000  Uiso   1.00
Cu624  Cu    0.24499   0.16087   0.77187   0.00000  Uiso   1.00
H625   H     0.39170   0.24985   0.86169   0.00000  Uiso   1.00
H626   H     0.10830   0.08349   0.80498   0.00000  Uiso   1.00
H627   H     0.45302   0.03350   0.77738   0.00000  Uiso   1.00
H628   H     0.04698   0.29983   0.88928   0.00000  Uiso   1.00
H629   H     0.24429   0.32013   0.76216   0.00000  Uiso   1.00
H630   H     0.25571   0.01320   0.90450   0.00000  Uiso   1.00
H631   H     0.21504   0.12589   0.98293   0.00000  Uiso   1.00
H632   H     0.28496   0.20744   0.68373   0.00000  Uiso   1.00
N633   N     0.23744   0.15214   0.67951   0.00000  Uiso   1.00
N634   N     0.26255   0.18119   0.98716   0.00000  Uiso   1.00
O635   O     0.25325   0.09538   0.87326   0.00000  Uiso   1.00
O636   O     0.24674   0.23796   0.79341   0.00000  Uiso   1.00
O637   O     0.24480   0.08559   0.76945   0.00000  Uiso   1.00
O638   O     0.25520   0.24774   0.89721   0.00000  Uiso   1.00
O639   O     0.18935   0.17155   0.88524   0.00000  Uiso   1.00
O640   O     0.31064   0.16179   0.78143   0.00000  Uiso   1.00
O641   O     0.18090   0.16176   0.78143   0.00000  Uiso   1.00
O642   O     0.31910   0.17157   0.88523   0.00000  Uiso   1.00
O643   O     0.37594   0.07189   0.80071   0.00000  Uiso   1.00
H644   H     0.39080   0.04504   0.81887   0.00000  Uiso   1.00
O645   O     0.12406   0.26144   0.86595   0.00000  Uiso   1.00
H646   H     0.10920   0.28829   0.84779   0.00000  Uiso   1.00
O647   O     0.04026   0.02429   0.77827   0.00000  Uiso   1.00
H648   H     0.01753   0.32754   0.76641   0.00000  Uiso   1.00
O649   O     0.45974   0.30904   0.88840   0.00000  Uiso   1.00
H650   H     0.48247   0.00579   0.90025   0.00000  Uiso   1.00
C651   C     0.74866   0.06660   0.81778   0.00000  Uiso   1.00
C652   C     0.75134   0.26674   0.84889   0.00000  Uiso   1.00
C653   C     0.51896   0.07073   0.79628   0.00000  Uiso   1.00
C654   C     0.98104   0.26261   0.87039   0.00000  Uiso   1.00
C655   C     0.74802   0.01063   0.80902   0.00000  Uiso   1.00
C656   C     0.75198   0.32271   0.85764   0.00000  Uiso   1.00
C657   C     0.66463   0.16665   0.83427   0.00000  Uiso   1.00
C658   C     0.83537   0.16669   0.83240   0.00000  Uiso   1.00
C659   C     0.90875   0.21357   0.84856   0.00000  Uiso   1.00
C660   C     0.59125   0.11977   0.81811   0.00000  Uiso   1.00
C661   C     0.88335   0.16593   0.83033   0.00000  Uiso   1.00
C662   C     0.61665   0.16741   0.83634   0.00000  Uiso   1.00
C663   C     0.90338   0.11772   0.81464   0.00000  Uiso   1.00
C664   C     0.59662   0.21562   0.85203   0.00000  Uiso   1.00
C665   C     0.95053   0.11771   0.81430   0.00000  Uiso   1.00
C666   C     0.54947   0.21562   0.85237   0.00000  Uiso   1.00
C667   C     0.97649   0.16637   0.83293   0.00000  Uiso   1.00
C668   C     0.52351   0.16697   0.83374   0.00000  Uiso   1.00
C669   C     0.95539   0.21447   0.85061   0.00000  Uiso   1.00
C670   C     0.54461   0.11886   0.81606   0.00000  Uiso   1.00
C671   C     0.97212   0.07068   0.79475   0.00000  Uiso   1.00
C672   C     0.52788   0.26266   0.87191   0.00000  Uiso   1.00
Cu673  Cu    0.75500   0.17246   0.89479   0.00000  Uiso   1.00
Cu674  Cu    0.74499   0.16087   0.77187   0.00000  Uiso   1.00
H675   H     0.89170   0.24985   0.86169   0.00000  Uiso   1.00
H676   H     0.60830   0.08349   0.80498   0.00000  Uiso   1.00
H677   H     0.95302   0.03350   0.77738   0.00000  Uiso   1.00
H678   H     0.54698   0.29983   0.88928   0.00000  Uiso   1.00
H679   H     0.74429   0.32013   0.76216   0.00000  Uiso   1.00
H680   H     0.75571   0.01320   0.90450   0.00000  Uiso   1.00
H681   H     0.71504   0.12589   0.98293   0.00000  Uiso   1.00
H682   H     0.78496   0.20744   0.68373   0.00000  Uiso   1.00
N683   N     0.73744   0.15214   0.67951   0.00000  Uiso   1.00
N684   N     0.76255   0.18119   0.98716   0.00000  Uiso   1.00
O685   O     0.75325   0.09538   0.87326   0.00000  Uiso   1.00
O686   O     0.74674   0.23796   0.79341   0.00000  Uiso   1.00
O687   O     0.74480   0.08559   0.76945   0.00000  Uiso   1.00
O688   O     0.75520   0.24774   0.89721   0.00000  Uiso   1.00
O689   O     0.68935   0.17155   0.88524   0.00000  Uiso   1.00
O690   O     0.81064   0.16179   0.78143   0.00000  Uiso   1.00
O691   O     0.68090   0.16176   0.78143   0.00000  Uiso   1.00
O692   O     0.81910   0.17157   0.88523   0.00000  Uiso   1.00
O693   O     0.87594   0.07189   0.80071   0.00000  Uiso   1.00
H694   H     0.89080   0.04504   0.81887   0.00000  Uiso   1.00
O695   O     0.62406   0.26144   0.86595   0.00000  Uiso   1.00
H696   H     0.60920   0.28829   0.84779   0.00000  Uiso   1.00
O697   O     0.54026   0.02429   0.77827   0.00000  Uiso   1.00
H698   H     0.51753   0.32754   0.76641   0.00000  Uiso   1.00
O699   O     0.95974   0.30904   0.88840   0.00000  Uiso   1.00
H700   H     0.98247   0.00579   0.90025   0.00000  Uiso   1.00
C701   C     0.24866   0.39993   0.81778   0.00000  Uiso   1.00
C702   C     0.25134   0.60007   0.84889   0.00000  Uiso   1.00
C703   C     0.01896   0.40406   0.79628   0.00000  Uiso   1.00
C704   C     0.48104   0.59594   0.87039   0.00000  Uiso   1.00
C705   C     0.24802   0.34396   0.80902   0.00000  Uiso   1.00
C706   C     0.25198   0.65604   0.85764   0.00000  Uiso   1.00
C707   C     0.16463   0.49998   0.83427   0.00000  Uiso   1.00
C708   C     0.33537   0.50002   0.83240   0.00000  Uiso   1.00
C709   C     0.40875   0.54690   0.84856   0.00000  Uiso   1.00
C710   C     0.09125   0.45310   0.81811   0.00000  Uiso   1.00
C711   C     0.38335   0.49926   0.83033   0.00000  Uiso   1.00
C712   C     0.11665   0.50074   0.83634   0.00000  Uiso   1.00
C713   C     0.40338   0.45105   0.81464   0.00000  Uiso   1.00
C714   C     0.09662   0.54895   0.85203   0.00000  Uiso   1.00
C715   C     0.45053   0.45105   0.81430   0.00000  Uiso   1.00
C716   C     0.04947   0.54895   0.85237   0.00000  Uiso   1.00
C717   C     0.47649   0.49970   0.83293   0.00000  Uiso   1.00
C718   C     0.02351   0.50030   0.83374   0.00000  Uiso   1.00
C719   C     0.45539   0.54781   0.85061   0.00000  Uiso   1.00
C720   C     0.04461   0.45219   0.81606   0.00000  Uiso   1.00
C721   C     0.47212   0.40401   0.79475   0.00000  Uiso   1.00
C722   C     0.02788   0.59599   0.87191   0.00000  Uiso   1.00
Cu723  Cu    0.25500   0.50579   0.89479   0.00000  Uiso   1.00
Cu724  Cu    0.24499   0.49421   0.77187   0.00000  Uiso   1.00
H725   H     0.39170   0.58318   0.86169   0.00000  Uiso   1.00
H726   H     0.10830   0.41682   0.80498   0.00000  Uiso   1.00
H727   H     0.45302   0.36683   0.77738   0.00000  Uiso   1.00
H728   H     0.04698   0.63317   0.88928   0.00000  Uiso   1.00
H729   H     0.24429   0.65346   0.76216   0.00000  Uiso   1.00
H730   H     0.25571   0.34654   0.90450   0.00000  Uiso   1.00
H731   H     0.21504   0.45923   0.98293   0.00000  Uiso   1.00
H732   H     0.28496   0.54077   0.68373   0.00000  Uiso   1.00
N733   N     0.23744   0.48547   0.67951   0.00000  Uiso   1.00
N734   N     0.26255   0.51453   0.98716   0.00000  Uiso   1.00
O735   O     0.25325   0.42871   0.87326   0.00000  Uiso   1.00
O736   O     0.24674   0.57129   0.79341   0.00000  Uiso   1.00
O737   O     0.24480   0.41892   0.76945   0.00000  Uiso   1.00
O738   O     0.25520   0.58108   0.89721   0.00000  Uiso   1.00
O739   O     0.18935   0.50488   0.88524   0.00000  Uiso   1.00
O740   O     0.31064   0.49512   0.78143   0.00000  Uiso   1.00
O741   O     0.18090   0.49510   0.78143   0.00000  Uiso   1.00
O742   O     0.31910   0.50490   0.88523   0.00000  Uiso   1.00
O743   O     0.37594   0.40523   0.80071   0.00000  Uiso   1.00
H744   H     0.39080   0.37838   0.81887   0.00000  Uiso   1.00
O745   O     0.12406   0.59477   0.86595   0.00000  Uiso   1.00
H746   H     0.10920   0.62162   0.84779   0.00000  Uiso   1.00
O747   O     0.04026   0.35763   0.77827   0.00000  Uiso   1.00
H748   H     0.01753   0.66087   0.76641   0.00000  Uiso   1.00
O749   O     0.45974   0.64237   0.88840   0.00000  Uiso   1.00
H750   H     0.48247   0.33913   0.90025   0.00000  Uiso   1.00
C751   C     0.74866   0.39993   0.81778   0.00000  Uiso   1.00
C752   C     0.75134   0.60007   0.84889   0.00000  Uiso   1.00
C753   C     0.51896   0.40406   0.79628   0.00000  Uiso   1.00
C754   C     0.98104   0.59594   0.87039   0.00000  Uiso   1.00
C755   C     0.74802   0.34396   0.80902   0.00000  Uiso   1.00
C756   C     0.75198   0.65604   0.85764   0.00000  Uiso   1.00
C757   C     0.66463   0.49998   0.83427   0.00000  Uiso   1.00
C758   C     0.83537   0.50002   0.83240   0.00000  Uiso   1.00
C759   C     0.90875   0.54690   0.84856   0.00000  Uiso   1.00
C760   C     0.59125   0.45310   0.81811   0.00000  Uiso   1.00
C761   C     0.88335   0.49926   0.83033   0.00000  Uiso   1.00
C762   C     0.61665   0.50074   0.83634   0.00000  Uiso   1.00
C763   C     0.90338   0.45105   0.81464   0.00000  Uiso   1.00
C764   C     0.59662   0.54895   0.85203   0.00000  Uiso   1.00
C765   C     0.95053   0.45105   0.81430   0.00000  Uiso   1.00
C766   C     0.54947   0.54895   0.85237   0.00000  Uiso   1.00
C767   C     0.97649   0.49970   0.83293   0.00000  Uiso   1.00
C768   C     0.52351   0.50030   0.83374   0.00000  Uiso   1.00
C769   C     0.95539   0.54781   0.85061   0.00000  Uiso   1.00
C770   C     0.54461   0.45219   0.81606   0.00000  Uiso   1.00
C771   C     0.97212   0.40401   0.79475   0.00000  Uiso   1.00
C772   C     0.52788   0.59599   0.87191   0.00000  Uiso   1.00
Cu773  Cu    0.75500   0.50579   0.89479   0.00000  Uiso   1.00
Cu774  Cu    0.74499   0.49421   0.77187   0.00000  Uiso   1.00
H775   H     0.89170   0.58318   0.86169   0.00000  Uiso   1.00
H776   H     0.60830   0.41682   0.80498   0.00000  Uiso   1.00
H777   H     0.95302   0.36683   0.77738   0.00000  Uiso   1.00
H778   H     0.54698   0.63317   0.88928   0.00000  Uiso   1.00
H779   H     0.74429   0.65346   0.76216   0.00000  Uiso   1.00
H780   H     0.75571   0.34654   0.90450   0.00000  Uiso   1.00
H781   H     0.71504   0.45923   0.98293   0.00000  Uiso   1.00
H782   H     0.78496   0.54077   0.68373   0.00000  Uiso   1.00
N783   N     0.73744   0.48547   0.67951   0.00000  Uiso   1.00
N784   N     0.76255   0.51453   0.98716   0.00000  Uiso   1.00
O785   O     0.75325   0.42871   0.87326   0.00000  Uiso   1.00
O786   O     0.74674   0.57129   0.79341   0.00000  Uiso   1.00
O787   O     0.74480   0.41892   0.76945   0.00000  Uiso   1.00
O788   O     0.75520   0.58108   0.89721   0.00000  Uiso   1.00
O789   O     0.68935   0.50488   0.88524   0.00000  Uiso   1.00
O790   O     0.81064   0.49512   0.78143   0.00000  Uiso   1.00
O791   O     0.68090   0.49510   0.78143   0.00000  Uiso   1.00
O792   O     0.81910   0.50490   0.88523   0.00000  Uiso   1.00
O793   O     0.87594   0.40523   0.80071   0.00000  Uiso   1.00
H794   H     0.89080   0.37838   0.81887   0.00000  Uiso   1.00
O795   O     0.62406   0.59477   0.86595   0.00000  Uiso   1.00
H796   H     0.60920   0.62162   0.84779   0.00000  Uiso   1.00
O797   O     0.54026   0.35763   0.77827   0.00000  Uiso   1.00
H798   H     0.51753   0.66087   0.76641   0.00000  Uiso   1.00
O799   O     0.95974   0.64237   0.88840   0.00000  Uiso   1.00
H800   H     0.98247   0.33913   0.90025   0.00000  Uiso   1.00
C801   C     0.24866   0.73326   0.81778   0.00000  Uiso   1.00
C802   C     0.25134   0.93340   0.84889   0.00000  Uiso   1.00
C803   C     0.01896   0.73739   0.79628   0.00000  Uiso   1.00
C804   C     0.48104   0.92927   0.87039   0.00000  Uiso   1.00
C805   C     0.24802   0.67729   0.80902   0.00000  Uiso   1.00
C806   C     0.25198   0.98937   0.85764   0.00000  Uiso   1.00
C807   C     0.16463   0.83331   0.83427   0.00000  Uiso   1.00
C808   C     0.33537   0.83335   0.83240   0.00000  Uiso   1.00
C809   C     0.40875   0.88023   0.84856   0.00000  Uiso   1.00
C810   C     0.09125   0.78643   0.81811   0.00000  Uiso   1.00
C811   C     0.38335   0.83260   0.83033   0.00000  Uiso   1.00
C812   C     0.11665   0.83407   0.83634   0.00000  Uiso   1.00
C813   C     0.40338   0.78438   0.81464   0.00000  Uiso   1.00
C814   C     0.09662   0.88229   0.85203   0.00000  Uiso   1.00
C815   C     0.45053   0.78438   0.81430   0.00000  Uiso   1.00
C816   C     0.04947   0.88229   0.85237   0.00000  Uiso   1.00
C817   C     0.47649   0.83303   0.83293   0.00000  Uiso   1.00
C818   C     0.02351   0.83363   0.83374   0.00000  Uiso   1.00
C819   C     0.45539   0.88114   0.85061   0.00000  Uiso   1.00
C820   C     0.04461   0.78553   0.81606   0.00000  Uiso   1.00
C821   C     0.47212   0.73734   0.79475   0.00000  Uiso   1.00
C822   C     0.02788   0.92932   0.87191   0.00000  Uiso   1.00
Cu823  Cu    0.25500   0.83913   0.89479   0.00000  Uiso   1.00
Cu824  Cu    0.24499   0.82754   0.77187   0.00000  Uiso   1.00
H825   H     0.39170   0.91651   0.86169   0.00000  Uiso   1.00
H826   H     0.10830   0.75015   0.80498   0.00000  Uiso   1.00
H827   H     0.45302   0.70017   0.77738   0.00000  Uiso   1.00
H828   H     0.04698   0.96650   0.88928   0.00000  Uiso   1.00
H829   H     0.24429   0.98680   0.76216   0.00000  Uiso   1.00
H830   H     0.25571   0.67987   0.90450   0.00000  Uiso   1.00
H831   H     0.21504   0.79256   0.98293   0.00000  Uiso   1.00
H832   H     0.28496   0.87411   0.68373   0.00000  Uiso   1.00
N833   N     0.23744   0.81881   0.67951   0.00000  Uiso   1.00
N834   N     0.26255   0.84786   0.98716   0.00000  Uiso   1.00
O835   O     0.25325   0.76204   0.87326   0.00000  Uiso   1.00
O836   O     0.24674   0.90462   0.79341   0.00000  Uiso   1.00
O837   O     0.24480   0.75226   0.76945   0.00000  Uiso   1.00
O838   O     0.25520   0.91441   0.89721   0.00000  Uiso   1.00
O839   O     0.18935   0.83821   0.88524   0.00000  Uiso   1.00
O840   O     0.31064   0.82845   0.78143   0.00000  Uiso   1.00
O841   O     0.18090   0.82843   0.78143   0.00000  Uiso   1.00
O842   O     0.31910   0.83824   0.88523   0.00000  Uiso   1.00
O843   O     0.37594   0.73856   0.80071   0.00000  Uiso   1.00
H844   H     0.39080   0.71171   0.81887   0.00000  Uiso   1.00
O845   O     0.12406   0.92811   0.86595   0.00000  Uiso   1.00
H846   H     0.10920   0.95496   0.84779   0.00000  Uiso   1.00
O847   O     0.04026   0.69096   0.77827   0.00000  Uiso   1.00
H848   H     0.01753   0.99421   0.76641   0.00000  Uiso   1.00
O849   O     0.45974   0.97571   0.88840   0.00000  Uiso   1.00
H850   H     0.48247   0.67246   0.90025   0.00000  Uiso   1.00
C851   C     0.74866   0.73326   0.81778   0.00000  Uiso   1.00
C852   C     0.75134   0.93340   0.84889   0.00000  Uiso   1.00
C853   C     0.51896   0.73739   0.79628   0.00000  Uiso   1.00
C854   C     0.98104   0.92927   0.87039   0.00000  Uiso   1.00
C855   C     0.74802   0.67729   0.80902   0.00000  Uiso   1.00
C856   C     0.75198   0.98937   0.85764   0.00000  Uiso   1.00
C857   C     0.66463   0.83331   0.83427   0.00000  Uiso   1.00
C858   C     0.83537   0.83335   0.83240   0.00000  Uiso   1.00
C859   C     0.90875   0.88023   0.84856   0.00000  Uiso   1.00
C860   C     0.59125   0.78643   0.81811   0.00000  Uiso   1.00
C861   C     0.88335   0.83260   0.83033   0.00000  Uiso   1.00
C862   C     0.61665   0.83407   0.83634   0.00000  Uiso   1.00
C863   C     0.90338   0.78438   0.81464   0.00000  Uiso   1.00
C864   C     0.59662   0.88229   0.85203   0.00000  Uiso   1.00
C865   C     0.95053   0.78438   0.81430   0.00000  Uiso   1.00
C866   C     0.54947   0.88229   0.85237   0.00000  Uiso   1.00
C867   C     0.97649   0.83303   0.83293   0.00000  Uiso   1.00
C868   C     0.52351   0.83363   0.83374   0.00000  Uiso   1.00
C869   C     0.95539   0.88114   0.85061   0.00000  Uiso   1.00
C870   C     0.54461   0.78553   0.81606   0.00000  Uiso   1.00
C871   C     0.97212   0.73734   0.79475   0.00000  Uiso   1.00
C872   C     0.52788   0.92932   0.87191   0.00000  Uiso   1.00
Cu873  Cu    0.75500   0.83913   0.89479   0.00000  Uiso   1.00
Cu874  Cu    0.74499   0.82754   0.77187   0.00000  Uiso   1.00
H875   H     0.89170   0.91651   0.86169   0.00000  Uiso   1.00
H876   H     0.60830   0.75015   0.80498   0.00000  Uiso   1.00
H877   H     0.95302   0.70017   0.77738   0.00000  Uiso   1.00
H878   H     0.54698   0.96650   0.88928   0.00000  Uiso   1.00
H879   H     0.74429   0.98680   0.76216   0.00000  Uiso   1.00
H880   H     0.75571   0.67987   0.90450   0.00000  Uiso   1.00
H881   H     0.71504   0.79256   0.98293   0.00000  Uiso   1.00
H882   H     0.78496   0.87411   0.68373   0.00000  Uiso   1.00
N883   N     0.73744   0.81881   0.67951   0.00000  Uiso   1.00
N884   N     0.76255   0.84786   0.98716   0.00000  Uiso   1.00
O885   O     0.75325   0.76204   0.87326   0.00000  Uiso   1.00
O886   O     0.74674   0.90462   0.79341   0.00000  Uiso   1.00
O887   O     0.74480   0.75226   0.76945   0.00000  Uiso   1.00
O888   O     0.75520   0.91441   0.89721   0.00000  Uiso   1.00
O889   O     0.68935   0.83821   0.88524   0.00000  Uiso   1.00
O890   O     0.81064   0.82845   0.78143   0.00000  Uiso   1.00
O891   O     0.68090   0.82843   0.78143   0.00000  Uiso   1.00
O892   O     0.81910   0.83824   0.88523   0.00000  Uiso   1.00
O893   O     0.87594   0.73856   0.80071   0.00000  Uiso   1.00
H894   H     0.89080   0.71171   0.81887   0.00000  Uiso   1.00
O895   O     0.62406   0.92811   0.86595   0.00000  Uiso   1.00
H896   H     0.60920   0.95496   0.84779   0.00000  Uiso   1.00
O897   O     0.54026   0.69096   0.77827   0.00000  Uiso   1.00
H898   H     0.51753   0.99421   0.76641   0.00000  Uiso   1.00
O899   O     0.95974   0.97571   0.88840   0.00000  Uiso   1.00
H900   H     0.98247   0.67246   0.90025   0.00000  Uiso   1.00
loop_
_geom_bond_atom_site_label_1
_geom_bond_atom_site_label_2
_geom_bond_distance
_geom_bond_site_symmetry_2
_ccdc_geom_bond_type
C1     O37     1.285   .     A
C1     C5      1.425   .     S
C1     O35     1.293   .     A
C2     O38     1.285   .     A
C2     O36     1.293   .     A
C2     C6      1.425   .     S
C3     C20     1.406   .     A
C3     O47     1.384   .     S
C3     C71     1.401   1_455 S
C4     O49     1.384   .     S
C4     C19     1.406   .     A
C4     C72     1.401   .     S
C5     C206    1.326   1_545 S
C5     H229    1.088   1_545 S
C6     C105    1.326   .     S
C6     H130    1.088   .     S
C7     O41     1.291   .     A
C7     C12     1.442   .     S
C7     O39     1.294   .     A
C8     C11     1.442   .     S
C8     O42     1.291   .     A
C8     O40     1.294   .     A
C9     H25     1.085   .     S
C9     C11     1.390   .     A
C9     C19     1.394   .     A
C10    H26     1.085   .     S
C10    C12     1.390   .     A
C10    C20     1.394   .     A
C11    C13     1.398   .     A
C12    C14     1.398   .     A
C13    O43     1.382   .     S
C13    C15     1.413   .     A
C14    O45     1.382   .     S
C14    C16     1.413   .     A
C15    C21     1.406   .     A
C15    C17     1.420   .     A
C16    C18     1.420   .     A
C16    C22     1.406   .     A
C17    C19     1.416   .     A
C17    C68     1.407   .     S
C18    C20     1.416   .     A
C18    C67     1.407   1_455 S
C21    H27     1.081   .     S
C21    C53     1.401   .     S
C22    H28     1.081   .     S
C22    C54     1.401   1_455 S
Cu23   O38     1.948   .     S
Cu23   O35     1.953   .     S
Cu23   Cu24    2.692   .     S
Cu23   N34     2.023   .     S
Cu23   O42     1.947   .     S
Cu23   O39     1.962   .     S
Cu24   N33     2.023   .     S
Cu24   O37     1.948   .     S
Cu24   O41     1.947   .     S
Cu24   O36     1.953   .     S
Cu24   O40     1.962   .     S
H29    C105    1.088   .     S
H30    C206    1.088   1_545 S
H31    N333    1.029   .     S
H32    N634    1.029   1_554 S
N33    H631    1.029   1_554 S
N33    N634    1.293   1_554 S
N34    N333    1.293   .     S
N34    H332    1.029   .     S
O43    H44     0.990   .     S
O45    H46     0.990   .     S
O47    H248    0.992   1_545 S
H48    O147    0.992   .     S
O49    H150    0.992   .     S
H50    O249    0.992   1_545 S
C51    O87     1.285   .     A
C51    C55     1.425   .     S
C51    O85     1.293   .     A
C52    O88     1.285   .     A
C52    O86     1.293   .     A
C52    C56     1.425   .     S
C53    C70     1.406   .     A
C53    O97     1.384   .     S
C54    O99     1.384   .     S
C54    C69     1.406   .     A
C54    C22     1.401   1_655 S
C55    C256    1.326   1_545 S
C55    H279    1.088   1_545 S
C56    C155    1.326   .     S
C56    H180    1.088   .     S
C57    O91     1.291   .     A
C57    C62     1.442   .     S
C57    O89     1.294   .     A
C58    C61     1.442   .     S
C58    O92     1.291   .     A
C58    O90     1.294   .     A
C59    H75     1.085   .     S
C59    C61     1.390   .     A
C59    C69     1.394   .     A
C60    H76     1.085   .     S
C60    C62     1.390   .     A
C60    C70     1.394   .     A
C61    C63     1.398   .     A
C62    C64     1.398   .     A
C63    O93     1.382   .     S
C63    C65     1.413   .     A
C64    O95     1.382   .     S
C64    C66     1.413   .     A
C65    C71     1.406   .     A
C65    C67     1.420   .     A
C66    C68     1.420   .     A
C66    C72     1.406   .     A
C67    C69     1.416   .     A
C67    C18     1.407   1_655 S
C68    C70     1.416   .     A
C71    H77     1.081   .     S
C71    C3      1.401   1_655 S
C72    H78     1.081   .     S
Cu73   O88     1.948   .     S
Cu73   O85     1.953   .     S
Cu73   Cu74    2.692   .     S
Cu73   N84     2.023   .     S
Cu73   O92     1.947   .     S
Cu73   O89     1.962   .     S
Cu74   N83     2.023   .     S
Cu74   O87     1.948   .     S
Cu74   O91     1.947   .     S
Cu74   O86     1.953   .     S
Cu74   O90     1.962   .     S
H79    C155    1.088   .     S
H80    C256    1.088   1_545 S
H81    N383    1.029   .     S
H82    N684    1.029   1_554 S
N83    H681    1.029   1_554 S
N83    N684    1.293   1_554 S
N84    N383    1.293   .     S
N84    H382    1.029   .     S
O93    H94     0.990   .     S
O95    H96     0.990   .     S
O97    H298    0.992   1_545 S
H98    O197    0.992   .     S
O99    H200    0.992   .     S
H100   O299    0.992   1_545 S
C101   O137    1.285   .     A
C101   C105    1.425   .     S
C101   O135    1.293   .     A
C102   O138    1.285   .     A
C102   O136    1.293   .     A
C102   C106    1.425   .     S
C103   C120    1.406   .     A
C103   O147    1.384   .     S
C103   C171    1.401   1_455 S
C104   O149    1.384   .     S
C104   C119    1.406   .     A
C104   C172    1.401   .     S
C106   C205    1.326   .     S
C106   H230    1.088   .     S
C107   O141    1.291   .     A
C107   C112    1.442   .     S
C107   O139    1.294   .     A
C108   C111    1.442   .     S
C108   O142    1.291   .     A
C108   O140    1.294   .     A
C109   H125    1.085   .     S
C109   C111    1.390   .     A
C109   C119    1.394   .     A
C110   H126    1.085   .     S
C110   C112    1.390   .     A
C110   C120    1.394   .     A
C111   C113    1.398   .     A
C112   C114    1.398   .     A
C113   O143    1.382   .     S
C113   C115    1.413   .     A
C114   O145    1.382   .     S
C114   C116    1.413   .     A
C115   C121    1.406   .     A
C115   C117    1.420   .     A
C116   C118    1.420   .     A
C116   C122    1.406   .     A
C117   C119    1.416   .     A
C117   C168    1.407   .     S
C118   C120    1.416   .     A
C118   C167    1.407   1_455 S
C121   H127    1.081   .     S
C121   C153    1.401   .     S
C122   H128    1.081   .     S
C122   C154    1.401   1_455 S
Cu123  O138    1.948   .     S
Cu123  O135    1.953   .     S
Cu123  Cu124   2.692   .     S
Cu123  N134    2.023   .     S
Cu123  O142    1.947   .     S
Cu123  O139    1.962   .     S
Cu124  N133    2.023   .     S
Cu124  O137    1.948   .     S
Cu124  O141    1.947   .     S
Cu124  O136    1.953   .     S
Cu124  O140    1.962   .     S
H129   C205    1.088   .     S
H131   N433    1.029   .     S
H132   N734    1.029   1_554 S
N133   H731    1.029   1_554 S
N133   N734    1.293   1_554 S
N134   N433    1.293   .     S
N134   H432    1.029   .     S
O143   H144    0.990   .     S
O145   H146    0.990   .     S
H148   O247    0.992   .     S
O149   H250    0.992   .     S
C151   O187    1.285   .     A
C151   C155    1.425   .     S
C151   O185    1.293   .     A
C152   O188    1.285   .     A
C152   O186    1.293   .     A
C152   C156    1.425   .     S
C153   C170    1.406   .     A
C153   O197    1.384   .     S
C154   O199    1.384   .     S
C154   C169    1.406   .     A
C154   C122    1.401   1_655 S
C156   C255    1.326   .     S
C156   H280    1.088   .     S
C157   O191    1.291   .     A
C157   C162    1.442   .     S
C157   O189    1.294   .     A
C158   C161    1.442   .     S
C158   O192    1.291   .     A
C158   O190    1.294   .     A
C159   H175    1.085   .     S
C159   C161    1.390   .     A
C159   C169    1.394   .     A
C160   H176    1.085   .     S
C160   C162    1.390   .     A
C160   C170    1.394   .     A
C161   C163    1.398   .     A
C162   C164    1.398   .     A
C163   O193    1.382   .     S
C163   C165    1.413   .     A
C164   O195    1.382   .     S
C164   C166    1.413   .     A
C165   C171    1.406   .     A
C165   C167    1.420   .     A
C166   C168    1.420   .     A
C166   C172    1.406   .     A
C167   C169    1.416   .     A
C167   C118    1.407   1_655 S
C168   C170    1.416   .     A
C171   H177    1.081   .     S
C171   C103    1.401   1_655 S
C172   H178    1.081   .     S
Cu173  O188    1.948   .     S
Cu173  O185    1.953   .     S
Cu173  Cu174   2.692   .     S
Cu173  N184    2.023   .     S
Cu173  O192    1.947   .     S
Cu173  O189    1.962   .     S
Cu174  N183    2.023   .     S
Cu174  O187    1.948   .     S
Cu174  O191    1.947   .     S
Cu174  O186    1.953   .     S
Cu174  O190    1.962   .     S
H179   C255    1.088   .     S
H181   N483    1.029   .     S
H182   N784    1.029   1_554 S
N183   H781    1.029   1_554 S
N183   N784    1.293   1_554 S
N184   N483    1.293   .     S
N184   H482    1.029   .     S
O193   H194    0.990   .     S
O195   H196    0.990   .     S
H198   O297    0.992   .     S
O199   H300    0.992   .     S
C201   O237    1.285   .     A
C201   C205    1.425   .     S
C201   O235    1.293   .     A
C202   O238    1.285   .     A
C202   O236    1.293   .     A
C202   C206    1.425   .     S
C203   C220    1.406   .     A
C203   O247    1.384   .     S
C203   C271    1.401   1_455 S
C204   O249    1.384   .     S
C204   C219    1.406   .     A
C204   C272    1.401   .     S
C206   C5      1.326   1_565 S
C206   H30     1.088   1_565 S
C207   O241    1.291   .     A
C207   C212    1.442   .     S
C207   O239    1.294   .     A
C208   C211    1.442   .     S
C208   O242    1.291   .     A
C208   O240    1.294   .     A
C209   H225    1.085   .     S
C209   C211    1.390   .     A
C209   C219    1.394   .     A
C210   H226    1.085   .     S
C210   C212    1.390   .     A
C210   C220    1.394   .     A
C211   C213    1.398   .     A
C212   C214    1.398   .     A
C213   O243    1.382   .     S
C213   C215    1.413   .     A
C214   O245    1.382   .     S
C214   C216    1.413   .     A
C215   C221    1.406   .     A
C215   C217    1.420   .     A
C216   C218    1.420   .     A
C216   C222    1.406   .     A
C217   C219    1.416   .     A
C217   C268    1.407   .     S
C218   C220    1.416   .     A
C218   C267    1.407   1_455 S
C221   H227    1.081   .     S
C221   C253    1.401   .     S
C222   H228    1.081   .     S
C222   C254    1.401   1_455 S
Cu223  O238    1.948   .     S
Cu223  O235    1.953   .     S
Cu223  Cu224   2.692   .     S
Cu223  N234    2.023   .     S
Cu223  O242    1.947   .     S
Cu223  O239    1.962   .     S
Cu224  N233    2.023   .     S
Cu224  O237    1.948   .     S
Cu224  O241    1.947   .     S
Cu224  O236    1.953   .     S
Cu224  O240    1.962   .     S
H229   C5      1.088   1_565 S
H231   N533    1.029   .     S
H232   N834    1.029   1_554 S
N233   H831    1.029   1_554 S
N233   N834    1.293   1_554 S
N234   N533    1.293   .     S
N234   H532    1.029   .     S
O243   H244    0.990   .     S
O245   H246    0.990   .     S
H248   O47     0.992   1_565 S
O249   H50     0.992   1_565 S
C251   O287    1.285   .     A
C251   C255    1.425   .     S
C251   O285    1.293   .     A
C252   O288    1.285   .     A
C252   O286    1.293   .     A
C252   C256    1.425   .     S
C253   C270    1.406   .     A
C253   O297    1.384   .     S
C254   O299    1.384   .     S
C254   C269    1.406   .     A
C254   C222    1.401   1_655 S
C256   C55     1.326   1_565 S
C256   H80     1.088   1_565 S
C257   O291    1.291   .     A
C257   C262    1.442   .     S
C257   O289    1.294   .     A
C258   C261    1.442   .     S
C258   O292    1.291   .     A
C258   O290    1.294   .     A
C259   H275    1.085   .     S
C259   C261    1.390   .     A
C259   C269    1.394   .     A
C260   H276    1.085   .     S
C260   C262    1.390   .     A
C260   C270    1.394   .     A
C261   C263    1.398   .     A
C262   C264    1.398   .     A
C263   O293    1.382   .     S
C263   C265    1.413   .     A
C264   O295    1.382   .     S
C264   C266    1.413   .     A
C265   C271    1.406   .     A
C265   C267    1.420   .     A
C266   C268    1.420   .     A
C266   C272    1.406   .     A
C267   C269    1.416   .     A
C267   C218    1.407   1_655 S
C268   C270    1.416   .     A
C271   H277    1.081   .     S
C271   C203    1.401   1_655 S
C272   H278    1.081   .     S
Cu273  O288    1.948   .     S
Cu273  O285    1.953   .     S
Cu273  Cu274   2.692   .     S
Cu273  N284    2.023   .     S
Cu273  O292    1.947   .     S
Cu273  O289    1.962   .     S
Cu274  N283    2.023   .     S
Cu274  O287    1.948   .     S
Cu274  O291    1.947   .     S
Cu274  O286    1.953   .     S
Cu274  O290    1.962   .     S
H279   C55     1.088   1_565 S
H281   N583    1.029   .     S
H282   N884    1.029   1_554 S
N283   H881    1.029   1_554 S
N283   N884    1.293   1_554 S
N284   N583    1.293   .     S
N284   H582    1.029   .     S
O293   H294    0.990   .     S
O295   H296    0.990   .     S
H298   O97     0.992   1_565 S
O299   H100    0.992   1_565 S
C301   O337    1.285   .     A
C301   C305    1.425   .     S
C301   O335    1.293   .     A
C302   O338    1.285   .     A
C302   O336    1.293   .     A
C302   C306    1.425   .     S
C303   C320    1.406   .     A
C303   O347    1.384   .     S
C303   C371    1.401   1_455 S
C304   O349    1.384   .     S
C304   C319    1.406   .     A
C304   C372    1.401   .     S
C305   C506    1.326   1_545 S
C305   H529    1.088   1_545 S
C306   C405    1.326   .     S
C306   H430    1.088   .     S
C307   O341    1.291   .     A
C307   C312    1.442   .     S
C307   O339    1.294   .     A
C308   C311    1.442   .     S
C308   O342    1.291   .     A
C308   O340    1.294   .     A
C309   H325    1.085   .     S
C309   C311    1.390   .     A
C309   C319    1.394   .     A
C310   H326    1.085   .     S
C310   C312    1.390   .     A
C310   C320    1.394   .     A
C311   C313    1.398   .     A
C312   C314    1.398   .     A
C313   O343    1.382   .     S
C313   C315    1.413   .     A
C314   O345    1.382   .     S
C314   C316    1.413   .     A
C315   C321    1.406   .     A
C315   C317    1.420   .     A
C316   C318    1.420   .     A
C316   C322    1.406   .     A
C317   C319    1.416   .     A
C317   C368    1.407   .     S
C318   C320    1.416   .     A
C318   C367    1.407   1_455 S
C321   H327    1.081   .     S
C321   C353    1.401   .     S
C322   H328    1.081   .     S
C322   C354    1.401   1_455 S
Cu323  O338    1.948   .     S
Cu323  O335    1.953   .     S
Cu323  Cu324   2.692   .     S
Cu323  N334    2.023   .     S
Cu323  O342    1.947   .     S
Cu323  O339    1.962   .     S
Cu324  N333    2.023   .     S
Cu324  O337    1.948   .     S
Cu324  O341    1.947   .     S
Cu324  O336    1.953   .     S
Cu324  O340    1.962   .     S
H329   C405    1.088   .     S
H330   C506    1.088   1_545 S
H331   N633    1.029   .     S
N334   N633    1.293   .     S
N334   H632    1.029   .     S
O343   H344    0.990   .     S
O345   H346    0.990   .     S
O347   H548    0.992   1_545 S
H348   O447    0.992   .     S
O349   H450    0.992   .     S
H350   O549    0.992   1_545 S
C351   O387    1.285   .     A
C351   C355    1.425   .     S
C351   O385    1.293   .     A
C352   O388    1.285   .     A
C352   O386    1.293   .     A
C352   C356    1.425   .     S
C353   C370    1.406   .     A
C353   O397    1.384   .     S
C354   O399    1.384   .     S
C354   C369    1.406   .     A
C354   C322    1.401   1_655 S
C355   C556    1.326   1_545 S
C355   H579    1.088   1_545 S
C356   C455    1.326   .     S
C356   H480    1.088   .     S
C357   O391    1.291   .     A
C357   C362    1.442   .     S
C357   O389    1.294   .     A
C358   C361    1.442   .     S
C358   O392    1.291   .     A
C358   O390    1.294   .     A
C359   H375    1.085   .     S
C359   C361    1.390   .     A
C359   C369    1.394   .     A
C360   H376    1.085   .     S
C360   C362    1.390   .     A
C360   C370    1.394   .     A
C361   C363    1.398   .     A
C362   C364    1.398   .     A
C363   O393    1.382   .     S
C363   C365    1.413   .     A
C364   O395    1.382   .     S
C364   C366    1.413   .     A
C365   C371    1.406   .     A
C365   C367    1.420   .     A
C366   C368    1.420   .     A
C366   C372    1.406   .     A
C367   C369    1.416   .     A
C367   C318    1.407   1_655 S
C368   C370    1.416   .     A
C371   H377    1.081   .     S
C371   C303    1.401   1_655 S
C372   H378    1.081   .     S
Cu373  O388    1.948   .     S
Cu373  O385    1.953   .     S
Cu373  Cu374   2.692   .     S
Cu373  N384    2.023   .     S
Cu373  O392    1.947   .     S
Cu373  O389    1.962   .     S
Cu374  N383    2.023   .     S
Cu374  O387    1.948   .     S
Cu374  O391    1.947   .     S
Cu374  O386    1.953   .     S
Cu374  O390    1.962   .     S
H379   C455    1.088   .     S
H380   C556    1.088   1_545 S
H381   N683    1.029   .     S
N384   N683    1.293   .     S
N384   H682    1.029   .     S
O393   H394    0.990   .     S
O395   H396    0.990   .     S
O397   H598    0.992   1_545 S
H398   O497    0.992   .     S
O399   H500    0.992   .     S
H400   O599    0.992   1_545 S
C401   O437    1.285   .     A
C401   C405    1.425   .     S
C401   O435    1.293   .     A
C402   O438    1.285   .     A
C402   O436    1.293   .     A
C402   C406    1.425   .     S
C403   C420    1.406   .     A
C403   O447    1.384   .     S
C403   C471    1.401   1_455 S
C404   O449    1.384   .     S
C404   C419    1.406   .     A
C404   C472    1.401   .     S
C406   C505    1.326   .     S
C406   H530    1.088   .     S
C407   O441    1.291   .     A
C407   C412    1.442   .     S
C407   O439    1.294   .     A
C408   C411    1.442   .     S
C408   O442    1.291   .     A
C408   O440    1.294   .     A
C409   H425    1.085   .     S
C409   C411    1.390   .     A
C409   C419    1.394   .     A
C410   H426    1.085   .     S
C410   C412    1.390   .     A
C410   C420    1.394   .     A
C411   C413    1.398   .     A
C412   C414    1.398   .     A
C413   O443    1.382   .     S
C413   C415    1.413   .     A
C414   O445    1.382   .     S
C414   C416    1.413   .     A
C415   C421    1.406   .     A
C415   C417    1.420   .     A
C416   C418    1.420   .     A
C416   C422    1.406   .     A
C417   C419    1.416   .     A
C417   C468    1.407   .     S
C418   C420    1.416   .     A
C418   C467    1.407   1_455 S
C421   H427    1.081   .     S
C421   C453    1.401   .     S
C422   H428    1.081   .     S
C422   C454    1.401   1_455 S
Cu423  O438    1.948   .     S
Cu423  O435    1.953   .     S
Cu423  Cu424   2.692   .     S
Cu423  N434    2.023   .     S
Cu423  O442    1.947   .     S
Cu423  O439    1.962   .     S
Cu424  N433    2.023   .     S
Cu424  O437    1.948   .     S
Cu424  O441    1.947   .     S
Cu424  O436    1.953   .     S
Cu424  O440    1.962   .     S
H429   C505    1.088   .     S
H431   N733    1.029   .     S
N434   N733    1.293   .     S
N434   H732    1.029   .     S
O443   H444    0.990   .     S
O445   H446    0.990   .     S
H448   O547    0.992   .     S
O449   H550    0.992   .     S
C451   O487    1.285   .     A
C451   C455    1.425   .     S
C451   O485    1.293   .     A
C452   O488    1.285   .     A
C452   O486    1.293   .     A
C452   C456    1.425   .     S
C453   C470    1.406   .     A
C453   O497    1.384   .     S
C454   O499    1.384   .     S
C454   C469    1.406   .     A
C454   C422    1.401   1_655 S
C456   C555    1.326   .     S
C456   H580    1.088   .     S
C457   O491    1.291   .     A
C457   C462    1.442   .     S
C457   O489    1.294   .     A
C458   C461    1.442   .     S
C458   O492    1.291   .     A
C458   O490    1.294   .     A
C459   H475    1.085   .     S
C459   C461    1.390   .     A
C459   C469    1.394   .     A
C460   H476    1.085   .     S
C460   C462    1.390   .     A
C460   C470    1.394   .     A
C461   C463    1.398   .     A
C462   C464    1.398   .     A
C463   O493    1.382   .     S
C463   C465    1.413   .     A
C464   O495    1.382   .     S
C464   C466    1.413   .     A
C465   C471    1.406   .     A
C465   C467    1.420   .     A
C466   C468    1.420   .     A
C466   C472    1.406   .     A
C467   C469    1.416   .     A
C467   C418    1.407   1_655 S
C468   C470    1.416   .     A
C471   H477    1.081   .     S
C471   C403    1.401   1_655 S
C472   H478    1.081   .     S
Cu473  O488    1.948   .     S
Cu473  O485    1.953   .     S
Cu473  Cu474   2.692   .     S
Cu473  N484    2.023   .     S
Cu473  O492    1.947   .     S
Cu473  O489    1.962   .     S
Cu474  N483    2.023   .     S
Cu474  O487    1.948   .     S
Cu474  O491    1.947   .     S
Cu474  O486    1.953   .     S
Cu474  O490    1.962   .     S
H479   C555    1.088   .     S
H481   N783    1.029   .     S
N484   N783    1.293   .     S
N484   H782    1.029   .     S
O493   H494    0.990   .     S
O495   H496    0.990   .     S
H498   O597    0.992   .     S
O499   H600    0.992   .     S
C501   O537    1.285   .     A
C501   C505    1.425   .     S
C501   O535    1.293   .     A
C502   O538    1.285   .     A
C502   O536    1.293   .     A
C502   C506    1.425   .     S
C503   C520    1.406   .     A
C503   O547    1.384   .     S
C503   C571    1.401   1_455 S
C504   O549    1.384   .     S
C504   C519    1.406   .     A
C504   C572    1.401   .     S
C506   C305    1.326   1_565 S
C506   H330    1.088   1_565 S
C507   O541    1.291   .     A
C507   C512    1.442   .     S
C507   O539    1.294   .     A
C508   C511    1.442   .     S
C508   O542    1.291   .     A
C508   O540    1.294   .     A
C509   H525    1.085   .     S
C509   C511    1.390   .     A
C509   C519    1.394   .     A
C510   H526    1.085   .     S
C510   C512    1.390   .     A
C510   C520    1.394   .     A
C511   C513    1.398   .     A
C512   C514    1.398   .     A
C513   O543    1.382   .     S
C513   C515    1.413   .     A
C514   O545    1.382   .     S
C514   C516    1.413   .     A
C515   C521    1.406   .     A
C515   C517    1.420   .     A
C516   C518    1.420   .     A
C516   C522    1.406   .     A
C517   C519    1.416   .     A
C517   C568    1.407   .     S
C518   C520    1.416   .     A
C518   C567    1.407   1_455 S
C521   H527    1.081   .     S
C521   C553    1.401   .     S
C522   H528    1.081   .     S
C522   C554    1.401   1_455 S
Cu523  O538    1.948   .     S
Cu523  O535    1.953   .     S
Cu523  Cu524   2.692   .     S
Cu523  N534    2.023   .     S
Cu523  O542    1.947   .     S
Cu523  O539    1.962   .     S
Cu524  N533    2.023   .     S
Cu524  O537    1.948   .     S
Cu524  O541    1.947   .     S
Cu524  O536    1.953   .     S
Cu524  O540    1.962   .     S
H529   C305    1.088   1_565 S
H531   N833    1.029   .     S
N534   N833    1.293   .     S
N534   H832    1.029   .     S
O543   H544    0.990   .     S
O545   H546    0.990   .     S
H548   O347    0.992   1_565 S
O549   H350    0.992   1_565 S
C551   O587    1.285   .     A
C551   C555    1.425   .     S
C551   O585    1.293   .     A
C552   O588    1.285   .     A
C552   O586    1.293   .     A
C552   C556    1.425   .     S
C553   C570    1.406   .     A
C553   O597    1.384   .     S
C554   O599    1.384   .     S
C554   C569    1.406   .     A
C554   C522    1.401   1_655 S
C556   C355    1.326   1_565 S
C556   H380    1.088   1_565 S
C557   O591    1.291   .     A
C557   C562    1.442   .     S
C557   O589    1.294   .     A
C558   C561    1.442   .     S
C558   O592    1.291   .     A
C558   O590    1.294   .     A
C559   H575    1.085   .     S
C559   C561    1.390   .     A
C559   C569    1.394   .     A
C560   H576    1.085   .     S
C560   C562    1.390   .     A
C560   C570    1.394   .     A
C561   C563    1.398   .     A
C562   C564    1.398   .     A
C563   O593    1.382   .     S
C563   C565    1.413   .     A
C564   O595    1.382   .     S
C564   C566    1.413   .     A
C565   C571    1.406   .     A
C565   C567    1.420   .     A
C566   C568    1.420   .     A
C566   C572    1.406   .     A
C567   C569    1.416   .     A
C567   C518    1.407   1_655 S
C568   C570    1.416   .     A
C571   H577    1.081   .     S
C571   C503    1.401   1_655 S
C572   H578    1.081   .     S
Cu573  O588    1.948   .     S
Cu573  O585    1.953   .     S
Cu573  Cu574   2.692   .     S
Cu573  N584    2.023   .     S
Cu573  O592    1.947   .     S
Cu573  O589    1.962   .     S
Cu574  N583    2.023   .     S
Cu574  O587    1.948   .     S
Cu574  O591    1.947   .     S
Cu574  O586    1.953   .     S
Cu574  O590    1.962   .     S
H579   C355    1.088   1_565 S
H581   N883    1.029   .     S
N584   N883    1.293   .     S
N584   H882    1.029   .     S
O593   H594    0.990   .     S
O595   H596    0.990   .     S
H598   O397    0.992   1_565 S
O599   H400    0.992   1_565 S
C601   O637    1.285   .     A
C601   C605    1.425   .     S
C601   O635    1.293   .     A
C602   O638    1.285   .     A
C602   O636    1.293   .     A
C602   C606    1.425   .     S
C603   C620    1.406   .     A
C603   O647    1.384   .     S
C603   C671    1.401   1_455 S
C604   O649    1.384   .     S
C604   C619    1.406   .     A
C604   C672    1.401   .     S
C605   C806    1.326   1_545 S
C605   H829    1.088   1_545 S
C606   C705    1.326   .     S
C606   H730    1.088   .     S
C607   O641    1.291   .     A
C607   C612    1.442   .     S
C607   O639    1.294   .     A
C608   C611    1.442   .     S
C608   O642    1.291   .     A
C608   O640    1.294   .     A
C609   H625    1.085   .     S
C609   C611    1.390   .     A
C609   C619    1.394   .     A
C610   H626    1.085   .     S
C610   C612    1.390   .     A
C610   C620    1.394   .     A
C611   C613    1.398   .     A
C612   C614    1.398   .     A
C613   O643    1.382   .     S
C613   C615    1.413   .     A
C614   O645    1.382   .     S
C614   C616    1.413   .     A
C615   C621    1.406   .     A
C615   C617    1.420   .     A
C616   C618    1.420   .     A
C616   C622    1.406   .     A
C617   C619    1.416   .     A
C617   C668    1.407   .     S
C618   C620    1.416   .     A
C618   C667    1.407   1_455 S
C621   H627    1.081   .     S
C621   C653    1.401   .     S
C622   H628    1.081   .     S
C622   C654    1.401   1_455 S
Cu623  O638    1.948   .     S
Cu623  O635    1.953   .     S
Cu623  Cu624   2.692   .     S
Cu623  N634    2.023   .     S
Cu623  O642    1.947   .     S
Cu623  O639    1.962   .     S
Cu624  N633    2.023   .     S
Cu624  O637    1.948   .     S
Cu624  O641    1.947   .     S
Cu624  O636    1.953   .     S
Cu624  O640    1.962   .     S
H629   C705    1.088   .     S
H630   C806    1.088   1_545 S
H631   N33     1.029   1_556 S
N634   N33     1.293   1_556 S
N634   H32     1.029   1_556 S
O643   H644    0.990   .     S
O645   H646    0.990   .     S
O647   H848    0.992   1_545 S
H648   O747    0.992   .     S
O649   H750    0.992   .     S
H650   O849    0.992   1_545 S
C651   O687    1.285   .     A
C651   C655    1.425   .     S
C651   O685    1.293   .     A
C652   O688    1.285   .     A
C652   O686    1.293   .     A
C652   C656    1.425   .     S
C653   C670    1.406   .     A
C653   O697    1.384   .     S
C654   O699    1.384   .     S
C654   C669    1.406   .     A
C654   C622    1.401   1_655 S
C655   C856    1.326   1_545 S
C655   H879    1.088   1_545 S
C656   C755    1.326   .     S
C656   H780    1.088   .     S
C657   O691    1.291   .     A
C657   C662    1.442   .     S
C657   O689    1.294   .     A
C658   C661    1.442   .     S
C658   O692    1.291   .     A
C658   O690    1.294   .     A
C659   H675    1.085   .     S
C659   C661    1.390   .     A
C659   C669    1.394   .     A
C660   H676    1.085   .     S
C660   C662    1.390   .     A
C660   C670    1.394   .     A
C661   C663    1.398   .     A
C662   C664    1.398   .     A
C663   O693    1.382   .     S
C663   C665    1.413   .     A
C664   O695    1.382   .     S
C664   C666    1.413   .     A
C665   C671    1.406   .     A
C665   C667    1.420   .     A
C666   C668    1.420   .     A
C666   C672    1.406   .     A
C667   C669    1.416   .     A
C667   C618    1.407   1_655 S
C668   C670    1.416   .     A
C671   H677    1.081   .     S
C671   C603    1.401   1_655 S
C672   H678    1.081   .     S
Cu673  O688    1.948   .     S
Cu673  O685    1.953   .     S
Cu673  Cu674   2.692   .     S
Cu673  N684    2.023   .     S
Cu673  O692    1.947   .     S
Cu673  O689    1.962   .     S
Cu674  N683    2.023   .     S
Cu674  O687    1.948   .     S
Cu674  O691    1.947   .     S
Cu674  O686    1.953   .     S
Cu674  O690    1.962   .     S
H679   C755    1.088   .     S
H680   C856    1.088   1_545 S
H681   N83     1.029   1_556 S
N684   N83     1.293   1_556 S
N684   H82     1.029   1_556 S
O693   H694    0.990   .     S
O695   H696    0.990   .     S
O697   H898    0.992   1_545 S
H698   O797    0.992   .     S
O699   H800    0.992   .     S
H700   O899    0.992   1_545 S
C701   O737    1.285   .     A
C701   C705    1.425   .     S
C701   O735    1.293   .     A
C702   O738    1.285   .     A
C702   O736    1.293   .     A
C702   C706    1.425   .     S
C703   C720    1.406   .     A
C703   O747    1.384   .     S
C703   C771    1.401   1_455 S
C704   O749    1.384   .     S
C704   C719    1.406   .     A
C704   C772    1.401   .     S
C706   C805    1.326   .     S
C706   H830    1.088   .     S
C707   O741    1.291   .     A
C707   C712    1.442   .     S
C707   O739    1.294   .     A
C708   C711    1.442   .     S
C708   O742    1.291   .     A
C708   O740    1.294   .     A
C709   H725    1.085   .     S
C709   C711    1.390   .     A
C709   C719    1.394   .     A
C710   H726    1.085   .     S
C710   C712    1.390   .     A
C710   C720    1.394   .     A
C711   C713    1.398   .     A
C712   C714    1.398   .     A
C713   O743    1.382   .     S
C713   C715    1.413   .     A
C714   O745    1.382   .     S
C714   C716    1.413   .     A
C715   C721    1.406   .     A
C715   C717    1.420   .     A
C716   C718    1.420   .     A
C716   C722    1.406   .     A
C717   C719    1.416   .     A
C717   C768    1.407   .     S
C718   C720    1.416   .     A
C718   C767    1.407   1_455 S
C721   H727    1.081   .     S
C721   C753    1.401   .     S
C722   H728    1.081   .     S
C722   C754    1.401   1_455 S
Cu723  O738    1.948   .     S
Cu723  O735    1.953   .     S
Cu723  Cu724   2.692   .     S
Cu723  N734    2.023   .     S
Cu723  O742    1.947   .     S
Cu723  O739    1.962   .     S
Cu724  N733    2.023   .     S
Cu724  O737    1.948   .     S
Cu724  O741    1.947   .     S
Cu724  O736    1.953   .     S
Cu724  O740    1.962   .     S
H729   C805    1.088   .     S
H731   N133    1.029   1_556 S
N734   N133    1.293   1_556 S
N734   H132    1.029   1_556 S
O743   H744    0.990   .     S
O745   H746    0.990   .     S
H748   O847    0.992   .     S
O749   H850    0.992   .     S
C751   O787    1.285   .     A
C751   C755    1.425   .     S
C751   O785    1.293   .     A
C752   O788    1.285   .     A
C752   O786    1.293   .     A
C752   C756    1.425   .     S
C753   C770    1.406   .     A
C753   O797    1.384   .     S
C754   O799    1.384   .     S
C754   C769    1.406   .     A
C754   C722    1.401   1_655 S
C756   C855    1.326   .     S
C756   H880    1.088   .     S
C757   O791    1.291   .     A
C757   C762    1.442   .     S
C757   O789    1.294   .     A
C758   C761    1.442   .     S
C758   O792    1.291   .     A
C758   O790    1.294   .     A
C759   H775    1.085   .     S
C759   C761    1.390   .     A
C759   C769    1.394   .     A
C760   H776    1.085   .     S
C760   C762    1.390   .     A
C760   C770    1.394   .     A
C761   C763    1.398   .     A
C762   C764    1.398   .     A
C763   O793    1.382   .     S
C763   C765    1.413   .     A
C764   O795    1.382   .     S
C764   C766    1.413   .     A
C765   C771    1.406   .     A
C765   C767    1.420   .     A
C766   C768    1.420   .     A
C766   C772    1.406   .     A
C767   C769    1.416   .     A
C767   C718    1.407   1_655 S
C768   C770    1.416   .     A
C771   H777    1.081   .     S
C771   C703    1.401   1_655 S
C772   H778    1.081   .     S
Cu773  O788    1.948   .     S
Cu773  O785    1.953   .     S
Cu773  Cu774   2.692   .     S
Cu773  N784    2.023   .     S
Cu773  O792    1.947   .     S
Cu773  O789    1.962   .     S
Cu774  N783    2.023   .     S
Cu774  O787    1.948   .     S
Cu774  O791    1.947   .     S
Cu774  O786    1.953   .     S
Cu774  O790    1.962   .     S
H779   C855    1.088   .     S
H781   N183    1.029   1_556 S
N784   N183    1.293   1_556 S
N784   H182    1.029   1_556 S
O793   H794    0.990   .     S
O795   H796    0.990   .     S
H798   O897    0.992   .     S
O799   H900    0.992   .     S
C801   O837    1.285   .     A
C801   C805    1.425   .     S
C801   O835    1.293   .     A
C802   O838    1.285   .     A
C802   O836    1.293   .     A
C802   C806    1.425   .     S
C803   C820    1.406   .     A
C803   O847    1.384   .     S
C803   C871    1.401   1_455 S
C804   O849    1.384   .     S
C804   C819    1.406   .     A
C804   C872    1.401   .     S
C806   C605    1.326   1_565 S
C806   H630    1.088   1_565 S
C807   O841    1.291   .     A
C807   C812    1.442   .     S
C807   O839    1.294   .     A
C808   C811    1.442   .     S
C808   O842    1.291   .     A
C808   O840    1.294   .     A
C809   H825    1.085   .     S
C809   C811    1.390   .     A
C809   C819    1.394   .     A
C810   H826    1.085   .     S
C810   C812    1.390   .     A
C810   C820    1.394   .     A
C811   C813    1.398   .     A
C812   C814    1.398   .     A
C813   O843    1.382   .     S
C813   C815    1.413   .     A
C814   O845    1.382   .     S
C814   C816    1.413   .     A
C815   C821    1.406   .     A
C815   C817    1.420   .     A
C816   C818    1.420   .     A
C816   C822    1.406   .     A
C817   C819    1.416   .     A
C817   C868    1.407   .     S
C818   C820    1.416   .     A
C818   C867    1.407   1_455 S
C821   H827    1.081   .     S
C821   C853    1.401   .     S
C822   H828    1.081   .     S
C822   C854    1.401   1_455 S
Cu823  O838    1.948   .     S
Cu823  O835    1.953   .     S
Cu823  Cu824   2.692   .     S
Cu823  N834    2.023   .     S
Cu823  O842    1.947   .     S
Cu823  O839    1.962   .     S
Cu824  N833    2.023   .     S
Cu824  O837    1.948   .     S
Cu824  O841    1.947   .     S
Cu824  O836    1.953   .     S
Cu824  O840    1.962   .     S
H829   C605    1.088   1_565 S
H831   N233    1.029   1_556 S
N834   N233    1.293   1_556 S
N834   H232    1.029   1_556 S
O843   H844    0.990   .     S
O845   H846    0.990   .     S
H848   O647    0.992   1_565 S
O849   H650    0.992   1_565 S
C851   O887    1.285   .     A
C851   C855    1.425   .     S
C851   O885    1.293   .     A
C852   O888    1.285   .     A
C852   O886    1.293   .     A
C852   C856    1.425   .     S
C853   C870    1.406   .     A
C853   O897    1.384   .     S
C854   O899    1.384   .     S
C854   C869    1.406   .     A
C854   C822    1.401   1_655 S
C856   C655    1.326   1_565 S
C856   H680    1.088   1_565 S
C857   O891    1.291   .     A
C857   C862    1.442   .     S
C857   O889    1.294   .     A
C858   C861    1.442   .     S
C858   O892    1.291   .     A
C858   O890    1.294   .     A
C859   H875    1.085   .     S
C859   C861    1.390   .     A
C859   C869    1.394   .     A
C860   H876    1.085   .     S
C860   C862    1.390   .     A
C860   C870    1.394   .     A
C861   C863    1.398   .     A
C862   C864    1.398   .     A
C863   O893    1.382   .     S
C863   C865    1.413   .     A
C864   O895    1.382   .     S
C864   C866    1.413   .     A
C865   C871    1.406   .     A
C865   C867    1.420   .     A
C866   C868    1.420   .     A
C866   C872    1.406   .     A
C867   C869    1.416   .     A
C867   C818    1.407   1_655 S
C868   C870    1.416   .     A
C871   H877    1.081   .     S
C871   C803    1.401   1_655 S
C872   H878    1.081   .     S
Cu873  O888    1.948   .     S
Cu873  O885    1.953   .     S
Cu873  Cu874   2.692   .     S
Cu873  N884    2.023   .     S
Cu873  O892    1.947   .     S
Cu873  O889    1.962   .     S
Cu874  N883    2.023   .     S
Cu874  O887    1.948   .     S
Cu874  O891    1.947   .     S
Cu874  O886    1.953   .     S
Cu874  O890    1.962   .     S
H879   C655    1.088   1_565 S
H881   N283    1.029   1_556 S
N884   N283    1.293   1_556 S
N884   H282    1.029   1_556 S
O893   H894    0.990   .     S
O895   H896    0.990   .     S
H898   O697    0.992   1_565 S
O899   H700    0.992   1_565 S
