data_str_m2_o10_o17_pcu_sym.55
_audit_creation_date              2020-01-03
_audit_creation_method            'Materials Studio'
_symmetry_space_group_name_H-M    'P1'
_symmetry_Int_Tables_number       1
_symmetry_cell_setting            triclinic
loop_
_symmetry_equiv_pos_as_xyz
  x,y,z
_cell_length_a                    29.9127
_cell_length_b                    26.0144
_cell_length_c                    22.3534
_cell_angle_alpha                 102.9172
_cell_angle_beta                  93.7885
_cell_angle_gamma                 92.3020
loop_
_atom_site_label
_atom_site_type_symbol
_atom_site_fract_x
_atom_site_fract_y
_atom_site_fract_z
_atom_site_U_iso_or_equiv
_atom_site_adp_type
_atom_site_occupancy
C1     C     0.24865   0.06659   0.15110   0.00000  Uiso   1.00
C2     C     0.09077   0.11964   0.14279   0.00000  Uiso   1.00
C3     C     0.38350   0.16751   0.16337   0.00000  Uiso   1.00
C4     C     0.11650   0.16583   0.16997   0.00000  Uiso   1.00
C5     C     0.40347   0.12163   0.13596   0.00000  Uiso   1.00
C6     C     0.09653   0.21171   0.19738   0.00000  Uiso   1.00
C7     C     0.45004   0.12083   0.13797   0.00000  Uiso   1.00
C8     C     0.04996   0.21251   0.19536   0.00000  Uiso   1.00
C9     C     0.47656   0.16737   0.16525   0.00000  Uiso   1.00
C10    C     0.02344   0.16596   0.16809   0.00000  Uiso   1.00
C11    C     0.45607   0.21516   0.18970   0.00000  Uiso   1.00
C12    C     0.25135   0.26674   0.18223   0.00000  Uiso   1.00
C13    C     0.04393   0.11817   0.14363   0.00000  Uiso   1.00
C14    C     0.47019   0.07363   0.11486   0.00000  Uiso   1.00
C15    C     0.02981   0.25971   0.21847   0.00000  Uiso   1.00
C16    C     0.03574   0.01832   0.10024   0.00000  Uiso   1.00
C17    C     0.46426   0.31502   0.23309   0.00000  Uiso   1.00
C18    C     0.01691   0.07113   0.11894   0.00000  Uiso   1.00
C19    C     0.48309   0.26220   0.21439   0.00000  Uiso   1.00
C20    C     0.24799   0.01061   0.14235   0.00000  Uiso   1.00
C21    C     0.25201   0.32272   0.19098   0.00000  Uiso   1.00
C22    C     0.16456   0.16650   0.16769   0.00000  Uiso   1.00
C23    C     0.33544   0.16683   0.16564   0.00000  Uiso   1.00
C24    C     0.40923   0.21370   0.19054   0.00000  Uiso   1.00
Cu25   Cu    0.25500   0.17246   0.22813   0.00000  Uiso   1.00
Cu26   Cu    0.24499   0.16087   0.10521   0.00000  Uiso   1.00
H27    H     0.39214   0.24772   0.21306   0.00000  Uiso   1.00
H28    H     0.28495   0.20736   0.01704   0.00000  Uiso   1.00
H29    H     0.08183   0.30110   0.11728   0.00000  Uiso   1.00
H30    H     0.41817   0.03223   0.21605   0.00000  Uiso   1.00
H31    H     0.10785   0.08562   0.12028   0.00000  Uiso   1.00
H32    H     0.38269   0.08608   0.11551   0.00000  Uiso   1.00
H33    H     0.11731   0.24726   0.21782   0.00000  Uiso   1.00
H34    H     0.44923   0.03798   0.09563   0.00000  Uiso   1.00
H35    H     0.05077   0.29535   0.23770   0.00000  Uiso   1.00
H36    H     0.24419   0.32010   0.09549   0.00000  Uiso   1.00
H37    H     0.25581   0.01324   0.23785   0.00000  Uiso   1.00
H38    H     0.21505   0.12597   0.31630   0.00000  Uiso   1.00
N39    N     0.23744   0.15214   0.01284   0.00000  Uiso   1.00
N40    N     0.26255   0.18119   0.32049   0.00000  Uiso   1.00
O41    O     0.25325   0.09538   0.20659   0.00000  Uiso   1.00
O42    O     0.07278   0.00508   0.13411   0.00000  Uiso   1.00
O43    O     0.48254   0.01467   0.27648   0.00000  Uiso   1.00
O44    O     0.42722   0.32825   0.19923   0.00000  Uiso   1.00
O45    O     0.24674   0.23796   0.12674   0.00000  Uiso   1.00
O46    O     0.24480   0.08559   0.10279   0.00000  Uiso   1.00
O47    O     0.25520   0.24774   0.23055   0.00000  Uiso   1.00
O48    O     0.18935   0.17155   0.21857   0.00000  Uiso   1.00
O49    O     0.31064   0.16179   0.11476   0.00000  Uiso   1.00
O50    O     0.18090   0.16176   0.11477   0.00000  Uiso   1.00
O51    O     0.31910   0.17157   0.21857   0.00000  Uiso   1.00
O52    O     0.01746   0.31867   0.05686   0.00000  Uiso   1.00
C53    C     0.74865   0.06659   0.15110   0.00000  Uiso   1.00
C54    C     0.59077   0.11964   0.14279   0.00000  Uiso   1.00
C55    C     0.88350   0.16751   0.16337   0.00000  Uiso   1.00
C56    C     0.61650   0.16583   0.16997   0.00000  Uiso   1.00
C57    C     0.90347   0.12163   0.13596   0.00000  Uiso   1.00
C58    C     0.59653   0.21171   0.19738   0.00000  Uiso   1.00
C59    C     0.95004   0.12083   0.13797   0.00000  Uiso   1.00
C60    C     0.54996   0.21251   0.19536   0.00000  Uiso   1.00
C61    C     0.97656   0.16737   0.16525   0.00000  Uiso   1.00
C62    C     0.52344   0.16596   0.16809   0.00000  Uiso   1.00
C63    C     0.95607   0.21516   0.18970   0.00000  Uiso   1.00
C64    C     0.75135   0.26674   0.18223   0.00000  Uiso   1.00
C65    C     0.54393   0.11817   0.14363   0.00000  Uiso   1.00
C66    C     0.97019   0.07363   0.11486   0.00000  Uiso   1.00
C67    C     0.52981   0.25971   0.21847   0.00000  Uiso   1.00
C68    C     0.53574   0.01832   0.10024   0.00000  Uiso   1.00
C69    C     0.96426   0.31502   0.23309   0.00000  Uiso   1.00
C70    C     0.51691   0.07113   0.11894   0.00000  Uiso   1.00
C71    C     0.98309   0.26220   0.21439   0.00000  Uiso   1.00
C72    C     0.74799   0.01061   0.14235   0.00000  Uiso   1.00
C73    C     0.75201   0.32272   0.19098   0.00000  Uiso   1.00
C74    C     0.66456   0.16650   0.16769   0.00000  Uiso   1.00
C75    C     0.83544   0.16683   0.16564   0.00000  Uiso   1.00
C76    C     0.90923   0.21370   0.19054   0.00000  Uiso   1.00
Cu77   Cu    0.75500   0.17246   0.22813   0.00000  Uiso   1.00
Cu78   Cu    0.74499   0.16087   0.10521   0.00000  Uiso   1.00
H79    H     0.89214   0.24772   0.21306   0.00000  Uiso   1.00
H80    H     0.78495   0.20736   0.01704   0.00000  Uiso   1.00
H81    H     0.58183   0.30110   0.11728   0.00000  Uiso   1.00
H82    H     0.91817   0.03223   0.21605   0.00000  Uiso   1.00
H83    H     0.60785   0.08562   0.12028   0.00000  Uiso   1.00
H84    H     0.88269   0.08608   0.11551   0.00000  Uiso   1.00
H85    H     0.61731   0.24726   0.21782   0.00000  Uiso   1.00
H86    H     0.94923   0.03798   0.09563   0.00000  Uiso   1.00
H87    H     0.55077   0.29535   0.23770   0.00000  Uiso   1.00
H88    H     0.74419   0.32010   0.09549   0.00000  Uiso   1.00
H89    H     0.75581   0.01324   0.23785   0.00000  Uiso   1.00
H90    H     0.71505   0.12597   0.31630   0.00000  Uiso   1.00
N91    N     0.73744   0.15214   0.01284   0.00000  Uiso   1.00
N92    N     0.76255   0.18119   0.32049   0.00000  Uiso   1.00
O93    O     0.75325   0.09538   0.20659   0.00000  Uiso   1.00
O94    O     0.57278   0.00508   0.13411   0.00000  Uiso   1.00
O95    O     0.98254   0.01467   0.27648   0.00000  Uiso   1.00
O96    O     0.92722   0.32825   0.19923   0.00000  Uiso   1.00
O97    O     0.74674   0.23796   0.12674   0.00000  Uiso   1.00
O98    O     0.74480   0.08559   0.10279   0.00000  Uiso   1.00
O99    O     0.75520   0.24774   0.23055   0.00000  Uiso   1.00
O100   O     0.68935   0.17155   0.21857   0.00000  Uiso   1.00
O101   O     0.81064   0.16179   0.11476   0.00000  Uiso   1.00
O102   O     0.68090   0.16176   0.11477   0.00000  Uiso   1.00
O103   O     0.81910   0.17157   0.21857   0.00000  Uiso   1.00
O104   O     0.51746   0.31867   0.05686   0.00000  Uiso   1.00
C105   C     0.24865   0.39993   0.15110   0.00000  Uiso   1.00
C106   C     0.09077   0.45297   0.14279   0.00000  Uiso   1.00
C107   C     0.38350   0.50084   0.16337   0.00000  Uiso   1.00
C108   C     0.11650   0.49916   0.16997   0.00000  Uiso   1.00
C109   C     0.40347   0.45496   0.13596   0.00000  Uiso   1.00
C110   C     0.09653   0.54504   0.19738   0.00000  Uiso   1.00
C111   C     0.45004   0.45416   0.13797   0.00000  Uiso   1.00
C112   C     0.04996   0.54584   0.19536   0.00000  Uiso   1.00
C113   C     0.47656   0.50070   0.16525   0.00000  Uiso   1.00
C114   C     0.02344   0.49930   0.16809   0.00000  Uiso   1.00
C115   C     0.45607   0.54850   0.18970   0.00000  Uiso   1.00
C116   C     0.25135   0.60007   0.18223   0.00000  Uiso   1.00
C117   C     0.04393   0.45150   0.14363   0.00000  Uiso   1.00
C118   C     0.47019   0.40696   0.11486   0.00000  Uiso   1.00
C119   C     0.02981   0.59304   0.21847   0.00000  Uiso   1.00
C120   C     0.03574   0.35165   0.10024   0.00000  Uiso   1.00
C121   C     0.46426   0.64835   0.23309   0.00000  Uiso   1.00
C122   C     0.01691   0.40446   0.11894   0.00000  Uiso   1.00
C123   C     0.48309   0.59554   0.21439   0.00000  Uiso   1.00
C124   C     0.24799   0.34395   0.14235   0.00000  Uiso   1.00
C125   C     0.25201   0.65605   0.19098   0.00000  Uiso   1.00
C126   C     0.16456   0.49983   0.16769   0.00000  Uiso   1.00
C127   C     0.33544   0.50016   0.16564   0.00000  Uiso   1.00
C128   C     0.40923   0.54703   0.19054   0.00000  Uiso   1.00
Cu129  Cu    0.25500   0.50579   0.22813   0.00000  Uiso   1.00
Cu130  Cu    0.24499   0.49421   0.10521   0.00000  Uiso   1.00
H131   H     0.39214   0.58105   0.21306   0.00000  Uiso   1.00
H132   H     0.28495   0.54069   0.01704   0.00000  Uiso   1.00
H133   H     0.08183   0.63444   0.11728   0.00000  Uiso   1.00
H134   H     0.41817   0.36556   0.21605   0.00000  Uiso   1.00
H135   H     0.10785   0.41895   0.12028   0.00000  Uiso   1.00
H136   H     0.38269   0.41941   0.11551   0.00000  Uiso   1.00
H137   H     0.11731   0.58059   0.21782   0.00000  Uiso   1.00
H138   H     0.44923   0.37131   0.09563   0.00000  Uiso   1.00
H139   H     0.05077   0.62869   0.23770   0.00000  Uiso   1.00
H140   H     0.24419   0.65343   0.09549   0.00000  Uiso   1.00
H141   H     0.25581   0.34657   0.23785   0.00000  Uiso   1.00
H142   H     0.21505   0.45931   0.31630   0.00000  Uiso   1.00
N143   N     0.23744   0.48547   0.01284   0.00000  Uiso   1.00
N144   N     0.26255   0.51453   0.32049   0.00000  Uiso   1.00
O145   O     0.25325   0.42871   0.20659   0.00000  Uiso   1.00
O146   O     0.07278   0.33842   0.13411   0.00000  Uiso   1.00
O147   O     0.48254   0.34800   0.27648   0.00000  Uiso   1.00
O148   O     0.42722   0.66158   0.19923   0.00000  Uiso   1.00
O149   O     0.24674   0.57129   0.12674   0.00000  Uiso   1.00
O150   O     0.24480   0.41892   0.10279   0.00000  Uiso   1.00
O151   O     0.25520   0.58108   0.23055   0.00000  Uiso   1.00
O152   O     0.18935   0.50488   0.21857   0.00000  Uiso   1.00
O153   O     0.31064   0.49512   0.11476   0.00000  Uiso   1.00
O154   O     0.18090   0.49510   0.11477   0.00000  Uiso   1.00
O155   O     0.31910   0.50490   0.21857   0.00000  Uiso   1.00
O156   O     0.01746   0.65200   0.05686   0.00000  Uiso   1.00
C157   C     0.74865   0.39993   0.15110   0.00000  Uiso   1.00
C158   C     0.59077   0.45297   0.14279   0.00000  Uiso   1.00
C159   C     0.88350   0.50084   0.16337   0.00000  Uiso   1.00
C160   C     0.61650   0.49916   0.16997   0.00000  Uiso   1.00
C161   C     0.90347   0.45496   0.13596   0.00000  Uiso   1.00
C162   C     0.59653   0.54504   0.19738   0.00000  Uiso   1.00
C163   C     0.95004   0.45416   0.13797   0.00000  Uiso   1.00
C164   C     0.54996   0.54584   0.19536   0.00000  Uiso   1.00
C165   C     0.97656   0.50070   0.16525   0.00000  Uiso   1.00
C166   C     0.52344   0.49930   0.16809   0.00000  Uiso   1.00
C167   C     0.95607   0.54850   0.18970   0.00000  Uiso   1.00
C168   C     0.75135   0.60007   0.18223   0.00000  Uiso   1.00
C169   C     0.54393   0.45150   0.14363   0.00000  Uiso   1.00
C170   C     0.97019   0.40696   0.11486   0.00000  Uiso   1.00
C171   C     0.52981   0.59304   0.21847   0.00000  Uiso   1.00
C172   C     0.53574   0.35165   0.10024   0.00000  Uiso   1.00
C173   C     0.96426   0.64835   0.23309   0.00000  Uiso   1.00
C174   C     0.51691   0.40446   0.11894   0.00000  Uiso   1.00
C175   C     0.98309   0.59554   0.21439   0.00000  Uiso   1.00
C176   C     0.74799   0.34395   0.14235   0.00000  Uiso   1.00
C177   C     0.75201   0.65605   0.19098   0.00000  Uiso   1.00
C178   C     0.66456   0.49983   0.16769   0.00000  Uiso   1.00
C179   C     0.83544   0.50016   0.16564   0.00000  Uiso   1.00
C180   C     0.90923   0.54703   0.19054   0.00000  Uiso   1.00
Cu181  Cu    0.75500   0.50579   0.22813   0.00000  Uiso   1.00
Cu182  Cu    0.74499   0.49421   0.10521   0.00000  Uiso   1.00
H183   H     0.89214   0.58105   0.21306   0.00000  Uiso   1.00
H184   H     0.78495   0.54069   0.01704   0.00000  Uiso   1.00
H185   H     0.58183   0.63444   0.11728   0.00000  Uiso   1.00
H186   H     0.91817   0.36556   0.21605   0.00000  Uiso   1.00
H187   H     0.60785   0.41895   0.12028   0.00000  Uiso   1.00
H188   H     0.88269   0.41941   0.11551   0.00000  Uiso   1.00
H189   H     0.61731   0.58059   0.21782   0.00000  Uiso   1.00
H190   H     0.94923   0.37131   0.09563   0.00000  Uiso   1.00
H191   H     0.55077   0.62869   0.23770   0.00000  Uiso   1.00
H192   H     0.74419   0.65343   0.09549   0.00000  Uiso   1.00
H193   H     0.75581   0.34657   0.23785   0.00000  Uiso   1.00
H194   H     0.71505   0.45931   0.31630   0.00000  Uiso   1.00
N195   N     0.73744   0.48547   0.01284   0.00000  Uiso   1.00
N196   N     0.76255   0.51453   0.32049   0.00000  Uiso   1.00
O197   O     0.75325   0.42871   0.20659   0.00000  Uiso   1.00
O198   O     0.57278   0.33842   0.13411   0.00000  Uiso   1.00
O199   O     0.98254   0.34800   0.27648   0.00000  Uiso   1.00
O200   O     0.92722   0.66158   0.19923   0.00000  Uiso   1.00
O201   O     0.74674   0.57129   0.12674   0.00000  Uiso   1.00
O202   O     0.74480   0.41892   0.10279   0.00000  Uiso   1.00
O203   O     0.75520   0.58108   0.23055   0.00000  Uiso   1.00
O204   O     0.68935   0.50488   0.21857   0.00000  Uiso   1.00
O205   O     0.81064   0.49512   0.11476   0.00000  Uiso   1.00
O206   O     0.68090   0.49510   0.11477   0.00000  Uiso   1.00
O207   O     0.81910   0.50490   0.21857   0.00000  Uiso   1.00
O208   O     0.51746   0.65200   0.05686   0.00000  Uiso   1.00
C209   C     0.24865   0.73326   0.15110   0.00000  Uiso   1.00
C210   C     0.09077   0.78630   0.14279   0.00000  Uiso   1.00
C211   C     0.38350   0.83417   0.16337   0.00000  Uiso   1.00
C212   C     0.11650   0.83249   0.16997   0.00000  Uiso   1.00
C213   C     0.40347   0.78829   0.13596   0.00000  Uiso   1.00
C214   C     0.09653   0.87837   0.19738   0.00000  Uiso   1.00
C215   C     0.45004   0.78749   0.13797   0.00000  Uiso   1.00
C216   C     0.04996   0.87917   0.19536   0.00000  Uiso   1.00
C217   C     0.47656   0.83404   0.16525   0.00000  Uiso   1.00
C218   C     0.02344   0.83263   0.16809   0.00000  Uiso   1.00
C219   C     0.45607   0.88183   0.18970   0.00000  Uiso   1.00
C220   C     0.25135   0.93341   0.18223   0.00000  Uiso   1.00
C221   C     0.04393   0.78484   0.14363   0.00000  Uiso   1.00
C222   C     0.47019   0.74029   0.11486   0.00000  Uiso   1.00
C223   C     0.02981   0.92637   0.21847   0.00000  Uiso   1.00
C224   C     0.03574   0.68498   0.10024   0.00000  Uiso   1.00
C225   C     0.46426   0.98168   0.23309   0.00000  Uiso   1.00
C226   C     0.01691   0.73780   0.11894   0.00000  Uiso   1.00
C227   C     0.48309   0.92887   0.21439   0.00000  Uiso   1.00
C228   C     0.24799   0.67728   0.14235   0.00000  Uiso   1.00
C229   C     0.25201   0.98939   0.19098   0.00000  Uiso   1.00
C230   C     0.16456   0.83317   0.16769   0.00000  Uiso   1.00
C231   C     0.33544   0.83350   0.16564   0.00000  Uiso   1.00
C232   C     0.40923   0.88036   0.19054   0.00000  Uiso   1.00
Cu233  Cu    0.25500   0.83913   0.22813   0.00000  Uiso   1.00
Cu234  Cu    0.24499   0.82754   0.10521   0.00000  Uiso   1.00
H235   H     0.39214   0.91438   0.21306   0.00000  Uiso   1.00
H236   H     0.28495   0.87403   0.01704   0.00000  Uiso   1.00
H237   H     0.08183   0.96777   0.11728   0.00000  Uiso   1.00
H238   H     0.41817   0.69890   0.21605   0.00000  Uiso   1.00
H239   H     0.10785   0.75228   0.12028   0.00000  Uiso   1.00
H240   H     0.38269   0.75274   0.11551   0.00000  Uiso   1.00
H241   H     0.11731   0.91392   0.21782   0.00000  Uiso   1.00
H242   H     0.44923   0.70465   0.09563   0.00000  Uiso   1.00
H243   H     0.05077   0.96202   0.23770   0.00000  Uiso   1.00
H244   H     0.24419   0.98676   0.09549   0.00000  Uiso   1.00
H245   H     0.25581   0.67990   0.23785   0.00000  Uiso   1.00
H246   H     0.21505   0.79264   0.31630   0.00000  Uiso   1.00
N247   N     0.23744   0.81881   0.01284   0.00000  Uiso   1.00
N248   N     0.26255   0.84786   0.32049   0.00000  Uiso   1.00
O249   O     0.25325   0.76204   0.20659   0.00000  Uiso   1.00
O250   O     0.07278   0.67175   0.13411   0.00000  Uiso   1.00
O251   O     0.48254   0.68133   0.27648   0.00000  Uiso   1.00
O252   O     0.42722   0.99492   0.19923   0.00000  Uiso   1.00
O253   O     0.24674   0.90462   0.12674   0.00000  Uiso   1.00
O254   O     0.24480   0.75226   0.10279   0.00000  Uiso   1.00
O255   O     0.25520   0.91441   0.23055   0.00000  Uiso   1.00
O256   O     0.18935   0.83821   0.21857   0.00000  Uiso   1.00
O257   O     0.31064   0.82845   0.11476   0.00000  Uiso   1.00
O258   O     0.18090   0.82843   0.11477   0.00000  Uiso   1.00
O259   O     0.31910   0.83824   0.21857   0.00000  Uiso   1.00
O260   O     0.01746   0.98533   0.05686   0.00000  Uiso   1.00
C261   C     0.74865   0.73326   0.15110   0.00000  Uiso   1.00
C262   C     0.59077   0.78630   0.14279   0.00000  Uiso   1.00
C263   C     0.88350   0.83417   0.16337   0.00000  Uiso   1.00
C264   C     0.61650   0.83249   0.16997   0.00000  Uiso   1.00
C265   C     0.90347   0.78829   0.13596   0.00000  Uiso   1.00
C266   C     0.59653   0.87837   0.19738   0.00000  Uiso   1.00
C267   C     0.95004   0.78749   0.13797   0.00000  Uiso   1.00
C268   C     0.54996   0.87917   0.19536   0.00000  Uiso   1.00
C269   C     0.97656   0.83404   0.16525   0.00000  Uiso   1.00
C270   C     0.52344   0.83263   0.16809   0.00000  Uiso   1.00
C271   C     0.95607   0.88183   0.18970   0.00000  Uiso   1.00
C272   C     0.75135   0.93341   0.18223   0.00000  Uiso   1.00
C273   C     0.54393   0.78484   0.14363   0.00000  Uiso   1.00
C274   C     0.97019   0.74029   0.11486   0.00000  Uiso   1.00
C275   C     0.52981   0.92637   0.21847   0.00000  Uiso   1.00
C276   C     0.53574   0.68498   0.10024   0.00000  Uiso   1.00
C277   C     0.96426   0.98168   0.23309   0.00000  Uiso   1.00
C278   C     0.51691   0.73780   0.11894   0.00000  Uiso   1.00
C279   C     0.98309   0.92887   0.21439   0.00000  Uiso   1.00
C280   C     0.74799   0.67728   0.14235   0.00000  Uiso   1.00
C281   C     0.75201   0.98939   0.19098   0.00000  Uiso   1.00
C282   C     0.66456   0.83317   0.16769   0.00000  Uiso   1.00
C283   C     0.83544   0.83350   0.16564   0.00000  Uiso   1.00
C284   C     0.90923   0.88036   0.19054   0.00000  Uiso   1.00
Cu285  Cu    0.75500   0.83913   0.22813   0.00000  Uiso   1.00
Cu286  Cu    0.74499   0.82754   0.10521   0.00000  Uiso   1.00
H287   H     0.89214   0.91438   0.21306   0.00000  Uiso   1.00
H288   H     0.78495   0.87403   0.01704   0.00000  Uiso   1.00
H289   H     0.58183   0.96777   0.11728   0.00000  Uiso   1.00
H290   H     0.91817   0.69890   0.21605   0.00000  Uiso   1.00
H291   H     0.60785   0.75228   0.12028   0.00000  Uiso   1.00
H292   H     0.88269   0.75274   0.11551   0.00000  Uiso   1.00
H293   H     0.61731   0.91392   0.21782   0.00000  Uiso   1.00
H294   H     0.94923   0.70465   0.09563   0.00000  Uiso   1.00
H295   H     0.55077   0.96202   0.23770   0.00000  Uiso   1.00
H296   H     0.74419   0.98676   0.09549   0.00000  Uiso   1.00
H297   H     0.75581   0.67990   0.23785   0.00000  Uiso   1.00
H298   H     0.71505   0.79264   0.31630   0.00000  Uiso   1.00
N299   N     0.73744   0.81881   0.01284   0.00000  Uiso   1.00
N300   N     0.76255   0.84786   0.32049   0.00000  Uiso   1.00
O301   O     0.75325   0.76204   0.20659   0.00000  Uiso   1.00
O302   O     0.57278   0.67175   0.13411   0.00000  Uiso   1.00
O303   O     0.98254   0.68133   0.27648   0.00000  Uiso   1.00
O304   O     0.92722   0.99492   0.19923   0.00000  Uiso   1.00
O305   O     0.74674   0.90462   0.12674   0.00000  Uiso   1.00
O306   O     0.74480   0.75226   0.10279   0.00000  Uiso   1.00
O307   O     0.75520   0.91441   0.23055   0.00000  Uiso   1.00
O308   O     0.68935   0.83821   0.21857   0.00000  Uiso   1.00
O309   O     0.81064   0.82845   0.11476   0.00000  Uiso   1.00
O310   O     0.68090   0.82843   0.11477   0.00000  Uiso   1.00
O311   O     0.81910   0.83824   0.21857   0.00000  Uiso   1.00
O312   O     0.51746   0.98533   0.05686   0.00000  Uiso   1.00
C313   C     0.24865   0.06659   0.48444   0.00000  Uiso   1.00
C314   C     0.09077   0.11964   0.47612   0.00000  Uiso   1.00
C315   C     0.38350   0.16751   0.49670   0.00000  Uiso   1.00
C316   C     0.11650   0.16583   0.50330   0.00000  Uiso   1.00
C317   C     0.40347   0.12163   0.46929   0.00000  Uiso   1.00
C318   C     0.09653   0.21171   0.53071   0.00000  Uiso   1.00
C319   C     0.45004   0.12083   0.47131   0.00000  Uiso   1.00
C320   C     0.04996   0.21251   0.52869   0.00000  Uiso   1.00
C321   C     0.47656   0.16737   0.49858   0.00000  Uiso   1.00
C322   C     0.02344   0.16596   0.50142   0.00000  Uiso   1.00
C323   C     0.45607   0.21516   0.52303   0.00000  Uiso   1.00
C324   C     0.25135   0.26674   0.51556   0.00000  Uiso   1.00
C325   C     0.04393   0.11817   0.47697   0.00000  Uiso   1.00
C326   C     0.47019   0.07363   0.44819   0.00000  Uiso   1.00
C327   C     0.02981   0.25971   0.55181   0.00000  Uiso   1.00
C328   C     0.03574   0.01832   0.43357   0.00000  Uiso   1.00
C329   C     0.46426   0.31502   0.56643   0.00000  Uiso   1.00
C330   C     0.01691   0.07113   0.45227   0.00000  Uiso   1.00
C331   C     0.48309   0.26220   0.54773   0.00000  Uiso   1.00
C332   C     0.24799   0.01061   0.47568   0.00000  Uiso   1.00
C333   C     0.25201   0.32272   0.52432   0.00000  Uiso   1.00
C334   C     0.16456   0.16650   0.50103   0.00000  Uiso   1.00
C335   C     0.33544   0.16683   0.49897   0.00000  Uiso   1.00
C336   C     0.40923   0.21370   0.52388   0.00000  Uiso   1.00
Cu337  Cu    0.25500   0.17246   0.56146   0.00000  Uiso   1.00
Cu338  Cu    0.24499   0.16087   0.43854   0.00000  Uiso   1.00
H339   H     0.39214   0.24772   0.54639   0.00000  Uiso   1.00
H340   H     0.28495   0.20736   0.35037   0.00000  Uiso   1.00
H341   H     0.08183   0.30110   0.45062   0.00000  Uiso   1.00
H342   H     0.41817   0.03223   0.54938   0.00000  Uiso   1.00
H343   H     0.10785   0.08562   0.45361   0.00000  Uiso   1.00
H344   H     0.38269   0.08608   0.44885   0.00000  Uiso   1.00
H345   H     0.11731   0.24726   0.55115   0.00000  Uiso   1.00
H346   H     0.44923   0.03798   0.42897   0.00000  Uiso   1.00
H347   H     0.05077   0.29535   0.57103   0.00000  Uiso   1.00
H348   H     0.24419   0.32010   0.42882   0.00000  Uiso   1.00
H349   H     0.25581   0.01324   0.57118   0.00000  Uiso   1.00
H350   H     0.21505   0.12597   0.64963   0.00000  Uiso   1.00
N351   N     0.23744   0.15214   0.34617   0.00000  Uiso   1.00
N352   N     0.26255   0.18119   0.65383   0.00000  Uiso   1.00
O353   O     0.25325   0.09538   0.53992   0.00000  Uiso   1.00
O354   O     0.07278   0.00508   0.46744   0.00000  Uiso   1.00
O355   O     0.48254   0.01467   0.60981   0.00000  Uiso   1.00
O356   O     0.42722   0.32825   0.53256   0.00000  Uiso   1.00
O357   O     0.24674   0.23796   0.46008   0.00000  Uiso   1.00
O358   O     0.24480   0.08559   0.43612   0.00000  Uiso   1.00
O359   O     0.25520   0.24774   0.56388   0.00000  Uiso   1.00
O360   O     0.18935   0.17155   0.55191   0.00000  Uiso   1.00
O361   O     0.31064   0.16179   0.44809   0.00000  Uiso   1.00
O362   O     0.18090   0.16176   0.44810   0.00000  Uiso   1.00
O363   O     0.31910   0.17157   0.55190   0.00000  Uiso   1.00
O364   O     0.01746   0.31867   0.39019   0.00000  Uiso   1.00
C365   C     0.74865   0.06659   0.48444   0.00000  Uiso   1.00
C366   C     0.59077   0.11964   0.47612   0.00000  Uiso   1.00
C367   C     0.88350   0.16751   0.49670   0.00000  Uiso   1.00
C368   C     0.61650   0.16583   0.50330   0.00000  Uiso   1.00
C369   C     0.90347   0.12163   0.46929   0.00000  Uiso   1.00
C370   C     0.59653   0.21171   0.53071   0.00000  Uiso   1.00
C371   C     0.95004   0.12083   0.47131   0.00000  Uiso   1.00
C372   C     0.54996   0.21251   0.52869   0.00000  Uiso   1.00
C373   C     0.97656   0.16737   0.49858   0.00000  Uiso   1.00
C374   C     0.52344   0.16596   0.50142   0.00000  Uiso   1.00
C375   C     0.95607   0.21516   0.52303   0.00000  Uiso   1.00
C376   C     0.75135   0.26674   0.51556   0.00000  Uiso   1.00
C377   C     0.54393   0.11817   0.47697   0.00000  Uiso   1.00
C378   C     0.97019   0.07363   0.44819   0.00000  Uiso   1.00
C379   C     0.52981   0.25971   0.55181   0.00000  Uiso   1.00
C380   C     0.53574   0.01832   0.43357   0.00000  Uiso   1.00
C381   C     0.96426   0.31502   0.56643   0.00000  Uiso   1.00
C382   C     0.51691   0.07113   0.45227   0.00000  Uiso   1.00
C383   C     0.98309   0.26220   0.54773   0.00000  Uiso   1.00
C384   C     0.74799   0.01061   0.47568   0.00000  Uiso   1.00
C385   C     0.75201   0.32272   0.52432   0.00000  Uiso   1.00
C386   C     0.66456   0.16650   0.50103   0.00000  Uiso   1.00
C387   C     0.83544   0.16683   0.49897   0.00000  Uiso   1.00
C388   C     0.90923   0.21370   0.52388   0.00000  Uiso   1.00
Cu389  Cu    0.75500   0.17246   0.56146   0.00000  Uiso   1.00
Cu390  Cu    0.74499   0.16087   0.43854   0.00000  Uiso   1.00
H391   H     0.89214   0.24772   0.54639   0.00000  Uiso   1.00
H392   H     0.78495   0.20736   0.35037   0.00000  Uiso   1.00
H393   H     0.58183   0.30110   0.45062   0.00000  Uiso   1.00
H394   H     0.91817   0.03223   0.54938   0.00000  Uiso   1.00
H395   H     0.60785   0.08562   0.45361   0.00000  Uiso   1.00
H396   H     0.88269   0.08608   0.44885   0.00000  Uiso   1.00
H397   H     0.61731   0.24726   0.55115   0.00000  Uiso   1.00
H398   H     0.94923   0.03798   0.42897   0.00000  Uiso   1.00
H399   H     0.55077   0.29535   0.57103   0.00000  Uiso   1.00
H400   H     0.74419   0.32010   0.42882   0.00000  Uiso   1.00
H401   H     0.75581   0.01324   0.57118   0.00000  Uiso   1.00
H402   H     0.71505   0.12597   0.64963   0.00000  Uiso   1.00
N403   N     0.73744   0.15214   0.34617   0.00000  Uiso   1.00
N404   N     0.76255   0.18119   0.65383   0.00000  Uiso   1.00
O405   O     0.75325   0.09538   0.53992   0.00000  Uiso   1.00
O406   O     0.57278   0.00508   0.46744   0.00000  Uiso   1.00
O407   O     0.98254   0.01467   0.60981   0.00000  Uiso   1.00
O408   O     0.92722   0.32825   0.53256   0.00000  Uiso   1.00
O409   O     0.74674   0.23796   0.46008   0.00000  Uiso   1.00
O410   O     0.74480   0.08559   0.43612   0.00000  Uiso   1.00
O411   O     0.75520   0.24774   0.56388   0.00000  Uiso   1.00
O412   O     0.68935   0.17155   0.55191   0.00000  Uiso   1.00
O413   O     0.81064   0.16179   0.44809   0.00000  Uiso   1.00
O414   O     0.68090   0.16176   0.44810   0.00000  Uiso   1.00
O415   O     0.81910   0.17157   0.55190   0.00000  Uiso   1.00
O416   O     0.51746   0.31867   0.39019   0.00000  Uiso   1.00
C417   C     0.24865   0.39993   0.48444   0.00000  Uiso   1.00
C418   C     0.09077   0.45297   0.47612   0.00000  Uiso   1.00
C419   C     0.38350   0.50084   0.49670   0.00000  Uiso   1.00
C420   C     0.11650   0.49916   0.50330   0.00000  Uiso   1.00
C421   C     0.40347   0.45496   0.46929   0.00000  Uiso   1.00
C422   C     0.09653   0.54504   0.53071   0.00000  Uiso   1.00
C423   C     0.45004   0.45416   0.47131   0.00000  Uiso   1.00
C424   C     0.04996   0.54584   0.52869   0.00000  Uiso   1.00
C425   C     0.47656   0.50070   0.49858   0.00000  Uiso   1.00
C426   C     0.02344   0.49930   0.50142   0.00000  Uiso   1.00
C427   C     0.45607   0.54850   0.52303   0.00000  Uiso   1.00
C428   C     0.25135   0.60007   0.51556   0.00000  Uiso   1.00
C429   C     0.04393   0.45150   0.47697   0.00000  Uiso   1.00
C430   C     0.47019   0.40696   0.44819   0.00000  Uiso   1.00
C431   C     0.02981   0.59304   0.55181   0.00000  Uiso   1.00
C432   C     0.03574   0.35165   0.43357   0.00000  Uiso   1.00
C433   C     0.46426   0.64835   0.56643   0.00000  Uiso   1.00
C434   C     0.01691   0.40446   0.45227   0.00000  Uiso   1.00
C435   C     0.48309   0.59554   0.54773   0.00000  Uiso   1.00
C436   C     0.24799   0.34395   0.47568   0.00000  Uiso   1.00
C437   C     0.25201   0.65605   0.52432   0.00000  Uiso   1.00
C438   C     0.16456   0.49983   0.50103   0.00000  Uiso   1.00
C439   C     0.33544   0.50016   0.49897   0.00000  Uiso   1.00
C440   C     0.40923   0.54703   0.52388   0.00000  Uiso   1.00
Cu441  Cu    0.25500   0.50579   0.56146   0.00000  Uiso   1.00
Cu442  Cu    0.24499   0.49421   0.43854   0.00000  Uiso   1.00
H443   H     0.39214   0.58105   0.54639   0.00000  Uiso   1.00
H444   H     0.28495   0.54069   0.35037   0.00000  Uiso   1.00
H445   H     0.08183   0.63444   0.45062   0.00000  Uiso   1.00
H446   H     0.41817   0.36556   0.54938   0.00000  Uiso   1.00
H447   H     0.10785   0.41895   0.45361   0.00000  Uiso   1.00
H448   H     0.38269   0.41941   0.44885   0.00000  Uiso   1.00
H449   H     0.11731   0.58059   0.55115   0.00000  Uiso   1.00
H450   H     0.44923   0.37131   0.42897   0.00000  Uiso   1.00
H451   H     0.05077   0.62869   0.57103   0.00000  Uiso   1.00
H452   H     0.24419   0.65343   0.42882   0.00000  Uiso   1.00
H453   H     0.25581   0.34657   0.57118   0.00000  Uiso   1.00
H454   H     0.21505   0.45931   0.64963   0.00000  Uiso   1.00
N455   N     0.23744   0.48547   0.34617   0.00000  Uiso   1.00
N456   N     0.26255   0.51453   0.65383   0.00000  Uiso   1.00
O457   O     0.25325   0.42871   0.53992   0.00000  Uiso   1.00
O458   O     0.07278   0.33842   0.46744   0.00000  Uiso   1.00
O459   O     0.48254   0.34800   0.60981   0.00000  Uiso   1.00
O460   O     0.42722   0.66158   0.53256   0.00000  Uiso   1.00
O461   O     0.24674   0.57129   0.46008   0.00000  Uiso   1.00
O462   O     0.24480   0.41892   0.43612   0.00000  Uiso   1.00
O463   O     0.25520   0.58108   0.56388   0.00000  Uiso   1.00
O464   O     0.18935   0.50488   0.55191   0.00000  Uiso   1.00
O465   O     0.31064   0.49512   0.44809   0.00000  Uiso   1.00
O466   O     0.18090   0.49510   0.44810   0.00000  Uiso   1.00
O467   O     0.31910   0.50490   0.55190   0.00000  Uiso   1.00
O468   O     0.01746   0.65200   0.39019   0.00000  Uiso   1.00
C469   C     0.74865   0.39993   0.48444   0.00000  Uiso   1.00
C470   C     0.59077   0.45297   0.47612   0.00000  Uiso   1.00
C471   C     0.88350   0.50084   0.49670   0.00000  Uiso   1.00
C472   C     0.61650   0.49916   0.50330   0.00000  Uiso   1.00
C473   C     0.90347   0.45496   0.46929   0.00000  Uiso   1.00
C474   C     0.59653   0.54504   0.53071   0.00000  Uiso   1.00
C475   C     0.95004   0.45416   0.47131   0.00000  Uiso   1.00
C476   C     0.54996   0.54584   0.52869   0.00000  Uiso   1.00
C477   C     0.97656   0.50070   0.49858   0.00000  Uiso   1.00
C478   C     0.52344   0.49930   0.50142   0.00000  Uiso   1.00
C479   C     0.95607   0.54850   0.52303   0.00000  Uiso   1.00
C480   C     0.75135   0.60007   0.51556   0.00000  Uiso   1.00
C481   C     0.54393   0.45150   0.47697   0.00000  Uiso   1.00
C482   C     0.97019   0.40696   0.44819   0.00000  Uiso   1.00
C483   C     0.52981   0.59304   0.55181   0.00000  Uiso   1.00
C484   C     0.53574   0.35165   0.43357   0.00000  Uiso   1.00
C485   C     0.96426   0.64835   0.56643   0.00000  Uiso   1.00
C486   C     0.51691   0.40446   0.45227   0.00000  Uiso   1.00
C487   C     0.98309   0.59554   0.54773   0.00000  Uiso   1.00
C488   C     0.74799   0.34395   0.47568   0.00000  Uiso   1.00
C489   C     0.75201   0.65605   0.52432   0.00000  Uiso   1.00
C490   C     0.66456   0.49983   0.50103   0.00000  Uiso   1.00
C491   C     0.83544   0.50016   0.49897   0.00000  Uiso   1.00
C492   C     0.90923   0.54703   0.52388   0.00000  Uiso   1.00
Cu493  Cu    0.75500   0.50579   0.56146   0.00000  Uiso   1.00
Cu494  Cu    0.74499   0.49421   0.43854   0.00000  Uiso   1.00
H495   H     0.89214   0.58105   0.54639   0.00000  Uiso   1.00
H496   H     0.78495   0.54069   0.35037   0.00000  Uiso   1.00
H497   H     0.58183   0.63444   0.45062   0.00000  Uiso   1.00
H498   H     0.91817   0.36556   0.54938   0.00000  Uiso   1.00
H499   H     0.60785   0.41895   0.45361   0.00000  Uiso   1.00
H500   H     0.88269   0.41941   0.44885   0.00000  Uiso   1.00
H501   H     0.61731   0.58059   0.55115   0.00000  Uiso   1.00
H502   H     0.94923   0.37131   0.42897   0.00000  Uiso   1.00
H503   H     0.55077   0.62869   0.57103   0.00000  Uiso   1.00
H504   H     0.74419   0.65343   0.42882   0.00000  Uiso   1.00
H505   H     0.75581   0.34657   0.57118   0.00000  Uiso   1.00
H506   H     0.71505   0.45931   0.64963   0.00000  Uiso   1.00
N507   N     0.73744   0.48547   0.34617   0.00000  Uiso   1.00
N508   N     0.76255   0.51453   0.65383   0.00000  Uiso   1.00
O509   O     0.75325   0.42871   0.53992   0.00000  Uiso   1.00
O510   O     0.57278   0.33842   0.46744   0.00000  Uiso   1.00
O511   O     0.98254   0.34800   0.60981   0.00000  Uiso   1.00
O512   O     0.92722   0.66158   0.53256   0.00000  Uiso   1.00
O513   O     0.74674   0.57129   0.46008   0.00000  Uiso   1.00
O514   O     0.74480   0.41892   0.43612   0.00000  Uiso   1.00
O515   O     0.75520   0.58108   0.56388   0.00000  Uiso   1.00
O516   O     0.68935   0.50488   0.55191   0.00000  Uiso   1.00
O517   O     0.81064   0.49512   0.44809   0.00000  Uiso   1.00
O518   O     0.68090   0.49510   0.44810   0.00000  Uiso   1.00
O519   O     0.81910   0.50490   0.55190   0.00000  Uiso   1.00
O520   O     0.51746   0.65200   0.39019   0.00000  Uiso   1.00
C521   C     0.24865   0.73326   0.48444   0.00000  Uiso   1.00
C522   C     0.09077   0.78630   0.47612   0.00000  Uiso   1.00
C523   C     0.38350   0.83417   0.49670   0.00000  Uiso   1.00
C524   C     0.11650   0.83249   0.50330   0.00000  Uiso   1.00
C525   C     0.40347   0.78829   0.46929   0.00000  Uiso   1.00
C526   C     0.09653   0.87837   0.53071   0.00000  Uiso   1.00
C527   C     0.45004   0.78749   0.47131   0.00000  Uiso   1.00
C528   C     0.04996   0.87917   0.52869   0.00000  Uiso   1.00
C529   C     0.47656   0.83404   0.49858   0.00000  Uiso   1.00
C530   C     0.02344   0.83263   0.50142   0.00000  Uiso   1.00
C531   C     0.45607   0.88183   0.52303   0.00000  Uiso   1.00
C532   C     0.25135   0.93341   0.51556   0.00000  Uiso   1.00
C533   C     0.04393   0.78484   0.47697   0.00000  Uiso   1.00
C534   C     0.47019   0.74029   0.44819   0.00000  Uiso   1.00
C535   C     0.02981   0.92637   0.55181   0.00000  Uiso   1.00
C536   C     0.03574   0.68498   0.43357   0.00000  Uiso   1.00
C537   C     0.46426   0.98168   0.56643   0.00000  Uiso   1.00
C538   C     0.01691   0.73780   0.45227   0.00000  Uiso   1.00
C539   C     0.48309   0.92887   0.54773   0.00000  Uiso   1.00
C540   C     0.24799   0.67728   0.47568   0.00000  Uiso   1.00
C541   C     0.25201   0.98939   0.52432   0.00000  Uiso   1.00
C542   C     0.16456   0.83317   0.50103   0.00000  Uiso   1.00
C543   C     0.33544   0.83350   0.49897   0.00000  Uiso   1.00
C544   C     0.40923   0.88036   0.52388   0.00000  Uiso   1.00
Cu545  Cu    0.25500   0.83913   0.56146   0.00000  Uiso   1.00
Cu546  Cu    0.24499   0.82754   0.43854   0.00000  Uiso   1.00
H547   H     0.39214   0.91438   0.54639   0.00000  Uiso   1.00
H548   H     0.28495   0.87403   0.35037   0.00000  Uiso   1.00
H549   H     0.08183   0.96777   0.45062   0.00000  Uiso   1.00
H550   H     0.41817   0.69890   0.54938   0.00000  Uiso   1.00
H551   H     0.10785   0.75228   0.45361   0.00000  Uiso   1.00
H552   H     0.38269   0.75274   0.44885   0.00000  Uiso   1.00
H553   H     0.11731   0.91392   0.55115   0.00000  Uiso   1.00
H554   H     0.44923   0.70465   0.42897   0.00000  Uiso   1.00
H555   H     0.05077   0.96202   0.57103   0.00000  Uiso   1.00
H556   H     0.24419   0.98676   0.42882   0.00000  Uiso   1.00
H557   H     0.25581   0.67990   0.57118   0.00000  Uiso   1.00
H558   H     0.21505   0.79264   0.64963   0.00000  Uiso   1.00
N559   N     0.23744   0.81881   0.34617   0.00000  Uiso   1.00
N560   N     0.26255   0.84786   0.65383   0.00000  Uiso   1.00
O561   O     0.25325   0.76204   0.53992   0.00000  Uiso   1.00
O562   O     0.07278   0.67175   0.46744   0.00000  Uiso   1.00
O563   O     0.48254   0.68133   0.60981   0.00000  Uiso   1.00
O564   O     0.42722   0.99492   0.53256   0.00000  Uiso   1.00
O565   O     0.24674   0.90462   0.46008   0.00000  Uiso   1.00
O566   O     0.24480   0.75226   0.43612   0.00000  Uiso   1.00
O567   O     0.25520   0.91441   0.56388   0.00000  Uiso   1.00
O568   O     0.18935   0.83821   0.55191   0.00000  Uiso   1.00
O569   O     0.31064   0.82845   0.44809   0.00000  Uiso   1.00
O570   O     0.18090   0.82843   0.44810   0.00000  Uiso   1.00
O571   O     0.31910   0.83824   0.55190   0.00000  Uiso   1.00
O572   O     0.01746   0.98533   0.39019   0.00000  Uiso   1.00
C573   C     0.74865   0.73326   0.48444   0.00000  Uiso   1.00
C574   C     0.59077   0.78630   0.47612   0.00000  Uiso   1.00
C575   C     0.88350   0.83417   0.49670   0.00000  Uiso   1.00
C576   C     0.61650   0.83249   0.50330   0.00000  Uiso   1.00
C577   C     0.90347   0.78829   0.46929   0.00000  Uiso   1.00
C578   C     0.59653   0.87837   0.53071   0.00000  Uiso   1.00
C579   C     0.95004   0.78749   0.47131   0.00000  Uiso   1.00
C580   C     0.54996   0.87917   0.52869   0.00000  Uiso   1.00
C581   C     0.97656   0.83404   0.49858   0.00000  Uiso   1.00
C582   C     0.52344   0.83263   0.50142   0.00000  Uiso   1.00
C583   C     0.95607   0.88183   0.52303   0.00000  Uiso   1.00
C584   C     0.75135   0.93341   0.51556   0.00000  Uiso   1.00
C585   C     0.54393   0.78484   0.47697   0.00000  Uiso   1.00
C586   C     0.97019   0.74029   0.44819   0.00000  Uiso   1.00
C587   C     0.52981   0.92637   0.55181   0.00000  Uiso   1.00
C588   C     0.53574   0.68498   0.43357   0.00000  Uiso   1.00
C589   C     0.96426   0.98168   0.56643   0.00000  Uiso   1.00
C590   C     0.51691   0.73780   0.45227   0.00000  Uiso   1.00
C591   C     0.98309   0.92887   0.54773   0.00000  Uiso   1.00
C592   C     0.74799   0.67728   0.47568   0.00000  Uiso   1.00
C593   C     0.75201   0.98939   0.52432   0.00000  Uiso   1.00
C594   C     0.66456   0.83317   0.50103   0.00000  Uiso   1.00
C595   C     0.83544   0.83350   0.49897   0.00000  Uiso   1.00
C596   C     0.90923   0.88036   0.52388   0.00000  Uiso   1.00
Cu597  Cu    0.75500   0.83913   0.56146   0.00000  Uiso   1.00
Cu598  Cu    0.74499   0.82754   0.43854   0.00000  Uiso   1.00
H599   H     0.89214   0.91438   0.54639   0.00000  Uiso   1.00
H600   H     0.78495   0.87403   0.35037   0.00000  Uiso   1.00
H601   H     0.58183   0.96777   0.45062   0.00000  Uiso   1.00
H602   H     0.91817   0.69890   0.54938   0.00000  Uiso   1.00
H603   H     0.60785   0.75228   0.45361   0.00000  Uiso   1.00
H604   H     0.88269   0.75274   0.44885   0.00000  Uiso   1.00
H605   H     0.61731   0.91392   0.55115   0.00000  Uiso   1.00
H606   H     0.94923   0.70465   0.42897   0.00000  Uiso   1.00
H607   H     0.55077   0.96202   0.57103   0.00000  Uiso   1.00
H608   H     0.74419   0.98676   0.42882   0.00000  Uiso   1.00
H609   H     0.75581   0.67990   0.57118   0.00000  Uiso   1.00
H610   H     0.71505   0.79264   0.64963   0.00000  Uiso   1.00
N611   N     0.73744   0.81881   0.34617   0.00000  Uiso   1.00
N612   N     0.76255   0.84786   0.65383   0.00000  Uiso   1.00
O613   O     0.75325   0.76204   0.53992   0.00000  Uiso   1.00
O614   O     0.57278   0.67175   0.46744   0.00000  Uiso   1.00
O615   O     0.98254   0.68133   0.60981   0.00000  Uiso   1.00
O616   O     0.92722   0.99492   0.53256   0.00000  Uiso   1.00
O617   O     0.74674   0.90462   0.46008   0.00000  Uiso   1.00
O618   O     0.74480   0.75226   0.43612   0.00000  Uiso   1.00
O619   O     0.75520   0.91441   0.56388   0.00000  Uiso   1.00
O620   O     0.68935   0.83821   0.55191   0.00000  Uiso   1.00
O621   O     0.81064   0.82845   0.44809   0.00000  Uiso   1.00
O622   O     0.68090   0.82843   0.44810   0.00000  Uiso   1.00
O623   O     0.81910   0.83824   0.55190   0.00000  Uiso   1.00
O624   O     0.51746   0.98533   0.39019   0.00000  Uiso   1.00
C625   C     0.24865   0.06659   0.81777   0.00000  Uiso   1.00
C626   C     0.09077   0.11964   0.80946   0.00000  Uiso   1.00
C627   C     0.38350   0.16751   0.83003   0.00000  Uiso   1.00
C628   C     0.11650   0.16583   0.83663   0.00000  Uiso   1.00
C629   C     0.40347   0.12163   0.80262   0.00000  Uiso   1.00
C630   C     0.09653   0.21171   0.86404   0.00000  Uiso   1.00
C631   C     0.45004   0.12083   0.80464   0.00000  Uiso   1.00
C632   C     0.04996   0.21251   0.86203   0.00000  Uiso   1.00
C633   C     0.47656   0.16737   0.83191   0.00000  Uiso   1.00
C634   C     0.02344   0.16596   0.83475   0.00000  Uiso   1.00
C635   C     0.45607   0.21516   0.85637   0.00000  Uiso   1.00
C636   C     0.25135   0.26674   0.84890   0.00000  Uiso   1.00
C637   C     0.04393   0.11817   0.81030   0.00000  Uiso   1.00
C638   C     0.47019   0.07363   0.78153   0.00000  Uiso   1.00
C639   C     0.02981   0.25971   0.88514   0.00000  Uiso   1.00
C640   C     0.03574   0.01832   0.76691   0.00000  Uiso   1.00
C641   C     0.46426   0.31502   0.89976   0.00000  Uiso   1.00
C642   C     0.01691   0.07113   0.78561   0.00000  Uiso   1.00
C643   C     0.48309   0.26220   0.88106   0.00000  Uiso   1.00
C644   C     0.24799   0.01061   0.80902   0.00000  Uiso   1.00
C645   C     0.25201   0.32272   0.85765   0.00000  Uiso   1.00
C646   C     0.16456   0.16650   0.83436   0.00000  Uiso   1.00
C647   C     0.33544   0.16683   0.83231   0.00000  Uiso   1.00
C648   C     0.40923   0.21370   0.85721   0.00000  Uiso   1.00
Cu649  Cu    0.25500   0.17246   0.89479   0.00000  Uiso   1.00
Cu650  Cu    0.24499   0.16087   0.77187   0.00000  Uiso   1.00
H651   H     0.39214   0.24772   0.87972   0.00000  Uiso   1.00
H652   H     0.28495   0.20736   0.68370   0.00000  Uiso   1.00
H653   H     0.08183   0.30110   0.78395   0.00000  Uiso   1.00
H654   H     0.41817   0.03223   0.88272   0.00000  Uiso   1.00
H655   H     0.10785   0.08562   0.78694   0.00000  Uiso   1.00
H656   H     0.38269   0.08608   0.78218   0.00000  Uiso   1.00
H657   H     0.11731   0.24726   0.88449   0.00000  Uiso   1.00
H658   H     0.44923   0.03798   0.76230   0.00000  Uiso   1.00
H659   H     0.05077   0.29535   0.90437   0.00000  Uiso   1.00
H660   H     0.24419   0.32010   0.76215   0.00000  Uiso   1.00
H661   H     0.25581   0.01324   0.90451   0.00000  Uiso   1.00
H662   H     0.21505   0.12597   0.98296   0.00000  Uiso   1.00
N663   N     0.23744   0.15214   0.67951   0.00000  Uiso   1.00
N664   N     0.26255   0.18119   0.98716   0.00000  Uiso   1.00
O665   O     0.25325   0.09538   0.87326   0.00000  Uiso   1.00
O666   O     0.07278   0.00508   0.80077   0.00000  Uiso   1.00
O667   O     0.48254   0.01467   0.94314   0.00000  Uiso   1.00
O668   O     0.42722   0.32825   0.86589   0.00000  Uiso   1.00
O669   O     0.24674   0.23796   0.79341   0.00000  Uiso   1.00
O670   O     0.24480   0.08559   0.76945   0.00000  Uiso   1.00
O671   O     0.25520   0.24774   0.89721   0.00000  Uiso   1.00
O672   O     0.18935   0.17155   0.88524   0.00000  Uiso   1.00
O673   O     0.31064   0.16179   0.78143   0.00000  Uiso   1.00
O674   O     0.18090   0.16176   0.78143   0.00000  Uiso   1.00
O675   O     0.31910   0.17157   0.88523   0.00000  Uiso   1.00
O676   O     0.01746   0.31867   0.72352   0.00000  Uiso   1.00
C677   C     0.74865   0.06659   0.81777   0.00000  Uiso   1.00
C678   C     0.59077   0.11964   0.80946   0.00000  Uiso   1.00
C679   C     0.88350   0.16751   0.83003   0.00000  Uiso   1.00
C680   C     0.61650   0.16583   0.83663   0.00000  Uiso   1.00
C681   C     0.90347   0.12163   0.80262   0.00000  Uiso   1.00
C682   C     0.59653   0.21171   0.86404   0.00000  Uiso   1.00
C683   C     0.95004   0.12083   0.80464   0.00000  Uiso   1.00
C684   C     0.54996   0.21251   0.86203   0.00000  Uiso   1.00
C685   C     0.97656   0.16737   0.83191   0.00000  Uiso   1.00
C686   C     0.52344   0.16596   0.83475   0.00000  Uiso   1.00
C687   C     0.95607   0.21516   0.85637   0.00000  Uiso   1.00
C688   C     0.75135   0.26674   0.84890   0.00000  Uiso   1.00
C689   C     0.54393   0.11817   0.81030   0.00000  Uiso   1.00
C690   C     0.97019   0.07363   0.78153   0.00000  Uiso   1.00
C691   C     0.52981   0.25971   0.88514   0.00000  Uiso   1.00
C692   C     0.53574   0.01832   0.76691   0.00000  Uiso   1.00
C693   C     0.96426   0.31502   0.89976   0.00000  Uiso   1.00
C694   C     0.51691   0.07113   0.78561   0.00000  Uiso   1.00
C695   C     0.98309   0.26220   0.88106   0.00000  Uiso   1.00
C696   C     0.74799   0.01061   0.80902   0.00000  Uiso   1.00
C697   C     0.75201   0.32272   0.85765   0.00000  Uiso   1.00
C698   C     0.66456   0.16650   0.83436   0.00000  Uiso   1.00
C699   C     0.83544   0.16683   0.83231   0.00000  Uiso   1.00
C700   C     0.90923   0.21370   0.85721   0.00000  Uiso   1.00
Cu701  Cu    0.75500   0.17246   0.89479   0.00000  Uiso   1.00
Cu702  Cu    0.74499   0.16087   0.77187   0.00000  Uiso   1.00
H703   H     0.89214   0.24772   0.87972   0.00000  Uiso   1.00
H704   H     0.78495   0.20736   0.68370   0.00000  Uiso   1.00
H705   H     0.58183   0.30110   0.78395   0.00000  Uiso   1.00
H706   H     0.91817   0.03223   0.88272   0.00000  Uiso   1.00
H707   H     0.60785   0.08562   0.78694   0.00000  Uiso   1.00
H708   H     0.88269   0.08608   0.78218   0.00000  Uiso   1.00
H709   H     0.61731   0.24726   0.88449   0.00000  Uiso   1.00
H710   H     0.94923   0.03798   0.76230   0.00000  Uiso   1.00
H711   H     0.55077   0.29535   0.90437   0.00000  Uiso   1.00
H712   H     0.74419   0.32010   0.76215   0.00000  Uiso   1.00
H713   H     0.75581   0.01324   0.90451   0.00000  Uiso   1.00
H714   H     0.71505   0.12597   0.98296   0.00000  Uiso   1.00
N715   N     0.73744   0.15214   0.67951   0.00000  Uiso   1.00
N716   N     0.76255   0.18119   0.98716   0.00000  Uiso   1.00
O717   O     0.75325   0.09538   0.87326   0.00000  Uiso   1.00
O718   O     0.57278   0.00508   0.80077   0.00000  Uiso   1.00
O719   O     0.98254   0.01467   0.94314   0.00000  Uiso   1.00
O720   O     0.92722   0.32825   0.86589   0.00000  Uiso   1.00
O721   O     0.74674   0.23796   0.79341   0.00000  Uiso   1.00
O722   O     0.74480   0.08559   0.76945   0.00000  Uiso   1.00
O723   O     0.75520   0.24774   0.89721   0.00000  Uiso   1.00
O724   O     0.68935   0.17155   0.88524   0.00000  Uiso   1.00
O725   O     0.81064   0.16179   0.78143   0.00000  Uiso   1.00
O726   O     0.68090   0.16176   0.78143   0.00000  Uiso   1.00
O727   O     0.81910   0.17157   0.88523   0.00000  Uiso   1.00
O728   O     0.51746   0.31867   0.72352   0.00000  Uiso   1.00
C729   C     0.24865   0.39993   0.81777   0.00000  Uiso   1.00
C730   C     0.09077   0.45297   0.80946   0.00000  Uiso   1.00
C731   C     0.38350   0.50084   0.83003   0.00000  Uiso   1.00
C732   C     0.11650   0.49916   0.83663   0.00000  Uiso   1.00
C733   C     0.40347   0.45496   0.80262   0.00000  Uiso   1.00
C734   C     0.09653   0.54504   0.86404   0.00000  Uiso   1.00
C735   C     0.45004   0.45416   0.80464   0.00000  Uiso   1.00
C736   C     0.04996   0.54584   0.86203   0.00000  Uiso   1.00
C737   C     0.47656   0.50070   0.83191   0.00000  Uiso   1.00
C738   C     0.02344   0.49930   0.83475   0.00000  Uiso   1.00
C739   C     0.45607   0.54850   0.85637   0.00000  Uiso   1.00
C740   C     0.25135   0.60007   0.84890   0.00000  Uiso   1.00
C741   C     0.04393   0.45150   0.81030   0.00000  Uiso   1.00
C742   C     0.47019   0.40696   0.78153   0.00000  Uiso   1.00
C743   C     0.02981   0.59304   0.88514   0.00000  Uiso   1.00
C744   C     0.03574   0.35165   0.76691   0.00000  Uiso   1.00
C745   C     0.46426   0.64835   0.89976   0.00000  Uiso   1.00
C746   C     0.01691   0.40446   0.78561   0.00000  Uiso   1.00
C747   C     0.48309   0.59554   0.88106   0.00000  Uiso   1.00
C748   C     0.24799   0.34395   0.80902   0.00000  Uiso   1.00
C749   C     0.25201   0.65605   0.85765   0.00000  Uiso   1.00
C750   C     0.16456   0.49983   0.83436   0.00000  Uiso   1.00
C751   C     0.33544   0.50016   0.83231   0.00000  Uiso   1.00
C752   C     0.40923   0.54703   0.85721   0.00000  Uiso   1.00
Cu753  Cu    0.25500   0.50579   0.89479   0.00000  Uiso   1.00
Cu754  Cu    0.24499   0.49421   0.77187   0.00000  Uiso   1.00
H755   H     0.39214   0.58105   0.87972   0.00000  Uiso   1.00
H756   H     0.28495   0.54069   0.68370   0.00000  Uiso   1.00
H757   H     0.08183   0.63444   0.78395   0.00000  Uiso   1.00
H758   H     0.41817   0.36556   0.88272   0.00000  Uiso   1.00
H759   H     0.10785   0.41895   0.78694   0.00000  Uiso   1.00
H760   H     0.38269   0.41941   0.78218   0.00000  Uiso   1.00
H761   H     0.11731   0.58059   0.88449   0.00000  Uiso   1.00
H762   H     0.44923   0.37131   0.76230   0.00000  Uiso   1.00
H763   H     0.05077   0.62869   0.90437   0.00000  Uiso   1.00
H764   H     0.24419   0.65343   0.76215   0.00000  Uiso   1.00
H765   H     0.25581   0.34657   0.90451   0.00000  Uiso   1.00
H766   H     0.21505   0.45931   0.98296   0.00000  Uiso   1.00
N767   N     0.23744   0.48547   0.67951   0.00000  Uiso   1.00
N768   N     0.26255   0.51453   0.98716   0.00000  Uiso   1.00
O769   O     0.25325   0.42871   0.87326   0.00000  Uiso   1.00
O770   O     0.07278   0.33842   0.80077   0.00000  Uiso   1.00
O771   O     0.48254   0.34800   0.94314   0.00000  Uiso   1.00
O772   O     0.42722   0.66158   0.86589   0.00000  Uiso   1.00
O773   O     0.24674   0.57129   0.79341   0.00000  Uiso   1.00
O774   O     0.24480   0.41892   0.76945   0.00000  Uiso   1.00
O775   O     0.25520   0.58108   0.89721   0.00000  Uiso   1.00
O776   O     0.18935   0.50488   0.88524   0.00000  Uiso   1.00
O777   O     0.31064   0.49512   0.78143   0.00000  Uiso   1.00
O778   O     0.18090   0.49510   0.78143   0.00000  Uiso   1.00
O779   O     0.31910   0.50490   0.88523   0.00000  Uiso   1.00
O780   O     0.01746   0.65200   0.72352   0.00000  Uiso   1.00
C781   C     0.74865   0.39993   0.81777   0.00000  Uiso   1.00
C782   C     0.59077   0.45297   0.80946   0.00000  Uiso   1.00
C783   C     0.88350   0.50084   0.83003   0.00000  Uiso   1.00
C784   C     0.61650   0.49916   0.83663   0.00000  Uiso   1.00
C785   C     0.90347   0.45496   0.80262   0.00000  Uiso   1.00
C786   C     0.59653   0.54504   0.86404   0.00000  Uiso   1.00
C787   C     0.95004   0.45416   0.80464   0.00000  Uiso   1.00
C788   C     0.54996   0.54584   0.86203   0.00000  Uiso   1.00
C789   C     0.97656   0.50070   0.83191   0.00000  Uiso   1.00
C790   C     0.52344   0.49930   0.83475   0.00000  Uiso   1.00
C791   C     0.95607   0.54850   0.85637   0.00000  Uiso   1.00
C792   C     0.75135   0.60007   0.84890   0.00000  Uiso   1.00
C793   C     0.54393   0.45150   0.81030   0.00000  Uiso   1.00
C794   C     0.97019   0.40696   0.78153   0.00000  Uiso   1.00
C795   C     0.52981   0.59304   0.88514   0.00000  Uiso   1.00
C796   C     0.53574   0.35165   0.76691   0.00000  Uiso   1.00
C797   C     0.96426   0.64835   0.89976   0.00000  Uiso   1.00
C798   C     0.51691   0.40446   0.78561   0.00000  Uiso   1.00
C799   C     0.98309   0.59554   0.88106   0.00000  Uiso   1.00
C800   C     0.74799   0.34395   0.80902   0.00000  Uiso   1.00
C801   C     0.75201   0.65605   0.85765   0.00000  Uiso   1.00
C802   C     0.66456   0.49983   0.83436   0.00000  Uiso   1.00
C803   C     0.83544   0.50016   0.83231   0.00000  Uiso   1.00
C804   C     0.90923   0.54703   0.85721   0.00000  Uiso   1.00
Cu805  Cu    0.75500   0.50579   0.89479   0.00000  Uiso   1.00
Cu806  Cu    0.74499   0.49421   0.77187   0.00000  Uiso   1.00
H807   H     0.89214   0.58105   0.87972   0.00000  Uiso   1.00
H808   H     0.78495   0.54069   0.68370   0.00000  Uiso   1.00
H809   H     0.58183   0.63444   0.78395   0.00000  Uiso   1.00
H810   H     0.91817   0.36556   0.88272   0.00000  Uiso   1.00
H811   H     0.60785   0.41895   0.78694   0.00000  Uiso   1.00
H812   H     0.88269   0.41941   0.78218   0.00000  Uiso   1.00
H813   H     0.61731   0.58059   0.88449   0.00000  Uiso   1.00
H814   H     0.94923   0.37131   0.76230   0.00000  Uiso   1.00
H815   H     0.55077   0.62869   0.90437   0.00000  Uiso   1.00
H816   H     0.74419   0.65343   0.76215   0.00000  Uiso   1.00
H817   H     0.75581   0.34657   0.90451   0.00000  Uiso   1.00
H818   H     0.71505   0.45931   0.98296   0.00000  Uiso   1.00
N819   N     0.73744   0.48547   0.67951   0.00000  Uiso   1.00
N820   N     0.76255   0.51453   0.98716   0.00000  Uiso   1.00
O821   O     0.75325   0.42871   0.87326   0.00000  Uiso   1.00
O822   O     0.57278   0.33842   0.80077   0.00000  Uiso   1.00
O823   O     0.98254   0.34800   0.94314   0.00000  Uiso   1.00
O824   O     0.92722   0.66158   0.86589   0.00000  Uiso   1.00
O825   O     0.74674   0.57129   0.79341   0.00000  Uiso   1.00
O826   O     0.74480   0.41892   0.76945   0.00000  Uiso   1.00
O827   O     0.75520   0.58108   0.89721   0.00000  Uiso   1.00
O828   O     0.68935   0.50488   0.88524   0.00000  Uiso   1.00
O829   O     0.81064   0.49512   0.78143   0.00000  Uiso   1.00
O830   O     0.68090   0.49510   0.78143   0.00000  Uiso   1.00
O831   O     0.81910   0.50490   0.88523   0.00000  Uiso   1.00
O832   O     0.51746   0.65200   0.72352   0.00000  Uiso   1.00
C833   C     0.24865   0.73326   0.81777   0.00000  Uiso   1.00
C834   C     0.09077   0.78630   0.80946   0.00000  Uiso   1.00
C835   C     0.38350   0.83417   0.83003   0.00000  Uiso   1.00
C836   C     0.11650   0.83249   0.83663   0.00000  Uiso   1.00
C837   C     0.40347   0.78829   0.80262   0.00000  Uiso   1.00
C838   C     0.09653   0.87837   0.86404   0.00000  Uiso   1.00
C839   C     0.45004   0.78749   0.80464   0.00000  Uiso   1.00
C840   C     0.04996   0.87917   0.86203   0.00000  Uiso   1.00
C841   C     0.47656   0.83404   0.83191   0.00000  Uiso   1.00
C842   C     0.02344   0.83263   0.83475   0.00000  Uiso   1.00
C843   C     0.45607   0.88183   0.85637   0.00000  Uiso   1.00
C844   C     0.25135   0.93341   0.84890   0.00000  Uiso   1.00
C845   C     0.04393   0.78484   0.81030   0.00000  Uiso   1.00
C846   C     0.47019   0.74029   0.78153   0.00000  Uiso   1.00
C847   C     0.02981   0.92637   0.88514   0.00000  Uiso   1.00
C848   C     0.03574   0.68498   0.76691   0.00000  Uiso   1.00
C849   C     0.46426   0.98168   0.89976   0.00000  Uiso   1.00
C850   C     0.01691   0.73780   0.78561   0.00000  Uiso   1.00
C851   C     0.48309   0.92887   0.88106   0.00000  Uiso   1.00
C852   C     0.24799   0.67728   0.80902   0.00000  Uiso   1.00
C853   C     0.25201   0.98939   0.85765   0.00000  Uiso   1.00
C854   C     0.16456   0.83317   0.83436   0.00000  Uiso   1.00
C855   C     0.33544   0.83350   0.83231   0.00000  Uiso   1.00
C856   C     0.40923   0.88036   0.85721   0.00000  Uiso   1.00
Cu857  Cu    0.25500   0.83913   0.89479   0.00000  Uiso   1.00
Cu858  Cu    0.24499   0.82754   0.77187   0.00000  Uiso   1.00
H859   H     0.39214   0.91438   0.87972   0.00000  Uiso   1.00
H860   H     0.28495   0.87403   0.68370   0.00000  Uiso   1.00
H861   H     0.08183   0.96777   0.78395   0.00000  Uiso   1.00
H862   H     0.41817   0.69890   0.88272   0.00000  Uiso   1.00
H863   H     0.10785   0.75228   0.78694   0.00000  Uiso   1.00
H864   H     0.38269   0.75274   0.78218   0.00000  Uiso   1.00
H865   H     0.11731   0.91392   0.88449   0.00000  Uiso   1.00
H866   H     0.44923   0.70465   0.76230   0.00000  Uiso   1.00
H867   H     0.05077   0.96202   0.90437   0.00000  Uiso   1.00
H868   H     0.24419   0.98676   0.76215   0.00000  Uiso   1.00
H869   H     0.25581   0.67990   0.90451   0.00000  Uiso   1.00
H870   H     0.21505   0.79264   0.98296   0.00000  Uiso   1.00
N871   N     0.23744   0.81881   0.67951   0.00000  Uiso   1.00
N872   N     0.26255   0.84786   0.98716   0.00000  Uiso   1.00
O873   O     0.25325   0.76204   0.87326   0.00000  Uiso   1.00
O874   O     0.07278   0.67175   0.80077   0.00000  Uiso   1.00
O875   O     0.48254   0.68133   0.94314   0.00000  Uiso   1.00
O876   O     0.42722   0.99492   0.86589   0.00000  Uiso   1.00
O877   O     0.24674   0.90462   0.79341   0.00000  Uiso   1.00
O878   O     0.24480   0.75226   0.76945   0.00000  Uiso   1.00
O879   O     0.25520   0.91441   0.89721   0.00000  Uiso   1.00
O880   O     0.18935   0.83821   0.88524   0.00000  Uiso   1.00
O881   O     0.31064   0.82845   0.78143   0.00000  Uiso   1.00
O882   O     0.18090   0.82843   0.78143   0.00000  Uiso   1.00
O883   O     0.31910   0.83824   0.88523   0.00000  Uiso   1.00
O884   O     0.01746   0.98533   0.72352   0.00000  Uiso   1.00
C885   C     0.74865   0.73326   0.81777   0.00000  Uiso   1.00
C886   C     0.59077   0.78630   0.80946   0.00000  Uiso   1.00
C887   C     0.88350   0.83417   0.83003   0.00000  Uiso   1.00
C888   C     0.61650   0.83249   0.83663   0.00000  Uiso   1.00
C889   C     0.90347   0.78829   0.80262   0.00000  Uiso   1.00
C890   C     0.59653   0.87837   0.86404   0.00000  Uiso   1.00
C891   C     0.95004   0.78749   0.80464   0.00000  Uiso   1.00
C892   C     0.54996   0.87917   0.86203   0.00000  Uiso   1.00
C893   C     0.97656   0.83404   0.83191   0.00000  Uiso   1.00
C894   C     0.52344   0.83263   0.83475   0.00000  Uiso   1.00
C895   C     0.95607   0.88183   0.85637   0.00000  Uiso   1.00
C896   C     0.75135   0.93341   0.84890   0.00000  Uiso   1.00
C897   C     0.54393   0.78484   0.81030   0.00000  Uiso   1.00
C898   C     0.97019   0.74029   0.78153   0.00000  Uiso   1.00
C899   C     0.52981   0.92637   0.88514   0.00000  Uiso   1.00
C900   C     0.53574   0.68498   0.76691   0.00000  Uiso   1.00
C901   C     0.96426   0.98168   0.89976   0.00000  Uiso   1.00
C902   C     0.51691   0.73780   0.78561   0.00000  Uiso   1.00
C903   C     0.98309   0.92887   0.88106   0.00000  Uiso   1.00
C904   C     0.74799   0.67728   0.80902   0.00000  Uiso   1.00
C905   C     0.75201   0.98939   0.85765   0.00000  Uiso   1.00
C906   C     0.66456   0.83317   0.83436   0.00000  Uiso   1.00
C907   C     0.83544   0.83350   0.83231   0.00000  Uiso   1.00
C908   C     0.90923   0.88036   0.85721   0.00000  Uiso   1.00
Cu909  Cu    0.75500   0.83913   0.89479   0.00000  Uiso   1.00
Cu910  Cu    0.74499   0.82754   0.77187   0.00000  Uiso   1.00
H911   H     0.89214   0.91438   0.87972   0.00000  Uiso   1.00
H912   H     0.78495   0.87403   0.68370   0.00000  Uiso   1.00
H913   H     0.58183   0.96777   0.78395   0.00000  Uiso   1.00
H914   H     0.91817   0.69890   0.88272   0.00000  Uiso   1.00
H915   H     0.60785   0.75228   0.78694   0.00000  Uiso   1.00
H916   H     0.88269   0.75274   0.78218   0.00000  Uiso   1.00
H917   H     0.61731   0.91392   0.88449   0.00000  Uiso   1.00
H918   H     0.94923   0.70465   0.76230   0.00000  Uiso   1.00
H919   H     0.55077   0.96202   0.90437   0.00000  Uiso   1.00
H920   H     0.74419   0.98676   0.76215   0.00000  Uiso   1.00
H921   H     0.75581   0.67990   0.90451   0.00000  Uiso   1.00
H922   H     0.71505   0.79264   0.98296   0.00000  Uiso   1.00
N923   N     0.73744   0.81881   0.67951   0.00000  Uiso   1.00
N924   N     0.76255   0.84786   0.98716   0.00000  Uiso   1.00
O925   O     0.75325   0.76204   0.87326   0.00000  Uiso   1.00
O926   O     0.57278   0.67175   0.80077   0.00000  Uiso   1.00
O927   O     0.98254   0.68133   0.94314   0.00000  Uiso   1.00
O928   O     0.92722   0.99492   0.86589   0.00000  Uiso   1.00
O929   O     0.74674   0.90462   0.79341   0.00000  Uiso   1.00
O930   O     0.74480   0.75226   0.76945   0.00000  Uiso   1.00
O931   O     0.75520   0.91441   0.89721   0.00000  Uiso   1.00
O932   O     0.68935   0.83821   0.88524   0.00000  Uiso   1.00
O933   O     0.81064   0.82845   0.78143   0.00000  Uiso   1.00
O934   O     0.68090   0.82843   0.78143   0.00000  Uiso   1.00
O935   O     0.81910   0.83824   0.88523   0.00000  Uiso   1.00
O936   O     0.51746   0.98533   0.72352   0.00000  Uiso   1.00
loop_
_geom_bond_atom_site_label_1
_geom_bond_atom_site_label_2
_geom_bond_distance
_geom_bond_site_symmetry_2
_ccdc_geom_bond_type
C1     O41     1.293   .     A
C1     O46     1.285   .     A
C1     C20     1.425   .     S
C2     C4      1.394   .     A
C2     C13     1.402   .     A
C2     H31     1.081   .     S
C3     C24     1.394   .     A
C3     C23     1.441   .     S
C3     C5      1.391   .     A
C4     C22     1.441   .     S
C4     C6      1.391   .     A
C5     H32     1.085   .     S
C5     C7      1.392   .     A
C6     H33     1.085   .     S
C6     C8      1.392   .     A
C7     C14     1.398   .     A
C7     C9      1.413   .     A
C8     C15     1.398   .     A
C8     C10     1.413   .     A
C9     C11     1.422   .     A
C9     C62     1.402   .     S
C10    C13     1.422   .     A
C10    C61     1.402   1_455 S
C11    C19     1.419   .     A
C11    C24     1.402   .     A
C12    O47     1.285   .     A
C12    C21     1.425   .     S
C12    O45     1.293   .     A
C13    C18     1.419   .     A
C14    H34     1.085   .     S
C14    C70     1.400   .     S
C15    H35     1.085   .     S
C15    C71     1.400   1_455 S
C16    O42     1.398   .     S
C16    C18     1.489   .     S
C16    O260    1.223   1_545 S
C17    O44     1.398   .     S
C17    C19     1.489   .     S
C17    O147    1.223   .     S
C18    C66     1.400   1_455 S
C19    C67     1.400   .     S
C20    C229    1.326   1_545 S
C20    H244    1.088   1_545 S
C21    C124    1.326   .     S
C21    H141    1.088   .     S
C22    O50     1.292   .     A
C22    O48     1.294   .     A
C23    O51     1.292   .     A
C23    O49     1.294   .     A
C24    H27     1.081   .     S
Cu25   O51     1.944   .     S
Cu25   O47     1.947   .     S
Cu25   O48     1.960   .     S
Cu25   N40     2.022   .     S
Cu25   O41     1.952   .     S
Cu25   Cu26    2.691   .     S
Cu26   O50     1.944   .     S
Cu26   N39     2.022   .     S
Cu26   O49     1.960   .     S
Cu26   O46     1.947   .     S
Cu26   O45     1.952   .     S
H28    N664    1.029   1_554 S
H29    O146    1.014   .     S
H30    O252    1.014   1_545 S
H36    C124    1.088   .     S
H37    C229    1.088   1_545 S
H38    N351    1.029   .     S
N39    H662    1.029   1_554 S
N39    N664    1.292   1_554 S
N40    N351    1.292   .     S
N40    H340    1.029   .     S
O42    H237    1.014   1_545 S
O43    C225    1.223   1_545 S
O44    H134    1.014   .     S
O52    C120    1.223   .     S
C53    O93     1.293   .     A
C53    O98     1.285   .     A
C53    C72     1.425   .     S
C54    C56     1.394   .     A
C54    C65     1.402   .     A
C54    H83     1.081   .     S
C55    C76     1.394   .     A
C55    C75     1.441   .     S
C55    C57     1.391   .     A
C56    C74     1.441   .     S
C56    C58     1.391   .     A
C57    H84     1.085   .     S
C57    C59     1.392   .     A
C58    H85     1.085   .     S
C58    C60     1.392   .     A
C59    C66     1.398   .     A
C59    C61     1.413   .     A
C60    C67     1.398   .     A
C60    C62     1.413   .     A
C61    C63     1.422   .     A
C61    C10     1.402   1_655 S
C62    C65     1.422   .     A
C63    C71     1.419   .     A
C63    C76     1.402   .     A
C64    O99     1.285   .     A
C64    C73     1.425   .     S
C64    O97     1.293   .     A
C65    C70     1.419   .     A
C66    H86     1.085   .     S
C66    C18     1.400   1_655 S
C67    H87     1.085   .     S
C68    O94     1.398   .     S
C68    C70     1.489   .     S
C68    O312    1.223   1_545 S
C69    O96     1.398   .     S
C69    C71     1.489   .     S
C69    O199    1.223   .     S
C71    C15     1.400   1_655 S
C72    C281    1.326   1_545 S
C72    H296    1.088   1_545 S
C73    C176    1.326   .     S
C73    H193    1.088   .     S
C74    O102    1.292   .     A
C74    O100    1.294   .     A
C75    O103    1.292   .     A
C75    O101    1.294   .     A
C76    H79     1.081   .     S
Cu77   O103    1.944   .     S
Cu77   O99     1.947   .     S
Cu77   O100    1.960   .     S
Cu77   N92     2.022   .     S
Cu77   O93     1.952   .     S
Cu77   Cu78    2.691   .     S
Cu78   O102    1.944   .     S
Cu78   N91     2.022   .     S
Cu78   O101    1.960   .     S
Cu78   O98     1.947   .     S
Cu78   O97     1.952   .     S
H80    N716    1.029   1_554 S
H81    O198    1.014   .     S
H82    O304    1.014   1_545 S
H88    C176    1.088   .     S
H89    C281    1.088   1_545 S
H90    N403    1.029   .     S
N91    H714    1.029   1_554 S
N91    N716    1.292   1_554 S
N92    N403    1.292   .     S
N92    H392    1.029   .     S
O94    H289    1.014   1_545 S
O95    C277    1.223   1_545 S
O96    H186    1.014   .     S
O104   C172    1.223   .     S
C105   O145    1.293   .     A
C105   O150    1.285   .     A
C105   C124    1.425   .     S
C106   C108    1.394   .     A
C106   C117    1.402   .     A
C106   H135    1.081   .     S
C107   C128    1.394   .     A
C107   C127    1.441   .     S
C107   C109    1.391   .     A
C108   C126    1.441   .     S
C108   C110    1.391   .     A
C109   H136    1.085   .     S
C109   C111    1.392   .     A
C110   H137    1.085   .     S
C110   C112    1.392   .     A
C111   C118    1.398   .     A
C111   C113    1.413   .     A
C112   C119    1.398   .     A
C112   C114    1.413   .     A
C113   C115    1.422   .     A
C113   C166    1.402   .     S
C114   C117    1.422   .     A
C114   C165    1.402   1_455 S
C115   C123    1.419   .     A
C115   C128    1.402   .     A
C116   O151    1.285   .     A
C116   C125    1.425   .     S
C116   O149    1.293   .     A
C117   C122    1.419   .     A
C118   H138    1.085   .     S
C118   C174    1.400   .     S
C119   H139    1.085   .     S
C119   C175    1.400   1_455 S
C120   O146    1.398   .     S
C120   C122    1.489   .     S
C121   O148    1.398   .     S
C121   C123    1.489   .     S
C121   O251    1.223   .     S
C122   C170    1.400   1_455 S
C123   C171    1.400   .     S
C125   C228    1.326   .     S
C125   H245    1.088   .     S
C126   O154    1.292   .     A
C126   O152    1.294   .     A
C127   O155    1.292   .     A
C127   O153    1.294   .     A
C128   H131    1.081   .     S
Cu129  O155    1.944   .     S
Cu129  O151    1.947   .     S
Cu129  O152    1.960   .     S
Cu129  N144    2.022   .     S
Cu129  O145    1.952   .     S
Cu129  Cu130   2.691   .     S
Cu130  O154    1.944   .     S
Cu130  N143    2.022   .     S
Cu130  O153    1.960   .     S
Cu130  O150    1.947   .     S
Cu130  O149    1.952   .     S
H132   N768    1.029   1_554 S
H133   O250    1.014   .     S
H140   C228    1.088   .     S
H142   N455    1.029   .     S
N143   H766    1.029   1_554 S
N143   N768    1.292   1_554 S
N144   N455    1.292   .     S
N144   H444    1.029   .     S
O148   H238    1.014   .     S
O156   C224    1.223   .     S
C157   O197    1.293   .     A
C157   O202    1.285   .     A
C157   C176    1.425   .     S
C158   C160    1.394   .     A
C158   C169    1.402   .     A
C158   H187    1.081   .     S
C159   C180    1.394   .     A
C159   C179    1.441   .     S
C159   C161    1.391   .     A
C160   C178    1.441   .     S
C160   C162    1.391   .     A
C161   H188    1.085   .     S
C161   C163    1.392   .     A
C162   H189    1.085   .     S
C162   C164    1.392   .     A
C163   C170    1.398   .     A
C163   C165    1.413   .     A
C164   C171    1.398   .     A
C164   C166    1.413   .     A
C165   C167    1.422   .     A
C165   C114    1.402   1_655 S
C166   C169    1.422   .     A
C167   C175    1.419   .     A
C167   C180    1.402   .     A
C168   O203    1.285   .     A
C168   C177    1.425   .     S
C168   O201    1.293   .     A
C169   C174    1.419   .     A
C170   H190    1.085   .     S
C170   C122    1.400   1_655 S
C171   H191    1.085   .     S
C172   O198    1.398   .     S
C172   C174    1.489   .     S
C173   O200    1.398   .     S
C173   C175    1.489   .     S
C173   O303    1.223   .     S
C175   C119    1.400   1_655 S
C177   C280    1.326   .     S
C177   H297    1.088   .     S
C178   O206    1.292   .     A
C178   O204    1.294   .     A
C179   O207    1.292   .     A
C179   O205    1.294   .     A
C180   H183    1.081   .     S
Cu181  O207    1.944   .     S
Cu181  O203    1.947   .     S
Cu181  O204    1.960   .     S
Cu181  N196    2.022   .     S
Cu181  O197    1.952   .     S
Cu181  Cu182   2.691   .     S
Cu182  O206    1.944   .     S
Cu182  N195    2.022   .     S
Cu182  O205    1.960   .     S
Cu182  O202    1.947   .     S
Cu182  O201    1.952   .     S
H184   N820    1.029   1_554 S
H185   O302    1.014   .     S
H192   C280    1.088   .     S
H194   N507    1.029   .     S
N195   H818    1.029   1_554 S
N195   N820    1.292   1_554 S
N196   N507    1.292   .     S
N196   H496    1.029   .     S
O200   H290    1.014   .     S
O208   C276    1.223   .     S
C209   O249    1.293   .     A
C209   O254    1.285   .     A
C209   C228    1.425   .     S
C210   C212    1.394   .     A
C210   C221    1.402   .     A
C210   H239    1.081   .     S
C211   C232    1.394   .     A
C211   C231    1.441   .     S
C211   C213    1.391   .     A
C212   C230    1.441   .     S
C212   C214    1.391   .     A
C213   H240    1.085   .     S
C213   C215    1.392   .     A
C214   H241    1.085   .     S
C214   C216    1.392   .     A
C215   C222    1.398   .     A
C215   C217    1.413   .     A
C216   C223    1.398   .     A
C216   C218    1.413   .     A
C217   C219    1.422   .     A
C217   C270    1.402   .     S
C218   C221    1.422   .     A
C218   C269    1.402   1_455 S
C219   C227    1.419   .     A
C219   C232    1.402   .     A
C220   O255    1.285   .     A
C220   C229    1.425   .     S
C220   O253    1.293   .     A
C221   C226    1.419   .     A
C222   H242    1.085   .     S
C222   C278    1.400   .     S
C223   H243    1.085   .     S
C223   C279    1.400   1_455 S
C224   O250    1.398   .     S
C224   C226    1.489   .     S
C225   O252    1.398   .     S
C225   C227    1.489   .     S
C225   O43     1.223   1_565 S
C226   C274    1.400   1_455 S
C227   C275    1.400   .     S
C229   C20     1.326   1_565 S
C229   H37     1.088   1_565 S
C230   O258    1.292   .     A
C230   O256    1.294   .     A
C231   O259    1.292   .     A
C231   O257    1.294   .     A
C232   H235    1.081   .     S
Cu233  O259    1.944   .     S
Cu233  O255    1.947   .     S
Cu233  O256    1.960   .     S
Cu233  N248    2.022   .     S
Cu233  O249    1.952   .     S
Cu233  Cu234   2.691   .     S
Cu234  O258    1.944   .     S
Cu234  N247    2.022   .     S
Cu234  O257    1.960   .     S
Cu234  O254    1.947   .     S
Cu234  O253    1.952   .     S
H236   N872    1.029   1_554 S
H237   O42     1.014   1_565 S
H244   C20     1.088   1_565 S
H246   N559    1.029   .     S
N247   H870    1.029   1_554 S
N247   N872    1.292   1_554 S
N248   N559    1.292   .     S
N248   H548    1.029   .     S
O252   H30     1.014   1_565 S
O260   C16     1.223   1_565 S
C261   O301    1.293   .     A
C261   O306    1.285   .     A
C261   C280    1.425   .     S
C262   C264    1.394   .     A
C262   C273    1.402   .     A
C262   H291    1.081   .     S
C263   C284    1.394   .     A
C263   C283    1.441   .     S
C263   C265    1.391   .     A
C264   C282    1.441   .     S
C264   C266    1.391   .     A
C265   H292    1.085   .     S
C265   C267    1.392   .     A
C266   H293    1.085   .     S
C266   C268    1.392   .     A
C267   C274    1.398   .     A
C267   C269    1.413   .     A
C268   C275    1.398   .     A
C268   C270    1.413   .     A
C269   C271    1.422   .     A
C269   C218    1.402   1_655 S
C270   C273    1.422   .     A
C271   C279    1.419   .     A
C271   C284    1.402   .     A
C272   O307    1.285   .     A
C272   C281    1.425   .     S
C272   O305    1.293   .     A
C273   C278    1.419   .     A
C274   H294    1.085   .     S
C274   C226    1.400   1_655 S
C275   H295    1.085   .     S
C276   O302    1.398   .     S
C276   C278    1.489   .     S
C277   O304    1.398   .     S
C277   C279    1.489   .     S
C277   O95     1.223   1_565 S
C279   C223    1.400   1_655 S
C281   C72     1.326   1_565 S
C281   H89     1.088   1_565 S
C282   O310    1.292   .     A
C282   O308    1.294   .     A
C283   O311    1.292   .     A
C283   O309    1.294   .     A
C284   H287    1.081   .     S
Cu285  O311    1.944   .     S
Cu285  O307    1.947   .     S
Cu285  O308    1.960   .     S
Cu285  N300    2.022   .     S
Cu285  O301    1.952   .     S
Cu285  Cu286   2.691   .     S
Cu286  O310    1.944   .     S
Cu286  N299    2.022   .     S
Cu286  O309    1.960   .     S
Cu286  O306    1.947   .     S
Cu286  O305    1.952   .     S
H288   N924    1.029   1_554 S
H289   O94     1.014   1_565 S
H296   C72     1.088   1_565 S
H298   N611    1.029   .     S
N299   H922    1.029   1_554 S
N299   N924    1.292   1_554 S
N300   N611    1.292   .     S
N300   H600    1.029   .     S
O304   H82     1.014   1_565 S
O312   C68     1.223   1_565 S
C313   O353    1.293   .     A
C313   O358    1.285   .     A
C313   C332    1.425   .     S
C314   C316    1.394   .     A
C314   C325    1.402   .     A
C314   H343    1.081   .     S
C315   C336    1.394   .     A
C315   C335    1.441   .     S
C315   C317    1.391   .     A
C316   C334    1.441   .     S
C316   C318    1.391   .     A
C317   H344    1.085   .     S
C317   C319    1.392   .     A
C318   H345    1.085   .     S
C318   C320    1.392   .     A
C319   C326    1.398   .     A
C319   C321    1.413   .     A
C320   C327    1.398   .     A
C320   C322    1.413   .     A
C321   C323    1.422   .     A
C321   C374    1.402   .     S
C322   C325    1.422   .     A
C322   C373    1.402   1_455 S
C323   C331    1.419   .     A
C323   C336    1.402   .     A
C324   O359    1.285   .     A
C324   C333    1.425   .     S
C324   O357    1.293   .     A
C325   C330    1.419   .     A
C326   H346    1.085   .     S
C326   C382    1.400   .     S
C327   H347    1.085   .     S
C327   C383    1.400   1_455 S
C328   O354    1.398   .     S
C328   C330    1.489   .     S
C328   O572    1.223   1_545 S
C329   O356    1.398   .     S
C329   C331    1.489   .     S
C329   O459    1.223   .     S
C330   C378    1.400   1_455 S
C331   C379    1.400   .     S
C332   C541    1.326   1_545 S
C332   H556    1.088   1_545 S
C333   C436    1.326   .     S
C333   H453    1.088   .     S
C334   O362    1.292   .     A
C334   O360    1.294   .     A
C335   O363    1.292   .     A
C335   O361    1.294   .     A
C336   H339    1.081   .     S
Cu337  O363    1.944   .     S
Cu337  O359    1.947   .     S
Cu337  O360    1.960   .     S
Cu337  N352    2.022   .     S
Cu337  O353    1.952   .     S
Cu337  Cu338   2.691   .     S
Cu338  O362    1.944   .     S
Cu338  N351    2.022   .     S
Cu338  O361    1.960   .     S
Cu338  O358    1.947   .     S
Cu338  O357    1.952   .     S
H341   O458    1.014   .     S
H342   O564    1.014   1_545 S
H348   C436    1.088   .     S
H349   C541    1.088   1_545 S
H350   N663    1.029   .     S
N352   N663    1.292   .     S
N352   H652    1.029   .     S
O354   H549    1.014   1_545 S
O355   C537    1.223   1_545 S
O356   H446    1.014   .     S
O364   C432    1.223   .     S
C365   O405    1.293   .     A
C365   O410    1.285   .     A
C365   C384    1.425   .     S
C366   C368    1.394   .     A
C366   C377    1.402   .     A
C366   H395    1.081   .     S
C367   C388    1.394   .     A
C367   C387    1.441   .     S
C367   C369    1.391   .     A
C368   C386    1.441   .     S
C368   C370    1.391   .     A
C369   H396    1.085   .     S
C369   C371    1.392   .     A
C370   H397    1.085   .     S
C370   C372    1.392   .     A
C371   C378    1.398   .     A
C371   C373    1.413   .     A
C372   C379    1.398   .     A
C372   C374    1.413   .     A
C373   C375    1.422   .     A
C373   C322    1.402   1_655 S
C374   C377    1.422   .     A
C375   C383    1.419   .     A
C375   C388    1.402   .     A
C376   O411    1.285   .     A
C376   C385    1.425   .     S
C376   O409    1.293   .     A
C377   C382    1.419   .     A
C378   H398    1.085   .     S
C378   C330    1.400   1_655 S
C379   H399    1.085   .     S
C380   O406    1.398   .     S
C380   C382    1.489   .     S
C380   O624    1.223   1_545 S
C381   O408    1.398   .     S
C381   C383    1.489   .     S
C381   O511    1.223   .     S
C383   C327    1.400   1_655 S
C384   C593    1.326   1_545 S
C384   H608    1.088   1_545 S
C385   C488    1.326   .     S
C385   H505    1.088   .     S
C386   O414    1.292   .     A
C386   O412    1.294   .     A
C387   O415    1.292   .     A
C387   O413    1.294   .     A
C388   H391    1.081   .     S
Cu389  O415    1.944   .     S
Cu389  O411    1.947   .     S
Cu389  O412    1.960   .     S
Cu389  N404    2.022   .     S
Cu389  O405    1.952   .     S
Cu389  Cu390   2.691   .     S
Cu390  O414    1.944   .     S
Cu390  N403    2.022   .     S
Cu390  O413    1.960   .     S
Cu390  O410    1.947   .     S
Cu390  O409    1.952   .     S
H393   O510    1.014   .     S
H394   O616    1.014   1_545 S
H400   C488    1.088   .     S
H401   C593    1.088   1_545 S
H402   N715    1.029   .     S
N404   N715    1.292   .     S
N404   H704    1.029   .     S
O406   H601    1.014   1_545 S
O407   C589    1.223   1_545 S
O408   H498    1.014   .     S
O416   C484    1.223   .     S
C417   O457    1.293   .     A
C417   O462    1.285   .     A
C417   C436    1.425   .     S
C418   C420    1.394   .     A
C418   C429    1.402   .     A
C418   H447    1.081   .     S
C419   C440    1.394   .     A
C419   C439    1.441   .     S
C419   C421    1.391   .     A
C420   C438    1.441   .     S
C420   C422    1.391   .     A
C421   H448    1.085   .     S
C421   C423    1.392   .     A
C422   H449    1.085   .     S
C422   C424    1.392   .     A
C423   C430    1.398   .     A
C423   C425    1.413   .     A
C424   C431    1.398   .     A
C424   C426    1.413   .     A
C425   C427    1.422   .     A
C425   C478    1.402   .     S
C426   C429    1.422   .     A
C426   C477    1.402   1_455 S
C427   C435    1.419   .     A
C427   C440    1.402   .     A
C428   O463    1.285   .     A
C428   C437    1.425   .     S
C428   O461    1.293   .     A
C429   C434    1.419   .     A
C430   H450    1.085   .     S
C430   C486    1.400   .     S
C431   H451    1.085   .     S
C431   C487    1.400   1_455 S
C432   O458    1.398   .     S
C432   C434    1.489   .     S
C433   O460    1.398   .     S
C433   C435    1.489   .     S
C433   O563    1.223   .     S
C434   C482    1.400   1_455 S
C435   C483    1.400   .     S
C437   C540    1.326   .     S
C437   H557    1.088   .     S
C438   O466    1.292   .     A
C438   O464    1.294   .     A
C439   O467    1.292   .     A
C439   O465    1.294   .     A
C440   H443    1.081   .     S
Cu441  O467    1.944   .     S
Cu441  O463    1.947   .     S
Cu441  O464    1.960   .     S
Cu441  N456    2.022   .     S
Cu441  O457    1.952   .     S
Cu441  Cu442   2.691   .     S
Cu442  O466    1.944   .     S
Cu442  N455    2.022   .     S
Cu442  O465    1.960   .     S
Cu442  O462    1.947   .     S
Cu442  O461    1.952   .     S
H445   O562    1.014   .     S
H452   C540    1.088   .     S
H454   N767    1.029   .     S
N456   N767    1.292   .     S
N456   H756    1.029   .     S
O460   H550    1.014   .     S
O468   C536    1.223   .     S
C469   O509    1.293   .     A
C469   O514    1.285   .     A
C469   C488    1.425   .     S
C470   C472    1.394   .     A
C470   C481    1.402   .     A
C470   H499    1.081   .     S
C471   C492    1.394   .     A
C471   C491    1.441   .     S
C471   C473    1.391   .     A
C472   C490    1.441   .     S
C472   C474    1.391   .     A
C473   H500    1.085   .     S
C473   C475    1.392   .     A
C474   H501    1.085   .     S
C474   C476    1.392   .     A
C475   C482    1.398   .     A
C475   C477    1.413   .     A
C476   C483    1.398   .     A
C476   C478    1.413   .     A
C477   C479    1.422   .     A
C477   C426    1.402   1_655 S
C478   C481    1.422   .     A
C479   C487    1.419   .     A
C479   C492    1.402   .     A
C480   O515    1.285   .     A
C480   C489    1.425   .     S
C480   O513    1.293   .     A
C481   C486    1.419   .     A
C482   H502    1.085   .     S
C482   C434    1.400   1_655 S
C483   H503    1.085   .     S
C484   O510    1.398   .     S
C484   C486    1.489   .     S
C485   O512    1.398   .     S
C485   C487    1.489   .     S
C485   O615    1.223   .     S
C487   C431    1.400   1_655 S
C489   C592    1.326   .     S
C489   H609    1.088   .     S
C490   O518    1.292   .     A
C490   O516    1.294   .     A
C491   O519    1.292   .     A
C491   O517    1.294   .     A
C492   H495    1.081   .     S
Cu493  O519    1.944   .     S
Cu493  O515    1.947   .     S
Cu493  O516    1.960   .     S
Cu493  N508    2.022   .     S
Cu493  O509    1.952   .     S
Cu493  Cu494   2.691   .     S
Cu494  O518    1.944   .     S
Cu494  N507    2.022   .     S
Cu494  O517    1.960   .     S
Cu494  O514    1.947   .     S
Cu494  O513    1.952   .     S
H497   O614    1.014   .     S
H504   C592    1.088   .     S
H506   N819    1.029   .     S
N508   N819    1.292   .     S
N508   H808    1.029   .     S
O512   H602    1.014   .     S
O520   C588    1.223   .     S
C521   O561    1.293   .     A
C521   O566    1.285   .     A
C521   C540    1.425   .     S
C522   C524    1.394   .     A
C522   C533    1.402   .     A
C522   H551    1.081   .     S
C523   C544    1.394   .     A
C523   C543    1.441   .     S
C523   C525    1.391   .     A
C524   C542    1.441   .     S
C524   C526    1.391   .     A
C525   H552    1.085   .     S
C525   C527    1.392   .     A
C526   H553    1.085   .     S
C526   C528    1.392   .     A
C527   C534    1.398   .     A
C527   C529    1.413   .     A
C528   C535    1.398   .     A
C528   C530    1.413   .     A
C529   C531    1.422   .     A
C529   C582    1.402   .     S
C530   C533    1.422   .     A
C530   C581    1.402   1_455 S
C531   C539    1.419   .     A
C531   C544    1.402   .     A
C532   O567    1.285   .     A
C532   C541    1.425   .     S
C532   O565    1.293   .     A
C533   C538    1.419   .     A
C534   H554    1.085   .     S
C534   C590    1.400   .     S
C535   H555    1.085   .     S
C535   C591    1.400   1_455 S
C536   O562    1.398   .     S
C536   C538    1.489   .     S
C537   O564    1.398   .     S
C537   C539    1.489   .     S
C537   O355    1.223   1_565 S
C538   C586    1.400   1_455 S
C539   C587    1.400   .     S
C541   C332    1.326   1_565 S
C541   H349    1.088   1_565 S
C542   O570    1.292   .     A
C542   O568    1.294   .     A
C543   O571    1.292   .     A
C543   O569    1.294   .     A
C544   H547    1.081   .     S
Cu545  O571    1.944   .     S
Cu545  O567    1.947   .     S
Cu545  O568    1.960   .     S
Cu545  N560    2.022   .     S
Cu545  O561    1.952   .     S
Cu545  Cu546   2.691   .     S
Cu546  O570    1.944   .     S
Cu546  N559    2.022   .     S
Cu546  O569    1.960   .     S
Cu546  O566    1.947   .     S
Cu546  O565    1.952   .     S
H549   O354    1.014   1_565 S
H556   C332    1.088   1_565 S
H558   N871    1.029   .     S
N560   N871    1.292   .     S
N560   H860    1.029   .     S
O564   H342    1.014   1_565 S
O572   C328    1.223   1_565 S
C573   O613    1.293   .     A
C573   O618    1.285   .     A
C573   C592    1.425   .     S
C574   C576    1.394   .     A
C574   C585    1.402   .     A
C574   H603    1.081   .     S
C575   C596    1.394   .     A
C575   C595    1.441   .     S
C575   C577    1.391   .     A
C576   C594    1.441   .     S
C576   C578    1.391   .     A
C577   H604    1.085   .     S
C577   C579    1.392   .     A
C578   H605    1.085   .     S
C578   C580    1.392   .     A
C579   C586    1.398   .     A
C579   C581    1.413   .     A
C580   C587    1.398   .     A
C580   C582    1.413   .     A
C581   C583    1.422   .     A
C581   C530    1.402   1_655 S
C582   C585    1.422   .     A
C583   C591    1.419   .     A
C583   C596    1.402   .     A
C584   O619    1.285   .     A
C584   C593    1.425   .     S
C584   O617    1.293   .     A
C585   C590    1.419   .     A
C586   H606    1.085   .     S
C586   C538    1.400   1_655 S
C587   H607    1.085   .     S
C588   O614    1.398   .     S
C588   C590    1.489   .     S
C589   O616    1.398   .     S
C589   C591    1.489   .     S
C589   O407    1.223   1_565 S
C591   C535    1.400   1_655 S
C593   C384    1.326   1_565 S
C593   H401    1.088   1_565 S
C594   O622    1.292   .     A
C594   O620    1.294   .     A
C595   O623    1.292   .     A
C595   O621    1.294   .     A
C596   H599    1.081   .     S
Cu597  O623    1.944   .     S
Cu597  O619    1.947   .     S
Cu597  O620    1.960   .     S
Cu597  N612    2.022   .     S
Cu597  O613    1.952   .     S
Cu597  Cu598   2.691   .     S
Cu598  O622    1.944   .     S
Cu598  N611    2.022   .     S
Cu598  O621    1.960   .     S
Cu598  O618    1.947   .     S
Cu598  O617    1.952   .     S
H601   O406    1.014   1_565 S
H608   C384    1.088   1_565 S
H610   N923    1.029   .     S
N612   N923    1.292   .     S
N612   H912    1.029   .     S
O616   H394    1.014   1_565 S
O624   C380    1.223   1_565 S
C625   O665    1.293   .     A
C625   O670    1.285   .     A
C625   C644    1.425   .     S
C626   C628    1.394   .     A
C626   C637    1.402   .     A
C626   H655    1.081   .     S
C627   C648    1.394   .     A
C627   C647    1.441   .     S
C627   C629    1.391   .     A
C628   C646    1.441   .     S
C628   C630    1.391   .     A
C629   H656    1.085   .     S
C629   C631    1.392   .     A
C630   H657    1.085   .     S
C630   C632    1.392   .     A
C631   C638    1.398   .     A
C631   C633    1.413   .     A
C632   C639    1.398   .     A
C632   C634    1.413   .     A
C633   C635    1.422   .     A
C633   C686    1.402   .     S
C634   C637    1.422   .     A
C634   C685    1.402   1_455 S
C635   C643    1.419   .     A
C635   C648    1.402   .     A
C636   O671    1.285   .     A
C636   C645    1.425   .     S
C636   O669    1.293   .     A
C637   C642    1.419   .     A
C638   H658    1.085   .     S
C638   C694    1.400   .     S
C639   H659    1.085   .     S
C639   C695    1.400   1_455 S
C640   O666    1.398   .     S
C640   C642    1.489   .     S
C640   O884    1.223   1_545 S
C641   O668    1.398   .     S
C641   C643    1.489   .     S
C641   O771    1.223   .     S
C642   C690    1.400   1_455 S
C643   C691    1.400   .     S
C644   C853    1.326   1_545 S
C644   H868    1.088   1_545 S
C645   C748    1.326   .     S
C645   H765    1.088   .     S
C646   O674    1.292   .     A
C646   O672    1.294   .     A
C647   O675    1.292   .     A
C647   O673    1.294   .     A
C648   H651    1.081   .     S
Cu649  O675    1.944   .     S
Cu649  O671    1.947   .     S
Cu649  O672    1.960   .     S
Cu649  N664    2.022   .     S
Cu649  O665    1.952   .     S
Cu649  Cu650   2.691   .     S
Cu650  O674    1.944   .     S
Cu650  N663    2.022   .     S
Cu650  O673    1.960   .     S
Cu650  O670    1.947   .     S
Cu650  O669    1.952   .     S
H653   O770    1.014   .     S
H654   O876    1.014   1_545 S
H660   C748    1.088   .     S
H661   C853    1.088   1_545 S
H662   N39     1.029   1_556 S
N664   N39     1.292   1_556 S
N664   H28     1.029   1_556 S
O666   H861    1.014   1_545 S
O667   C849    1.223   1_545 S
O668   H758    1.014   .     S
O676   C744    1.223   .     S
C677   O717    1.293   .     A
C677   O722    1.285   .     A
C677   C696    1.425   .     S
C678   C680    1.394   .     A
C678   C689    1.402   .     A
C678   H707    1.081   .     S
C679   C700    1.394   .     A
C679   C699    1.441   .     S
C679   C681    1.391   .     A
C680   C698    1.441   .     S
C680   C682    1.391   .     A
C681   H708    1.085   .     S
C681   C683    1.392   .     A
C682   H709    1.085   .     S
C682   C684    1.392   .     A
C683   C690    1.398   .     A
C683   C685    1.413   .     A
C684   C691    1.398   .     A
C684   C686    1.413   .     A
C685   C687    1.422   .     A
C685   C634    1.402   1_655 S
C686   C689    1.422   .     A
C687   C695    1.419   .     A
C687   C700    1.402   .     A
C688   O723    1.285   .     A
C688   C697    1.425   .     S
C688   O721    1.293   .     A
C689   C694    1.419   .     A
C690   H710    1.085   .     S
C690   C642    1.400   1_655 S
C691   H711    1.085   .     S
C692   O718    1.398   .     S
C692   C694    1.489   .     S
C692   O936    1.223   1_545 S
C693   O720    1.398   .     S
C693   C695    1.489   .     S
C693   O823    1.223   .     S
C695   C639    1.400   1_655 S
C696   C905    1.326   1_545 S
C696   H920    1.088   1_545 S
C697   C800    1.326   .     S
C697   H817    1.088   .     S
C698   O726    1.292   .     A
C698   O724    1.294   .     A
C699   O727    1.292   .     A
C699   O725    1.294   .     A
C700   H703    1.081   .     S
Cu701  O727    1.944   .     S
Cu701  O723    1.947   .     S
Cu701  O724    1.960   .     S
Cu701  N716    2.022   .     S
Cu701  O717    1.952   .     S
Cu701  Cu702   2.691   .     S
Cu702  O726    1.944   .     S
Cu702  N715    2.022   .     S
Cu702  O725    1.960   .     S
Cu702  O722    1.947   .     S
Cu702  O721    1.952   .     S
H705   O822    1.014   .     S
H706   O928    1.014   1_545 S
H712   C800    1.088   .     S
H713   C905    1.088   1_545 S
H714   N91     1.029   1_556 S
N716   N91     1.292   1_556 S
N716   H80     1.029   1_556 S
O718   H913    1.014   1_545 S
O719   C901    1.223   1_545 S
O720   H810    1.014   .     S
O728   C796    1.223   .     S
C729   O769    1.293   .     A
C729   O774    1.285   .     A
C729   C748    1.425   .     S
C730   C732    1.394   .     A
C730   C741    1.402   .     A
C730   H759    1.081   .     S
C731   C752    1.394   .     A
C731   C751    1.441   .     S
C731   C733    1.391   .     A
C732   C750    1.441   .     S
C732   C734    1.391   .     A
C733   H760    1.085   .     S
C733   C735    1.392   .     A
C734   H761    1.085   .     S
C734   C736    1.392   .     A
C735   C742    1.398   .     A
C735   C737    1.413   .     A
C736   C743    1.398   .     A
C736   C738    1.413   .     A
C737   C739    1.422   .     A
C737   C790    1.402   .     S
C738   C741    1.422   .     A
C738   C789    1.402   1_455 S
C739   C747    1.419   .     A
C739   C752    1.402   .     A
C740   O775    1.285   .     A
C740   C749    1.425   .     S
C740   O773    1.293   .     A
C741   C746    1.419   .     A
C742   H762    1.085   .     S
C742   C798    1.400   .     S
C743   H763    1.085   .     S
C743   C799    1.400   1_455 S
C744   O770    1.398   .     S
C744   C746    1.489   .     S
C745   O772    1.398   .     S
C745   C747    1.489   .     S
C745   O875    1.223   .     S
C746   C794    1.400   1_455 S
C747   C795    1.400   .     S
C749   C852    1.326   .     S
C749   H869    1.088   .     S
C750   O778    1.292   .     A
C750   O776    1.294   .     A
C751   O779    1.292   .     A
C751   O777    1.294   .     A
C752   H755    1.081   .     S
Cu753  O779    1.944   .     S
Cu753  O775    1.947   .     S
Cu753  O776    1.960   .     S
Cu753  N768    2.022   .     S
Cu753  O769    1.952   .     S
Cu753  Cu754   2.691   .     S
Cu754  O778    1.944   .     S
Cu754  N767    2.022   .     S
Cu754  O777    1.960   .     S
Cu754  O774    1.947   .     S
Cu754  O773    1.952   .     S
H757   O874    1.014   .     S
H764   C852    1.088   .     S
H766   N143    1.029   1_556 S
N768   N143    1.292   1_556 S
N768   H132    1.029   1_556 S
O772   H862    1.014   .     S
O780   C848    1.223   .     S
C781   O821    1.293   .     A
C781   O826    1.285   .     A
C781   C800    1.425   .     S
C782   C784    1.394   .     A
C782   C793    1.402   .     A
C782   H811    1.081   .     S
C783   C804    1.394   .     A
C783   C803    1.441   .     S
C783   C785    1.391   .     A
C784   C802    1.441   .     S
C784   C786    1.391   .     A
C785   H812    1.085   .     S
C785   C787    1.392   .     A
C786   H813    1.085   .     S
C786   C788    1.392   .     A
C787   C794    1.398   .     A
C787   C789    1.413   .     A
C788   C795    1.398   .     A
C788   C790    1.413   .     A
C789   C791    1.422   .     A
C789   C738    1.402   1_655 S
C790   C793    1.422   .     A
C791   C799    1.419   .     A
C791   C804    1.402   .     A
C792   O827    1.285   .     A
C792   C801    1.425   .     S
C792   O825    1.293   .     A
C793   C798    1.419   .     A
C794   H814    1.085   .     S
C794   C746    1.400   1_655 S
C795   H815    1.085   .     S
C796   O822    1.398   .     S
C796   C798    1.489   .     S
C797   O824    1.398   .     S
C797   C799    1.489   .     S
C797   O927    1.223   .     S
C799   C743    1.400   1_655 S
C801   C904    1.326   .     S
C801   H921    1.088   .     S
C802   O830    1.292   .     A
C802   O828    1.294   .     A
C803   O831    1.292   .     A
C803   O829    1.294   .     A
C804   H807    1.081   .     S
Cu805  O831    1.944   .     S
Cu805  O827    1.947   .     S
Cu805  O828    1.960   .     S
Cu805  N820    2.022   .     S
Cu805  O821    1.952   .     S
Cu805  Cu806   2.691   .     S
Cu806  O830    1.944   .     S
Cu806  N819    2.022   .     S
Cu806  O829    1.960   .     S
Cu806  O826    1.947   .     S
Cu806  O825    1.952   .     S
H809   O926    1.014   .     S
H816   C904    1.088   .     S
H818   N195    1.029   1_556 S
N820   N195    1.292   1_556 S
N820   H184    1.029   1_556 S
O824   H914    1.014   .     S
O832   C900    1.223   .     S
C833   O873    1.293   .     A
C833   O878    1.285   .     A
C833   C852    1.425   .     S
C834   C836    1.394   .     A
C834   C845    1.402   .     A
C834   H863    1.081   .     S
C835   C856    1.394   .     A
C835   C855    1.441   .     S
C835   C837    1.391   .     A
C836   C854    1.441   .     S
C836   C838    1.391   .     A
C837   H864    1.085   .     S
C837   C839    1.392   .     A
C838   H865    1.085   .     S
C838   C840    1.392   .     A
C839   C846    1.398   .     A
C839   C841    1.413   .     A
C840   C847    1.398   .     A
C840   C842    1.413   .     A
C841   C843    1.422   .     A
C841   C894    1.402   .     S
C842   C845    1.422   .     A
C842   C893    1.402   1_455 S
C843   C851    1.419   .     A
C843   C856    1.402   .     A
C844   O879    1.285   .     A
C844   C853    1.425   .     S
C844   O877    1.293   .     A
C845   C850    1.419   .     A
C846   H866    1.085   .     S
C846   C902    1.400   .     S
C847   H867    1.085   .     S
C847   C903    1.400   1_455 S
C848   O874    1.398   .     S
C848   C850    1.489   .     S
C849   O876    1.398   .     S
C849   C851    1.489   .     S
C849   O667    1.223   1_565 S
C850   C898    1.400   1_455 S
C851   C899    1.400   .     S
C853   C644    1.326   1_565 S
C853   H661    1.088   1_565 S
C854   O882    1.292   .     A
C854   O880    1.294   .     A
C855   O883    1.292   .     A
C855   O881    1.294   .     A
C856   H859    1.081   .     S
Cu857  O883    1.944   .     S
Cu857  O879    1.947   .     S
Cu857  O880    1.960   .     S
Cu857  N872    2.022   .     S
Cu857  O873    1.952   .     S
Cu857  Cu858   2.691   .     S
Cu858  O882    1.944   .     S
Cu858  N871    2.022   .     S
Cu858  O881    1.960   .     S
Cu858  O878    1.947   .     S
Cu858  O877    1.952   .     S
H861   O666    1.014   1_565 S
H868   C644    1.088   1_565 S
H870   N247    1.029   1_556 S
N872   N247    1.292   1_556 S
N872   H236    1.029   1_556 S
O876   H654    1.014   1_565 S
O884   C640    1.223   1_565 S
C885   O925    1.293   .     A
C885   O930    1.285   .     A
C885   C904    1.425   .     S
C886   C888    1.394   .     A
C886   C897    1.402   .     A
C886   H915    1.081   .     S
C887   C908    1.394   .     A
C887   C907    1.441   .     S
C887   C889    1.391   .     A
C888   C906    1.441   .     S
C888   C890    1.391   .     A
C889   H916    1.085   .     S
C889   C891    1.392   .     A
C890   H917    1.085   .     S
C890   C892    1.392   .     A
C891   C898    1.398   .     A
C891   C893    1.413   .     A
C892   C899    1.398   .     A
C892   C894    1.413   .     A
C893   C895    1.422   .     A
C893   C842    1.402   1_655 S
C894   C897    1.422   .     A
C895   C903    1.419   .     A
C895   C908    1.402   .     A
C896   O931    1.285   .     A
C896   C905    1.425   .     S
C896   O929    1.293   .     A
C897   C902    1.419   .     A
C898   H918    1.085   .     S
C898   C850    1.400   1_655 S
C899   H919    1.085   .     S
C900   O926    1.398   .     S
C900   C902    1.489   .     S
C901   O928    1.398   .     S
C901   C903    1.489   .     S
C901   O719    1.223   1_565 S
C903   C847    1.400   1_655 S
C905   C696    1.326   1_565 S
C905   H713    1.088   1_565 S
C906   O934    1.292   .     A
C906   O932    1.294   .     A
C907   O935    1.292   .     A
C907   O933    1.294   .     A
C908   H911    1.081   .     S
Cu909  O935    1.944   .     S
Cu909  O931    1.947   .     S
Cu909  O932    1.960   .     S
Cu909  N924    2.022   .     S
Cu909  O925    1.952   .     S
Cu909  Cu910   2.691   .     S
Cu910  O934    1.944   .     S
Cu910  N923    2.022   .     S
Cu910  O933    1.960   .     S
Cu910  O930    1.947   .     S
Cu910  O929    1.952   .     S
H913   O718    1.014   1_565 S
H920   C696    1.088   1_565 S
H922   N299    1.029   1_556 S
N924   N299    1.292   1_556 S
N924   H288    1.029   1_556 S
O928   H706    1.014   1_565 S
O936   C692    1.223   1_565 S
