data_str_m2_o10_o16_pcu_sym.29
_audit_creation_date              2020-01-03
_audit_creation_method            'Materials Studio'
_symmetry_space_group_name_H-M    'P1'
_symmetry_Int_Tables_number       1
_symmetry_cell_setting            triclinic
loop_
_symmetry_equiv_pos_as_xyz
  x,y,z
_cell_length_a                    22.2894
_cell_length_b                    26.1738
_cell_length_c                    26.6720
_cell_angle_alpha                 94.0025
_cell_angle_beta                  77.3692
_cell_angle_gamma                 103.0279
loop_
_atom_site_label
_atom_site_type_symbol
_atom_site_fract_x
_atom_site_fract_y
_atom_site_fract_z
_atom_site_U_iso_or_equiv
_atom_site_adp_type
_atom_site_occupancy
C1     C     0.18185   0.26665   0.25039   0.00000  Uiso   1.00
C2     C     0.11176   0.16510   0.40384   0.00000  Uiso   1.00
C3     C     0.18857   0.32235   0.25190   0.00000  Uiso   1.00
C4     C     0.13306   0.16568   0.34739   0.00000  Uiso   1.00
C5     C     0.14618   0.01148   0.23849   0.00000  Uiso   1.00
C6     C     0.15247   0.06683   0.24619   0.00000  Uiso   1.00
C7     C     0.20062   0.17086   0.15288   0.00000  Uiso   1.00
C8     C     0.28746   0.23760   0.02986   0.00000  Uiso   1.00
C9     C     0.22108   0.18219   0.09810   0.00000  Uiso   1.00
C10    C     0.05041   0.13844   0.42467   0.00000  Uiso   1.00
C11    C     0.03012   0.13282   0.47733   0.00000  Uiso   1.00
C12    C     0.13610   0.17370   0.48994   0.00000  Uiso   1.00
C13    C     0.07147   0.14998   0.01049   0.00000  Uiso   1.00
C14    C     0.15307   0.18710   0.43715   0.00000  Uiso   1.00
C15    C     0.18422   0.18636   0.01925   0.00000  Uiso   1.00
C16    C     0.24185   0.22172   0.49969   0.00000  Uiso   1.00
C17    C     0.25312   0.24111   0.45048   0.00000  Uiso   1.00
C18    C     0.20995   0.22351   0.41936   0.00000  Uiso   1.00
C19    C     0.17829   0.16332   0.06643   0.00000  Uiso   1.00
C20    C     0.27611   0.21922   0.07959   0.00000  Uiso   1.00
Cl21   Cl    0.08389   0.31187   0.20826   0.00000  Uiso   1.00
Cu22   Cu    0.10710   0.16105   0.24436   0.00000  Uiso   1.00
Cu23   Cu    0.22623   0.17228   0.25565   0.00000  Uiso   1.00
H24    H     0.30931   0.23491   0.10392   0.00000  Uiso   1.00
H25    H     0.22806   0.01218   0.26696   0.00000  Uiso   1.00
H26    H     0.04108   0.11431   0.08001   0.00000  Uiso   1.00
H27    H     0.06596   0.18208   0.08384   0.00000  Uiso   1.00
H28    H     0.00362   0.20590   0.28970   0.00000  Uiso   1.00
H29    H     0.32972   0.12746   0.21027   0.00000  Uiso   1.00
H30    H     0.29622   0.26911   0.43547   0.00000  Uiso   1.00
H31    H     0.33092   0.26547   0.01557   0.00000  Uiso   1.00
H32    H     0.14016   0.13086   0.07987   0.00000  Uiso   1.00
H33    H     0.01757   0.12221   0.40015   0.00000  Uiso   1.00
H34    H     0.31458   0.11503   0.49274   0.00000  Uiso   1.00
H35    H     0.22083   0.24053   0.38181   0.00000  Uiso   1.00
N36    N     0.31574   0.18074   0.26416   0.00000  Uiso   1.00
N37    N     0.01759   0.15259   0.23584   0.00000  Uiso   1.00
N38    N     0.04310   0.15024   0.06424   0.00000  Uiso   1.00
O39    O     0.12797   0.23807   0.24633   0.00000  Uiso   1.00
O40    O     0.22858   0.24755   0.25587   0.00000  Uiso   1.00
O41    O     0.09181   0.15960   0.31840   0.00000  Uiso   1.00
O42    O     0.19242   0.16908   0.32793   0.00000  Uiso   1.00
O43    O     0.10476   0.08578   0.24414   0.00000  Uiso   1.00
O44    O     0.20536   0.09526   0.25367   0.00000  Uiso   1.00
O45    O     0.14092   0.16425   0.17207   0.00000  Uiso   1.00
O46    O     0.24152   0.17373   0.18161   0.00000  Uiso   1.00
C47    C     0.51518   0.26665   0.25039   0.00000  Uiso   1.00
C48    C     0.44509   0.16510   0.40384   0.00000  Uiso   1.00
C49    C     0.52191   0.32235   0.25190   0.00000  Uiso   1.00
C50    C     0.46639   0.16568   0.34739   0.00000  Uiso   1.00
C51    C     0.47951   0.01148   0.23849   0.00000  Uiso   1.00
C52    C     0.48580   0.06683   0.24619   0.00000  Uiso   1.00
C53    C     0.53395   0.17086   0.15288   0.00000  Uiso   1.00
C54    C     0.62079   0.23760   0.02986   0.00000  Uiso   1.00
C55    C     0.55441   0.18219   0.09810   0.00000  Uiso   1.00
C56    C     0.38374   0.13844   0.42467   0.00000  Uiso   1.00
C57    C     0.36345   0.13282   0.47733   0.00000  Uiso   1.00
C58    C     0.46943   0.17370   0.48994   0.00000  Uiso   1.00
C59    C     0.40480   0.14998   0.01049   0.00000  Uiso   1.00
C60    C     0.48640   0.18710   0.43715   0.00000  Uiso   1.00
C61    C     0.51756   0.18636   0.01925   0.00000  Uiso   1.00
C62    C     0.57518   0.22172   0.49969   0.00000  Uiso   1.00
C63    C     0.58645   0.24111   0.45048   0.00000  Uiso   1.00
C64    C     0.54328   0.22351   0.41936   0.00000  Uiso   1.00
C65    C     0.51162   0.16332   0.06643   0.00000  Uiso   1.00
C66    C     0.60944   0.21922   0.07959   0.00000  Uiso   1.00
Cl67   Cl    0.41722   0.31187   0.20826   0.00000  Uiso   1.00
Cu68   Cu    0.44043   0.16105   0.24436   0.00000  Uiso   1.00
Cu69   Cu    0.55957   0.17228   0.25565   0.00000  Uiso   1.00
H70    H     0.64265   0.23491   0.10392   0.00000  Uiso   1.00
H71    H     0.56139   0.01218   0.26696   0.00000  Uiso   1.00
H72    H     0.37442   0.11431   0.08001   0.00000  Uiso   1.00
H73    H     0.39930   0.18208   0.08384   0.00000  Uiso   1.00
H74    H     0.33696   0.20590   0.28970   0.00000  Uiso   1.00
H75    H     0.66306   0.12746   0.21027   0.00000  Uiso   1.00
H76    H     0.62955   0.26911   0.43547   0.00000  Uiso   1.00
H77    H     0.66426   0.26547   0.01557   0.00000  Uiso   1.00
H78    H     0.47349   0.13086   0.07987   0.00000  Uiso   1.00
H79    H     0.35091   0.12221   0.40015   0.00000  Uiso   1.00
H80    H     0.64792   0.11503   0.49274   0.00000  Uiso   1.00
H81    H     0.55416   0.24053   0.38181   0.00000  Uiso   1.00
N82    N     0.64908   0.18074   0.26416   0.00000  Uiso   1.00
N83    N     0.35092   0.15259   0.23584   0.00000  Uiso   1.00
N84    N     0.37643   0.15024   0.06424   0.00000  Uiso   1.00
O85    O     0.46131   0.23807   0.24633   0.00000  Uiso   1.00
O86    O     0.56191   0.24755   0.25587   0.00000  Uiso   1.00
O87    O     0.42515   0.15960   0.31840   0.00000  Uiso   1.00
O88    O     0.52575   0.16908   0.32793   0.00000  Uiso   1.00
O89    O     0.43809   0.08578   0.24414   0.00000  Uiso   1.00
O90    O     0.53869   0.09526   0.25367   0.00000  Uiso   1.00
O91    O     0.47425   0.16425   0.17207   0.00000  Uiso   1.00
O92    O     0.57485   0.17373   0.18161   0.00000  Uiso   1.00
C93    C     0.84851   0.26665   0.25039   0.00000  Uiso   1.00
C94    C     0.77842   0.16510   0.40384   0.00000  Uiso   1.00
C95    C     0.85524   0.32235   0.25190   0.00000  Uiso   1.00
C96    C     0.79972   0.16568   0.34739   0.00000  Uiso   1.00
C97    C     0.81284   0.01148   0.23849   0.00000  Uiso   1.00
C98    C     0.81914   0.06683   0.24619   0.00000  Uiso   1.00
C99    C     0.86729   0.17086   0.15288   0.00000  Uiso   1.00
C100   C     0.95412   0.23760   0.02986   0.00000  Uiso   1.00
C101   C     0.88775   0.18219   0.09810   0.00000  Uiso   1.00
C102   C     0.71707   0.13844   0.42467   0.00000  Uiso   1.00
C103   C     0.69678   0.13282   0.47733   0.00000  Uiso   1.00
C104   C     0.80276   0.17370   0.48994   0.00000  Uiso   1.00
C105   C     0.73814   0.14998   0.01049   0.00000  Uiso   1.00
C106   C     0.81973   0.18710   0.43715   0.00000  Uiso   1.00
C107   C     0.85089   0.18636   0.01925   0.00000  Uiso   1.00
C108   C     0.90851   0.22172   0.49969   0.00000  Uiso   1.00
C109   C     0.91979   0.24111   0.45048   0.00000  Uiso   1.00
C110   C     0.87662   0.22351   0.41936   0.00000  Uiso   1.00
C111   C     0.84496   0.16332   0.06643   0.00000  Uiso   1.00
C112   C     0.94278   0.21922   0.07959   0.00000  Uiso   1.00
Cl113  Cl    0.75055   0.31187   0.20826   0.00000  Uiso   1.00
Cu114  Cu    0.77377   0.16105   0.24436   0.00000  Uiso   1.00
Cu115  Cu    0.89290   0.17228   0.25565   0.00000  Uiso   1.00
H116   H     0.97598   0.23491   0.10392   0.00000  Uiso   1.00
H117   H     0.89473   0.01218   0.26696   0.00000  Uiso   1.00
H118   H     0.70775   0.11431   0.08001   0.00000  Uiso   1.00
H119   H     0.73263   0.18208   0.08384   0.00000  Uiso   1.00
H120   H     0.67029   0.20590   0.28970   0.00000  Uiso   1.00
H121   H     0.99639   0.12746   0.21027   0.00000  Uiso   1.00
H122   H     0.96289   0.26911   0.43547   0.00000  Uiso   1.00
H123   H     0.99759   0.26547   0.01557   0.00000  Uiso   1.00
H124   H     0.80683   0.13086   0.07987   0.00000  Uiso   1.00
H125   H     0.68424   0.12221   0.40015   0.00000  Uiso   1.00
H126   H     0.98125   0.11503   0.49274   0.00000  Uiso   1.00
H127   H     0.88749   0.24053   0.38181   0.00000  Uiso   1.00
N128   N     0.98241   0.18074   0.26416   0.00000  Uiso   1.00
N129   N     0.68426   0.15259   0.23584   0.00000  Uiso   1.00
N130   N     0.70977   0.15024   0.06424   0.00000  Uiso   1.00
O131   O     0.79464   0.23807   0.24633   0.00000  Uiso   1.00
O132   O     0.89524   0.24755   0.25587   0.00000  Uiso   1.00
O133   O     0.75848   0.15960   0.31840   0.00000  Uiso   1.00
O134   O     0.85908   0.16908   0.32793   0.00000  Uiso   1.00
O135   O     0.77142   0.08578   0.24414   0.00000  Uiso   1.00
O136   O     0.87203   0.09526   0.25367   0.00000  Uiso   1.00
O137   O     0.80758   0.16425   0.17207   0.00000  Uiso   1.00
O138   O     0.90819   0.17373   0.18161   0.00000  Uiso   1.00
C139   C     0.18185   0.59999   0.25039   0.00000  Uiso   1.00
C140   C     0.11176   0.49843   0.40384   0.00000  Uiso   1.00
C141   C     0.18857   0.65569   0.25190   0.00000  Uiso   1.00
C142   C     0.13306   0.49901   0.34739   0.00000  Uiso   1.00
C143   C     0.14618   0.34481   0.23849   0.00000  Uiso   1.00
C144   C     0.15247   0.40016   0.24619   0.00000  Uiso   1.00
C145   C     0.20062   0.50420   0.15288   0.00000  Uiso   1.00
C146   C     0.28746   0.57093   0.02986   0.00000  Uiso   1.00
C147   C     0.22108   0.51552   0.09810   0.00000  Uiso   1.00
C148   C     0.05041   0.47177   0.42467   0.00000  Uiso   1.00
C149   C     0.03012   0.46616   0.47733   0.00000  Uiso   1.00
C150   C     0.13610   0.50703   0.48994   0.00000  Uiso   1.00
C151   C     0.07147   0.48331   0.01049   0.00000  Uiso   1.00
C152   C     0.15307   0.52043   0.43715   0.00000  Uiso   1.00
C153   C     0.18422   0.51969   0.01925   0.00000  Uiso   1.00
C154   C     0.24185   0.55505   0.49969   0.00000  Uiso   1.00
C155   C     0.25312   0.57445   0.45048   0.00000  Uiso   1.00
C156   C     0.20995   0.55685   0.41936   0.00000  Uiso   1.00
C157   C     0.17829   0.49665   0.06643   0.00000  Uiso   1.00
C158   C     0.27611   0.55256   0.07959   0.00000  Uiso   1.00
Cl159  Cl    0.08389   0.64521   0.20826   0.00000  Uiso   1.00
Cu160  Cu    0.10710   0.49439   0.24436   0.00000  Uiso   1.00
Cu161  Cu    0.22623   0.50561   0.25565   0.00000  Uiso   1.00
H162   H     0.30931   0.56824   0.10392   0.00000  Uiso   1.00
H163   H     0.22806   0.34551   0.26696   0.00000  Uiso   1.00
H164   H     0.04108   0.44764   0.08001   0.00000  Uiso   1.00
H165   H     0.06596   0.51541   0.08384   0.00000  Uiso   1.00
H166   H     0.00362   0.53924   0.28970   0.00000  Uiso   1.00
H167   H     0.32972   0.46079   0.21027   0.00000  Uiso   1.00
H168   H     0.29622   0.60244   0.43547   0.00000  Uiso   1.00
H169   H     0.33092   0.59880   0.01557   0.00000  Uiso   1.00
H170   H     0.14016   0.46420   0.07987   0.00000  Uiso   1.00
H171   H     0.01757   0.45555   0.40015   0.00000  Uiso   1.00
H172   H     0.31458   0.44836   0.49274   0.00000  Uiso   1.00
H173   H     0.22083   0.57386   0.38181   0.00000  Uiso   1.00
N174   N     0.31574   0.51407   0.26416   0.00000  Uiso   1.00
N175   N     0.01759   0.48593   0.23584   0.00000  Uiso   1.00
N176   N     0.04310   0.48357   0.06424   0.00000  Uiso   1.00
O177   O     0.12797   0.57141   0.24633   0.00000  Uiso   1.00
O178   O     0.22858   0.58089   0.25587   0.00000  Uiso   1.00
O179   O     0.09181   0.49293   0.31840   0.00000  Uiso   1.00
O180   O     0.19242   0.50241   0.32793   0.00000  Uiso   1.00
O181   O     0.10476   0.41911   0.24414   0.00000  Uiso   1.00
O182   O     0.20536   0.42859   0.25367   0.00000  Uiso   1.00
O183   O     0.14092   0.49759   0.17207   0.00000  Uiso   1.00
O184   O     0.24152   0.50707   0.18161   0.00000  Uiso   1.00
C185   C     0.51518   0.59999   0.25039   0.00000  Uiso   1.00
C186   C     0.44509   0.49843   0.40384   0.00000  Uiso   1.00
C187   C     0.52191   0.65569   0.25190   0.00000  Uiso   1.00
C188   C     0.46639   0.49901   0.34739   0.00000  Uiso   1.00
C189   C     0.47951   0.34481   0.23849   0.00000  Uiso   1.00
C190   C     0.48580   0.40016   0.24619   0.00000  Uiso   1.00
C191   C     0.53395   0.50420   0.15288   0.00000  Uiso   1.00
C192   C     0.62079   0.57093   0.02986   0.00000  Uiso   1.00
C193   C     0.55441   0.51552   0.09810   0.00000  Uiso   1.00
C194   C     0.38374   0.47177   0.42467   0.00000  Uiso   1.00
C195   C     0.36345   0.46616   0.47733   0.00000  Uiso   1.00
C196   C     0.46943   0.50703   0.48994   0.00000  Uiso   1.00
C197   C     0.40480   0.48331   0.01049   0.00000  Uiso   1.00
C198   C     0.48640   0.52043   0.43715   0.00000  Uiso   1.00
C199   C     0.51756   0.51969   0.01925   0.00000  Uiso   1.00
C200   C     0.57518   0.55505   0.49969   0.00000  Uiso   1.00
C201   C     0.58645   0.57445   0.45048   0.00000  Uiso   1.00
C202   C     0.54328   0.55685   0.41936   0.00000  Uiso   1.00
C203   C     0.51162   0.49665   0.06643   0.00000  Uiso   1.00
C204   C     0.60944   0.55256   0.07959   0.00000  Uiso   1.00
Cl205  Cl    0.41722   0.64521   0.20826   0.00000  Uiso   1.00
Cu206  Cu    0.44043   0.49439   0.24436   0.00000  Uiso   1.00
Cu207  Cu    0.55957   0.50561   0.25565   0.00000  Uiso   1.00
H208   H     0.64265   0.56824   0.10392   0.00000  Uiso   1.00
H209   H     0.56139   0.34551   0.26696   0.00000  Uiso   1.00
H210   H     0.37442   0.44764   0.08001   0.00000  Uiso   1.00
H211   H     0.39930   0.51541   0.08384   0.00000  Uiso   1.00
H212   H     0.33696   0.53924   0.28970   0.00000  Uiso   1.00
H213   H     0.66306   0.46079   0.21027   0.00000  Uiso   1.00
H214   H     0.62955   0.60244   0.43547   0.00000  Uiso   1.00
H215   H     0.66426   0.59880   0.01557   0.00000  Uiso   1.00
H216   H     0.47349   0.46420   0.07987   0.00000  Uiso   1.00
H217   H     0.35091   0.45555   0.40015   0.00000  Uiso   1.00
H218   H     0.64792   0.44836   0.49274   0.00000  Uiso   1.00
H219   H     0.55416   0.57386   0.38181   0.00000  Uiso   1.00
N220   N     0.64908   0.51407   0.26416   0.00000  Uiso   1.00
N221   N     0.35092   0.48593   0.23584   0.00000  Uiso   1.00
N222   N     0.37643   0.48357   0.06424   0.00000  Uiso   1.00
O223   O     0.46131   0.57141   0.24633   0.00000  Uiso   1.00
O224   O     0.56191   0.58089   0.25587   0.00000  Uiso   1.00
O225   O     0.42515   0.49293   0.31840   0.00000  Uiso   1.00
O226   O     0.52575   0.50241   0.32793   0.00000  Uiso   1.00
O227   O     0.43809   0.41911   0.24414   0.00000  Uiso   1.00
O228   O     0.53869   0.42859   0.25367   0.00000  Uiso   1.00
O229   O     0.47425   0.49759   0.17207   0.00000  Uiso   1.00
O230   O     0.57485   0.50707   0.18161   0.00000  Uiso   1.00
C231   C     0.84851   0.59999   0.25039   0.00000  Uiso   1.00
C232   C     0.77842   0.49843   0.40384   0.00000  Uiso   1.00
C233   C     0.85524   0.65569   0.25190   0.00000  Uiso   1.00
C234   C     0.79972   0.49901   0.34739   0.00000  Uiso   1.00
C235   C     0.81284   0.34481   0.23849   0.00000  Uiso   1.00
C236   C     0.81914   0.40016   0.24619   0.00000  Uiso   1.00
C237   C     0.86729   0.50420   0.15288   0.00000  Uiso   1.00
C238   C     0.95412   0.57093   0.02986   0.00000  Uiso   1.00
C239   C     0.88775   0.51552   0.09810   0.00000  Uiso   1.00
C240   C     0.71707   0.47177   0.42467   0.00000  Uiso   1.00
C241   C     0.69678   0.46616   0.47733   0.00000  Uiso   1.00
C242   C     0.80276   0.50703   0.48994   0.00000  Uiso   1.00
C243   C     0.73814   0.48331   0.01049   0.00000  Uiso   1.00
C244   C     0.81973   0.52043   0.43715   0.00000  Uiso   1.00
C245   C     0.85089   0.51969   0.01925   0.00000  Uiso   1.00
C246   C     0.90851   0.55505   0.49969   0.00000  Uiso   1.00
C247   C     0.91979   0.57445   0.45048   0.00000  Uiso   1.00
C248   C     0.87662   0.55685   0.41936   0.00000  Uiso   1.00
C249   C     0.84496   0.49665   0.06643   0.00000  Uiso   1.00
C250   C     0.94278   0.55256   0.07959   0.00000  Uiso   1.00
Cl251  Cl    0.75055   0.64521   0.20826   0.00000  Uiso   1.00
Cu252  Cu    0.77377   0.49439   0.24436   0.00000  Uiso   1.00
Cu253  Cu    0.89290   0.50561   0.25565   0.00000  Uiso   1.00
H254   H     0.97598   0.56824   0.10392   0.00000  Uiso   1.00
H255   H     0.89473   0.34551   0.26696   0.00000  Uiso   1.00
H256   H     0.70775   0.44764   0.08001   0.00000  Uiso   1.00
H257   H     0.73263   0.51541   0.08384   0.00000  Uiso   1.00
H258   H     0.67029   0.53924   0.28970   0.00000  Uiso   1.00
H259   H     0.99639   0.46079   0.21027   0.00000  Uiso   1.00
H260   H     0.96289   0.60244   0.43547   0.00000  Uiso   1.00
H261   H     0.99759   0.59880   0.01557   0.00000  Uiso   1.00
H262   H     0.80683   0.46420   0.07987   0.00000  Uiso   1.00
H263   H     0.68424   0.45555   0.40015   0.00000  Uiso   1.00
H264   H     0.98125   0.44836   0.49274   0.00000  Uiso   1.00
H265   H     0.88749   0.57386   0.38181   0.00000  Uiso   1.00
N266   N     0.98241   0.51407   0.26416   0.00000  Uiso   1.00
N267   N     0.68426   0.48593   0.23584   0.00000  Uiso   1.00
N268   N     0.70977   0.48357   0.06424   0.00000  Uiso   1.00
O269   O     0.79464   0.57141   0.24633   0.00000  Uiso   1.00
O270   O     0.89524   0.58089   0.25587   0.00000  Uiso   1.00
O271   O     0.75848   0.49293   0.31840   0.00000  Uiso   1.00
O272   O     0.85908   0.50241   0.32793   0.00000  Uiso   1.00
O273   O     0.77142   0.41911   0.24414   0.00000  Uiso   1.00
O274   O     0.87203   0.42859   0.25367   0.00000  Uiso   1.00
O275   O     0.80758   0.49759   0.17207   0.00000  Uiso   1.00
O276   O     0.90819   0.50707   0.18161   0.00000  Uiso   1.00
C277   C     0.18185   0.93332   0.25039   0.00000  Uiso   1.00
C278   C     0.11176   0.83177   0.40384   0.00000  Uiso   1.00
C279   C     0.18857   0.98902   0.25190   0.00000  Uiso   1.00
C280   C     0.13306   0.83235   0.34739   0.00000  Uiso   1.00
C281   C     0.14618   0.67815   0.23849   0.00000  Uiso   1.00
C282   C     0.15247   0.73349   0.24619   0.00000  Uiso   1.00
C283   C     0.20062   0.83753   0.15288   0.00000  Uiso   1.00
C284   C     0.28746   0.90427   0.02986   0.00000  Uiso   1.00
C285   C     0.22108   0.84886   0.09810   0.00000  Uiso   1.00
C286   C     0.05041   0.80510   0.42467   0.00000  Uiso   1.00
C287   C     0.03012   0.79949   0.47733   0.00000  Uiso   1.00
C288   C     0.13610   0.84036   0.48994   0.00000  Uiso   1.00
C289   C     0.07147   0.81665   0.01049   0.00000  Uiso   1.00
C290   C     0.15307   0.85376   0.43715   0.00000  Uiso   1.00
C291   C     0.18422   0.85303   0.01925   0.00000  Uiso   1.00
C292   C     0.24185   0.88838   0.49969   0.00000  Uiso   1.00
C293   C     0.25312   0.90778   0.45048   0.00000  Uiso   1.00
C294   C     0.20995   0.89018   0.41936   0.00000  Uiso   1.00
C295   C     0.17829   0.82998   0.06643   0.00000  Uiso   1.00
C296   C     0.27611   0.88589   0.07959   0.00000  Uiso   1.00
Cl297  Cl    0.08389   0.97854   0.20826   0.00000  Uiso   1.00
Cu298  Cu    0.10710   0.82772   0.24436   0.00000  Uiso   1.00
Cu299  Cu    0.22623   0.83895   0.25565   0.00000  Uiso   1.00
H300   H     0.30931   0.90157   0.10392   0.00000  Uiso   1.00
H301   H     0.22806   0.67885   0.26696   0.00000  Uiso   1.00
H302   H     0.04108   0.78097   0.08001   0.00000  Uiso   1.00
H303   H     0.06596   0.84874   0.08384   0.00000  Uiso   1.00
H304   H     0.00362   0.87257   0.28970   0.00000  Uiso   1.00
H305   H     0.32972   0.79413   0.21027   0.00000  Uiso   1.00
H306   H     0.29622   0.93577   0.43547   0.00000  Uiso   1.00
H307   H     0.33092   0.93213   0.01557   0.00000  Uiso   1.00
H308   H     0.14016   0.79753   0.07987   0.00000  Uiso   1.00
H309   H     0.01757   0.78888   0.40015   0.00000  Uiso   1.00
H310   H     0.31458   0.78169   0.49274   0.00000  Uiso   1.00
H311   H     0.22083   0.90720   0.38181   0.00000  Uiso   1.00
N312   N     0.31574   0.84741   0.26416   0.00000  Uiso   1.00
N313   N     0.01759   0.81926   0.23584   0.00000  Uiso   1.00
N314   N     0.04310   0.81690   0.06424   0.00000  Uiso   1.00
O315   O     0.12797   0.90474   0.24633   0.00000  Uiso   1.00
O316   O     0.22858   0.91422   0.25587   0.00000  Uiso   1.00
O317   O     0.09181   0.82627   0.31840   0.00000  Uiso   1.00
O318   O     0.19242   0.83575   0.32793   0.00000  Uiso   1.00
O319   O     0.10476   0.75245   0.24414   0.00000  Uiso   1.00
O320   O     0.20536   0.76193   0.25367   0.00000  Uiso   1.00
O321   O     0.14092   0.83092   0.17207   0.00000  Uiso   1.00
O322   O     0.24152   0.84040   0.18161   0.00000  Uiso   1.00
C323   C     0.51518   0.93332   0.25039   0.00000  Uiso   1.00
C324   C     0.44509   0.83177   0.40384   0.00000  Uiso   1.00
C325   C     0.52191   0.98902   0.25190   0.00000  Uiso   1.00
C326   C     0.46639   0.83235   0.34739   0.00000  Uiso   1.00
C327   C     0.47951   0.67815   0.23849   0.00000  Uiso   1.00
C328   C     0.48580   0.73349   0.24619   0.00000  Uiso   1.00
C329   C     0.53395   0.83753   0.15288   0.00000  Uiso   1.00
C330   C     0.62079   0.90427   0.02986   0.00000  Uiso   1.00
C331   C     0.55441   0.84886   0.09810   0.00000  Uiso   1.00
C332   C     0.38374   0.80510   0.42467   0.00000  Uiso   1.00
C333   C     0.36345   0.79949   0.47733   0.00000  Uiso   1.00
C334   C     0.46943   0.84036   0.48994   0.00000  Uiso   1.00
C335   C     0.40480   0.81665   0.01049   0.00000  Uiso   1.00
C336   C     0.48640   0.85376   0.43715   0.00000  Uiso   1.00
C337   C     0.51756   0.85303   0.01925   0.00000  Uiso   1.00
C338   C     0.57518   0.88838   0.49969   0.00000  Uiso   1.00
C339   C     0.58645   0.90778   0.45048   0.00000  Uiso   1.00
C340   C     0.54328   0.89018   0.41936   0.00000  Uiso   1.00
C341   C     0.51162   0.82998   0.06643   0.00000  Uiso   1.00
C342   C     0.60944   0.88589   0.07959   0.00000  Uiso   1.00
Cl343  Cl    0.41722   0.97854   0.20826   0.00000  Uiso   1.00
Cu344  Cu    0.44043   0.82772   0.24436   0.00000  Uiso   1.00
Cu345  Cu    0.55957   0.83895   0.25565   0.00000  Uiso   1.00
H346   H     0.64265   0.90157   0.10392   0.00000  Uiso   1.00
H347   H     0.56139   0.67885   0.26696   0.00000  Uiso   1.00
H348   H     0.37442   0.78097   0.08001   0.00000  Uiso   1.00
H349   H     0.39930   0.84874   0.08384   0.00000  Uiso   1.00
H350   H     0.33696   0.87257   0.28970   0.00000  Uiso   1.00
H351   H     0.66306   0.79413   0.21027   0.00000  Uiso   1.00
H352   H     0.62955   0.93577   0.43547   0.00000  Uiso   1.00
H353   H     0.66426   0.93213   0.01557   0.00000  Uiso   1.00
H354   H     0.47349   0.79753   0.07987   0.00000  Uiso   1.00
H355   H     0.35091   0.78888   0.40015   0.00000  Uiso   1.00
H356   H     0.64792   0.78169   0.49274   0.00000  Uiso   1.00
H357   H     0.55416   0.90720   0.38181   0.00000  Uiso   1.00
N358   N     0.64908   0.84741   0.26416   0.00000  Uiso   1.00
N359   N     0.35092   0.81926   0.23584   0.00000  Uiso   1.00
N360   N     0.37643   0.81690   0.06424   0.00000  Uiso   1.00
O361   O     0.46131   0.90474   0.24633   0.00000  Uiso   1.00
O362   O     0.56191   0.91422   0.25587   0.00000  Uiso   1.00
O363   O     0.42515   0.82627   0.31840   0.00000  Uiso   1.00
O364   O     0.52575   0.83575   0.32793   0.00000  Uiso   1.00
O365   O     0.43809   0.75245   0.24414   0.00000  Uiso   1.00
O366   O     0.53869   0.76193   0.25367   0.00000  Uiso   1.00
O367   O     0.47425   0.83092   0.17207   0.00000  Uiso   1.00
O368   O     0.57485   0.84040   0.18161   0.00000  Uiso   1.00
C369   C     0.84851   0.93332   0.25039   0.00000  Uiso   1.00
C370   C     0.77842   0.83177   0.40384   0.00000  Uiso   1.00
C371   C     0.85524   0.98902   0.25190   0.00000  Uiso   1.00
C372   C     0.79972   0.83235   0.34739   0.00000  Uiso   1.00
C373   C     0.81284   0.67815   0.23849   0.00000  Uiso   1.00
C374   C     0.81914   0.73349   0.24619   0.00000  Uiso   1.00
C375   C     0.86729   0.83753   0.15288   0.00000  Uiso   1.00
C376   C     0.95412   0.90427   0.02986   0.00000  Uiso   1.00
C377   C     0.88775   0.84886   0.09810   0.00000  Uiso   1.00
C378   C     0.71707   0.80510   0.42467   0.00000  Uiso   1.00
C379   C     0.69678   0.79949   0.47733   0.00000  Uiso   1.00
C380   C     0.80276   0.84036   0.48994   0.00000  Uiso   1.00
C381   C     0.73814   0.81665   0.01049   0.00000  Uiso   1.00
C382   C     0.81973   0.85376   0.43715   0.00000  Uiso   1.00
C383   C     0.85089   0.85303   0.01925   0.00000  Uiso   1.00
C384   C     0.90851   0.88838   0.49969   0.00000  Uiso   1.00
C385   C     0.91979   0.90778   0.45048   0.00000  Uiso   1.00
C386   C     0.87662   0.89018   0.41936   0.00000  Uiso   1.00
C387   C     0.84496   0.82998   0.06643   0.00000  Uiso   1.00
C388   C     0.94278   0.88589   0.07959   0.00000  Uiso   1.00
Cl389  Cl    0.75055   0.97854   0.20826   0.00000  Uiso   1.00
Cu390  Cu    0.77377   0.82772   0.24436   0.00000  Uiso   1.00
Cu391  Cu    0.89290   0.83895   0.25565   0.00000  Uiso   1.00
H392   H     0.97598   0.90157   0.10392   0.00000  Uiso   1.00
H393   H     0.89473   0.67885   0.26696   0.00000  Uiso   1.00
H394   H     0.70775   0.78097   0.08001   0.00000  Uiso   1.00
H395   H     0.73263   0.84874   0.08384   0.00000  Uiso   1.00
H396   H     0.67029   0.87257   0.28970   0.00000  Uiso   1.00
H397   H     0.99639   0.79413   0.21027   0.00000  Uiso   1.00
H398   H     0.96289   0.93577   0.43547   0.00000  Uiso   1.00
H399   H     0.99759   0.93213   0.01557   0.00000  Uiso   1.00
H400   H     0.80683   0.79753   0.07987   0.00000  Uiso   1.00
H401   H     0.68424   0.78888   0.40015   0.00000  Uiso   1.00
H402   H     0.98125   0.78169   0.49274   0.00000  Uiso   1.00
H403   H     0.88749   0.90720   0.38181   0.00000  Uiso   1.00
N404   N     0.98241   0.84741   0.26416   0.00000  Uiso   1.00
N405   N     0.68426   0.81926   0.23584   0.00000  Uiso   1.00
N406   N     0.70977   0.81690   0.06424   0.00000  Uiso   1.00
O407   O     0.79464   0.90474   0.24633   0.00000  Uiso   1.00
O408   O     0.89524   0.91422   0.25587   0.00000  Uiso   1.00
O409   O     0.75848   0.82627   0.31840   0.00000  Uiso   1.00
O410   O     0.85908   0.83575   0.32793   0.00000  Uiso   1.00
O411   O     0.77142   0.75245   0.24414   0.00000  Uiso   1.00
O412   O     0.87203   0.76193   0.25367   0.00000  Uiso   1.00
O413   O     0.80758   0.83092   0.17207   0.00000  Uiso   1.00
O414   O     0.90819   0.84040   0.18161   0.00000  Uiso   1.00
C415   C     0.18185   0.26665   0.75039   0.00000  Uiso   1.00
C416   C     0.11176   0.16510   0.90384   0.00000  Uiso   1.00
C417   C     0.18857   0.32235   0.75190   0.00000  Uiso   1.00
C418   C     0.13306   0.16568   0.84739   0.00000  Uiso   1.00
C419   C     0.14618   0.01148   0.73849   0.00000  Uiso   1.00
C420   C     0.15247   0.06683   0.74619   0.00000  Uiso   1.00
C421   C     0.20062   0.17086   0.65288   0.00000  Uiso   1.00
C422   C     0.28746   0.23760   0.52986   0.00000  Uiso   1.00
C423   C     0.22108   0.18219   0.59810   0.00000  Uiso   1.00
C424   C     0.05041   0.13844   0.92467   0.00000  Uiso   1.00
C425   C     0.03012   0.13282   0.97733   0.00000  Uiso   1.00
C426   C     0.13610   0.17370   0.98994   0.00000  Uiso   1.00
C427   C     0.07147   0.14998   0.51049   0.00000  Uiso   1.00
C428   C     0.15307   0.18710   0.93715   0.00000  Uiso   1.00
C429   C     0.18422   0.18636   0.51925   0.00000  Uiso   1.00
C430   C     0.24185   0.22172   0.99969   0.00000  Uiso   1.00
C431   C     0.25312   0.24111   0.95048   0.00000  Uiso   1.00
C432   C     0.20995   0.22351   0.91936   0.00000  Uiso   1.00
C433   C     0.17829   0.16332   0.56643   0.00000  Uiso   1.00
C434   C     0.27611   0.21922   0.57959   0.00000  Uiso   1.00
Cl435  Cl    0.08389   0.31187   0.70826   0.00000  Uiso   1.00
Cu436  Cu    0.10710   0.16105   0.74436   0.00000  Uiso   1.00
Cu437  Cu    0.22623   0.17228   0.75565   0.00000  Uiso   1.00
H438   H     0.30931   0.23491   0.60392   0.00000  Uiso   1.00
H439   H     0.22806   0.01218   0.76696   0.00000  Uiso   1.00
H440   H     0.04108   0.11431   0.58001   0.00000  Uiso   1.00
H441   H     0.06596   0.18208   0.58384   0.00000  Uiso   1.00
H442   H     0.00362   0.20590   0.78970   0.00000  Uiso   1.00
H443   H     0.32972   0.12746   0.71027   0.00000  Uiso   1.00
H444   H     0.29622   0.26911   0.93547   0.00000  Uiso   1.00
H445   H     0.33092   0.26547   0.51557   0.00000  Uiso   1.00
H446   H     0.14016   0.13086   0.57987   0.00000  Uiso   1.00
H447   H     0.01757   0.12221   0.90015   0.00000  Uiso   1.00
H448   H     0.31458   0.11503   0.99274   0.00000  Uiso   1.00
H449   H     0.22083   0.24053   0.88181   0.00000  Uiso   1.00
N450   N     0.31574   0.18074   0.76416   0.00000  Uiso   1.00
N451   N     0.01759   0.15259   0.73584   0.00000  Uiso   1.00
N452   N     0.04310   0.15024   0.56424   0.00000  Uiso   1.00
O453   O     0.12797   0.23807   0.74633   0.00000  Uiso   1.00
O454   O     0.22858   0.24755   0.75587   0.00000  Uiso   1.00
O455   O     0.09181   0.15960   0.81840   0.00000  Uiso   1.00
O456   O     0.19242   0.16908   0.82793   0.00000  Uiso   1.00
O457   O     0.10476   0.08578   0.74414   0.00000  Uiso   1.00
O458   O     0.20536   0.09526   0.75367   0.00000  Uiso   1.00
O459   O     0.14092   0.16425   0.67207   0.00000  Uiso   1.00
O460   O     0.24152   0.17373   0.68161   0.00000  Uiso   1.00
C461   C     0.51518   0.26665   0.75039   0.00000  Uiso   1.00
C462   C     0.44509   0.16510   0.90384   0.00000  Uiso   1.00
C463   C     0.52191   0.32235   0.75190   0.00000  Uiso   1.00
C464   C     0.46639   0.16568   0.84739   0.00000  Uiso   1.00
C465   C     0.47951   0.01148   0.73849   0.00000  Uiso   1.00
C466   C     0.48580   0.06683   0.74619   0.00000  Uiso   1.00
C467   C     0.53395   0.17086   0.65288   0.00000  Uiso   1.00
C468   C     0.62079   0.23760   0.52986   0.00000  Uiso   1.00
C469   C     0.55441   0.18219   0.59810   0.00000  Uiso   1.00
C470   C     0.38374   0.13844   0.92467   0.00000  Uiso   1.00
C471   C     0.36345   0.13282   0.97733   0.00000  Uiso   1.00
C472   C     0.46943   0.17370   0.98994   0.00000  Uiso   1.00
C473   C     0.40480   0.14998   0.51049   0.00000  Uiso   1.00
C474   C     0.48640   0.18710   0.93715   0.00000  Uiso   1.00
C475   C     0.51756   0.18636   0.51925   0.00000  Uiso   1.00
C476   C     0.57518   0.22172   0.99969   0.00000  Uiso   1.00
C477   C     0.58645   0.24111   0.95048   0.00000  Uiso   1.00
C478   C     0.54328   0.22351   0.91936   0.00000  Uiso   1.00
C479   C     0.51162   0.16332   0.56643   0.00000  Uiso   1.00
C480   C     0.60944   0.21922   0.57959   0.00000  Uiso   1.00
Cl481  Cl    0.41722   0.31187   0.70826   0.00000  Uiso   1.00
Cu482  Cu    0.44043   0.16105   0.74436   0.00000  Uiso   1.00
Cu483  Cu    0.55957   0.17228   0.75565   0.00000  Uiso   1.00
H484   H     0.64265   0.23491   0.60392   0.00000  Uiso   1.00
H485   H     0.56139   0.01218   0.76696   0.00000  Uiso   1.00
H486   H     0.37442   0.11431   0.58001   0.00000  Uiso   1.00
H487   H     0.39930   0.18208   0.58384   0.00000  Uiso   1.00
H488   H     0.33696   0.20590   0.78970   0.00000  Uiso   1.00
H489   H     0.66306   0.12746   0.71027   0.00000  Uiso   1.00
H490   H     0.62955   0.26911   0.93547   0.00000  Uiso   1.00
H491   H     0.66426   0.26547   0.51557   0.00000  Uiso   1.00
H492   H     0.47349   0.13086   0.57987   0.00000  Uiso   1.00
H493   H     0.35091   0.12221   0.90015   0.00000  Uiso   1.00
H494   H     0.64792   0.11503   0.99274   0.00000  Uiso   1.00
H495   H     0.55416   0.24053   0.88181   0.00000  Uiso   1.00
N496   N     0.64908   0.18074   0.76416   0.00000  Uiso   1.00
N497   N     0.35092   0.15259   0.73584   0.00000  Uiso   1.00
N498   N     0.37643   0.15024   0.56424   0.00000  Uiso   1.00
O499   O     0.46131   0.23807   0.74633   0.00000  Uiso   1.00
O500   O     0.56191   0.24755   0.75587   0.00000  Uiso   1.00
O501   O     0.42515   0.15960   0.81840   0.00000  Uiso   1.00
O502   O     0.52575   0.16908   0.82793   0.00000  Uiso   1.00
O503   O     0.43809   0.08578   0.74414   0.00000  Uiso   1.00
O504   O     0.53869   0.09526   0.75367   0.00000  Uiso   1.00
O505   O     0.47425   0.16425   0.67207   0.00000  Uiso   1.00
O506   O     0.57485   0.17373   0.68161   0.00000  Uiso   1.00
C507   C     0.84851   0.26665   0.75039   0.00000  Uiso   1.00
C508   C     0.77842   0.16510   0.90384   0.00000  Uiso   1.00
C509   C     0.85524   0.32235   0.75190   0.00000  Uiso   1.00
C510   C     0.79972   0.16568   0.84739   0.00000  Uiso   1.00
C511   C     0.81284   0.01148   0.73849   0.00000  Uiso   1.00
C512   C     0.81914   0.06683   0.74619   0.00000  Uiso   1.00
C513   C     0.86729   0.17086   0.65288   0.00000  Uiso   1.00
C514   C     0.95412   0.23760   0.52986   0.00000  Uiso   1.00
C515   C     0.88775   0.18219   0.59810   0.00000  Uiso   1.00
C516   C     0.71707   0.13844   0.92467   0.00000  Uiso   1.00
C517   C     0.69678   0.13282   0.97733   0.00000  Uiso   1.00
C518   C     0.80276   0.17370   0.98994   0.00000  Uiso   1.00
C519   C     0.73814   0.14998   0.51049   0.00000  Uiso   1.00
C520   C     0.81973   0.18710   0.93715   0.00000  Uiso   1.00
C521   C     0.85089   0.18636   0.51925   0.00000  Uiso   1.00
C522   C     0.90851   0.22172   0.99969   0.00000  Uiso   1.00
C523   C     0.91979   0.24111   0.95048   0.00000  Uiso   1.00
C524   C     0.87662   0.22351   0.91936   0.00000  Uiso   1.00
C525   C     0.84496   0.16332   0.56643   0.00000  Uiso   1.00
C526   C     0.94278   0.21922   0.57959   0.00000  Uiso   1.00
Cl527  Cl    0.75055   0.31187   0.70826   0.00000  Uiso   1.00
Cu528  Cu    0.77377   0.16105   0.74436   0.00000  Uiso   1.00
Cu529  Cu    0.89290   0.17228   0.75565   0.00000  Uiso   1.00
H530   H     0.97598   0.23491   0.60392   0.00000  Uiso   1.00
H531   H     0.89473   0.01218   0.76696   0.00000  Uiso   1.00
H532   H     0.70775   0.11431   0.58001   0.00000  Uiso   1.00
H533   H     0.73263   0.18208   0.58384   0.00000  Uiso   1.00
H534   H     0.67029   0.20590   0.78970   0.00000  Uiso   1.00
H535   H     0.99639   0.12746   0.71027   0.00000  Uiso   1.00
H536   H     0.96289   0.26911   0.93547   0.00000  Uiso   1.00
H537   H     0.99759   0.26547   0.51557   0.00000  Uiso   1.00
H538   H     0.80683   0.13086   0.57987   0.00000  Uiso   1.00
H539   H     0.68424   0.12221   0.90015   0.00000  Uiso   1.00
H540   H     0.98125   0.11503   0.99274   0.00000  Uiso   1.00
H541   H     0.88749   0.24053   0.88181   0.00000  Uiso   1.00
N542   N     0.98241   0.18074   0.76416   0.00000  Uiso   1.00
N543   N     0.68426   0.15259   0.73584   0.00000  Uiso   1.00
N544   N     0.70977   0.15024   0.56424   0.00000  Uiso   1.00
O545   O     0.79464   0.23807   0.74633   0.00000  Uiso   1.00
O546   O     0.89524   0.24755   0.75587   0.00000  Uiso   1.00
O547   O     0.75848   0.15960   0.81840   0.00000  Uiso   1.00
O548   O     0.85908   0.16908   0.82793   0.00000  Uiso   1.00
O549   O     0.77142   0.08578   0.74414   0.00000  Uiso   1.00
O550   O     0.87203   0.09526   0.75367   0.00000  Uiso   1.00
O551   O     0.80758   0.16425   0.67207   0.00000  Uiso   1.00
O552   O     0.90819   0.17373   0.68161   0.00000  Uiso   1.00
C553   C     0.18185   0.59999   0.75039   0.00000  Uiso   1.00
C554   C     0.11176   0.49843   0.90384   0.00000  Uiso   1.00
C555   C     0.18857   0.65569   0.75190   0.00000  Uiso   1.00
C556   C     0.13306   0.49901   0.84739   0.00000  Uiso   1.00
C557   C     0.14618   0.34481   0.73849   0.00000  Uiso   1.00
C558   C     0.15247   0.40016   0.74619   0.00000  Uiso   1.00
C559   C     0.20062   0.50420   0.65288   0.00000  Uiso   1.00
C560   C     0.28746   0.57093   0.52986   0.00000  Uiso   1.00
C561   C     0.22108   0.51552   0.59810   0.00000  Uiso   1.00
C562   C     0.05041   0.47177   0.92467   0.00000  Uiso   1.00
C563   C     0.03012   0.46616   0.97733   0.00000  Uiso   1.00
C564   C     0.13610   0.50703   0.98994   0.00000  Uiso   1.00
C565   C     0.07147   0.48331   0.51049   0.00000  Uiso   1.00
C566   C     0.15307   0.52043   0.93715   0.00000  Uiso   1.00
C567   C     0.18422   0.51969   0.51925   0.00000  Uiso   1.00
C568   C     0.24185   0.55505   0.99969   0.00000  Uiso   1.00
C569   C     0.25312   0.57445   0.95048   0.00000  Uiso   1.00
C570   C     0.20995   0.55685   0.91936   0.00000  Uiso   1.00
C571   C     0.17829   0.49665   0.56643   0.00000  Uiso   1.00
C572   C     0.27611   0.55256   0.57959   0.00000  Uiso   1.00
Cl573  Cl    0.08389   0.64521   0.70826   0.00000  Uiso   1.00
Cu574  Cu    0.10710   0.49439   0.74436   0.00000  Uiso   1.00
Cu575  Cu    0.22623   0.50561   0.75565   0.00000  Uiso   1.00
H576   H     0.30931   0.56824   0.60392   0.00000  Uiso   1.00
H577   H     0.22806   0.34551   0.76696   0.00000  Uiso   1.00
H578   H     0.04108   0.44764   0.58001   0.00000  Uiso   1.00
H579   H     0.06596   0.51541   0.58384   0.00000  Uiso   1.00
H580   H     0.00362   0.53924   0.78970   0.00000  Uiso   1.00
H581   H     0.32972   0.46079   0.71027   0.00000  Uiso   1.00
H582   H     0.29622   0.60244   0.93547   0.00000  Uiso   1.00
H583   H     0.33092   0.59880   0.51557   0.00000  Uiso   1.00
H584   H     0.14016   0.46420   0.57987   0.00000  Uiso   1.00
H585   H     0.01757   0.45555   0.90015   0.00000  Uiso   1.00
H586   H     0.31458   0.44836   0.99274   0.00000  Uiso   1.00
H587   H     0.22083   0.57386   0.88181   0.00000  Uiso   1.00
N588   N     0.31574   0.51407   0.76416   0.00000  Uiso   1.00
N589   N     0.01759   0.48593   0.73584   0.00000  Uiso   1.00
N590   N     0.04310   0.48357   0.56424   0.00000  Uiso   1.00
O591   O     0.12797   0.57141   0.74633   0.00000  Uiso   1.00
O592   O     0.22858   0.58089   0.75587   0.00000  Uiso   1.00
O593   O     0.09181   0.49293   0.81840   0.00000  Uiso   1.00
O594   O     0.19242   0.50241   0.82793   0.00000  Uiso   1.00
O595   O     0.10476   0.41911   0.74414   0.00000  Uiso   1.00
O596   O     0.20536   0.42859   0.75367   0.00000  Uiso   1.00
O597   O     0.14092   0.49759   0.67207   0.00000  Uiso   1.00
O598   O     0.24152   0.50707   0.68161   0.00000  Uiso   1.00
C599   C     0.51518   0.59999   0.75039   0.00000  Uiso   1.00
C600   C     0.44509   0.49843   0.90384   0.00000  Uiso   1.00
C601   C     0.52191   0.65569   0.75190   0.00000  Uiso   1.00
C602   C     0.46639   0.49901   0.84739   0.00000  Uiso   1.00
C603   C     0.47951   0.34481   0.73849   0.00000  Uiso   1.00
C604   C     0.48580   0.40016   0.74619   0.00000  Uiso   1.00
C605   C     0.53395   0.50420   0.65288   0.00000  Uiso   1.00
C606   C     0.62079   0.57093   0.52986   0.00000  Uiso   1.00
C607   C     0.55441   0.51552   0.59810   0.00000  Uiso   1.00
C608   C     0.38374   0.47177   0.92467   0.00000  Uiso   1.00
C609   C     0.36345   0.46616   0.97733   0.00000  Uiso   1.00
C610   C     0.46943   0.50703   0.98994   0.00000  Uiso   1.00
C611   C     0.40480   0.48331   0.51049   0.00000  Uiso   1.00
C612   C     0.48640   0.52043   0.93715   0.00000  Uiso   1.00
C613   C     0.51756   0.51969   0.51925   0.00000  Uiso   1.00
C614   C     0.57518   0.55505   0.99969   0.00000  Uiso   1.00
C615   C     0.58645   0.57445   0.95048   0.00000  Uiso   1.00
C616   C     0.54328   0.55685   0.91936   0.00000  Uiso   1.00
C617   C     0.51162   0.49665   0.56643   0.00000  Uiso   1.00
C618   C     0.60944   0.55256   0.57959   0.00000  Uiso   1.00
Cl619  Cl    0.41722   0.64521   0.70826   0.00000  Uiso   1.00
Cu620  Cu    0.44043   0.49439   0.74436   0.00000  Uiso   1.00
Cu621  Cu    0.55957   0.50561   0.75565   0.00000  Uiso   1.00
H622   H     0.64265   0.56824   0.60392   0.00000  Uiso   1.00
H623   H     0.56139   0.34551   0.76696   0.00000  Uiso   1.00
H624   H     0.37442   0.44764   0.58001   0.00000  Uiso   1.00
H625   H     0.39930   0.51541   0.58384   0.00000  Uiso   1.00
H626   H     0.33696   0.53924   0.78970   0.00000  Uiso   1.00
H627   H     0.66306   0.46079   0.71027   0.00000  Uiso   1.00
H628   H     0.62955   0.60244   0.93547   0.00000  Uiso   1.00
H629   H     0.66426   0.59880   0.51557   0.00000  Uiso   1.00
H630   H     0.47349   0.46420   0.57987   0.00000  Uiso   1.00
H631   H     0.35091   0.45555   0.90015   0.00000  Uiso   1.00
H632   H     0.64792   0.44836   0.99274   0.00000  Uiso   1.00
H633   H     0.55416   0.57386   0.88181   0.00000  Uiso   1.00
N634   N     0.64908   0.51407   0.76416   0.00000  Uiso   1.00
N635   N     0.35092   0.48593   0.73584   0.00000  Uiso   1.00
N636   N     0.37643   0.48357   0.56424   0.00000  Uiso   1.00
O637   O     0.46131   0.57141   0.74633   0.00000  Uiso   1.00
O638   O     0.56191   0.58089   0.75587   0.00000  Uiso   1.00
O639   O     0.42515   0.49293   0.81840   0.00000  Uiso   1.00
O640   O     0.52575   0.50241   0.82793   0.00000  Uiso   1.00
O641   O     0.43809   0.41911   0.74414   0.00000  Uiso   1.00
O642   O     0.53869   0.42859   0.75367   0.00000  Uiso   1.00
O643   O     0.47425   0.49759   0.67207   0.00000  Uiso   1.00
O644   O     0.57485   0.50707   0.68161   0.00000  Uiso   1.00
C645   C     0.84851   0.59999   0.75039   0.00000  Uiso   1.00
C646   C     0.77842   0.49843   0.90384   0.00000  Uiso   1.00
C647   C     0.85524   0.65569   0.75190   0.00000  Uiso   1.00
C648   C     0.79972   0.49901   0.84739   0.00000  Uiso   1.00
C649   C     0.81284   0.34481   0.73849   0.00000  Uiso   1.00
C650   C     0.81914   0.40016   0.74619   0.00000  Uiso   1.00
C651   C     0.86729   0.50420   0.65288   0.00000  Uiso   1.00
C652   C     0.95412   0.57093   0.52986   0.00000  Uiso   1.00
C653   C     0.88775   0.51552   0.59810   0.00000  Uiso   1.00
C654   C     0.71707   0.47177   0.92467   0.00000  Uiso   1.00
C655   C     0.69678   0.46616   0.97733   0.00000  Uiso   1.00
C656   C     0.80276   0.50703   0.98994   0.00000  Uiso   1.00
C657   C     0.73814   0.48331   0.51049   0.00000  Uiso   1.00
C658   C     0.81973   0.52043   0.93715   0.00000  Uiso   1.00
C659   C     0.85089   0.51969   0.51925   0.00000  Uiso   1.00
C660   C     0.90851   0.55505   0.99969   0.00000  Uiso   1.00
C661   C     0.91979   0.57445   0.95048   0.00000  Uiso   1.00
C662   C     0.87662   0.55685   0.91936   0.00000  Uiso   1.00
C663   C     0.84496   0.49665   0.56643   0.00000  Uiso   1.00
C664   C     0.94278   0.55256   0.57959   0.00000  Uiso   1.00
Cl665  Cl    0.75055   0.64521   0.70826   0.00000  Uiso   1.00
Cu666  Cu    0.77377   0.49439   0.74436   0.00000  Uiso   1.00
Cu667  Cu    0.89290   0.50561   0.75565   0.00000  Uiso   1.00
H668   H     0.97598   0.56824   0.60392   0.00000  Uiso   1.00
H669   H     0.89473   0.34551   0.76696   0.00000  Uiso   1.00
H670   H     0.70775   0.44764   0.58001   0.00000  Uiso   1.00
H671   H     0.73263   0.51541   0.58384   0.00000  Uiso   1.00
H672   H     0.67029   0.53924   0.78970   0.00000  Uiso   1.00
H673   H     0.99639   0.46079   0.71027   0.00000  Uiso   1.00
H674   H     0.96289   0.60244   0.93547   0.00000  Uiso   1.00
H675   H     0.99759   0.59880   0.51557   0.00000  Uiso   1.00
H676   H     0.80683   0.46420   0.57987   0.00000  Uiso   1.00
H677   H     0.68424   0.45555   0.90015   0.00000  Uiso   1.00
H678   H     0.98125   0.44836   0.99274   0.00000  Uiso   1.00
H679   H     0.88749   0.57386   0.88181   0.00000  Uiso   1.00
N680   N     0.98241   0.51407   0.76416   0.00000  Uiso   1.00
N681   N     0.68426   0.48593   0.73584   0.00000  Uiso   1.00
N682   N     0.70977   0.48357   0.56424   0.00000  Uiso   1.00
O683   O     0.79464   0.57141   0.74633   0.00000  Uiso   1.00
O684   O     0.89524   0.58089   0.75587   0.00000  Uiso   1.00
O685   O     0.75848   0.49293   0.81840   0.00000  Uiso   1.00
O686   O     0.85908   0.50241   0.82793   0.00000  Uiso   1.00
O687   O     0.77142   0.41911   0.74414   0.00000  Uiso   1.00
O688   O     0.87203   0.42859   0.75367   0.00000  Uiso   1.00
O689   O     0.80758   0.49759   0.67207   0.00000  Uiso   1.00
O690   O     0.90819   0.50707   0.68161   0.00000  Uiso   1.00
C691   C     0.18185   0.93332   0.75039   0.00000  Uiso   1.00
C692   C     0.11176   0.83177   0.90384   0.00000  Uiso   1.00
C693   C     0.18857   0.98902   0.75190   0.00000  Uiso   1.00
C694   C     0.13306   0.83235   0.84739   0.00000  Uiso   1.00
C695   C     0.14618   0.67815   0.73849   0.00000  Uiso   1.00
C696   C     0.15247   0.73349   0.74619   0.00000  Uiso   1.00
C697   C     0.20062   0.83753   0.65288   0.00000  Uiso   1.00
C698   C     0.28746   0.90427   0.52986   0.00000  Uiso   1.00
C699   C     0.22108   0.84886   0.59810   0.00000  Uiso   1.00
C700   C     0.05041   0.80510   0.92467   0.00000  Uiso   1.00
C701   C     0.03012   0.79949   0.97733   0.00000  Uiso   1.00
C702   C     0.13610   0.84036   0.98994   0.00000  Uiso   1.00
C703   C     0.07147   0.81665   0.51049   0.00000  Uiso   1.00
C704   C     0.15307   0.85376   0.93715   0.00000  Uiso   1.00
C705   C     0.18422   0.85303   0.51925   0.00000  Uiso   1.00
C706   C     0.24185   0.88838   0.99969   0.00000  Uiso   1.00
C707   C     0.25312   0.90778   0.95048   0.00000  Uiso   1.00
C708   C     0.20995   0.89018   0.91936   0.00000  Uiso   1.00
C709   C     0.17829   0.82998   0.56643   0.00000  Uiso   1.00
C710   C     0.27611   0.88589   0.57959   0.00000  Uiso   1.00
Cl711  Cl    0.08389   0.97854   0.70826   0.00000  Uiso   1.00
Cu712  Cu    0.10710   0.82772   0.74436   0.00000  Uiso   1.00
Cu713  Cu    0.22623   0.83895   0.75565   0.00000  Uiso   1.00
H714   H     0.30931   0.90157   0.60392   0.00000  Uiso   1.00
H715   H     0.22806   0.67885   0.76696   0.00000  Uiso   1.00
H716   H     0.04108   0.78097   0.58001   0.00000  Uiso   1.00
H717   H     0.06596   0.84874   0.58384   0.00000  Uiso   1.00
H718   H     0.00362   0.87257   0.78970   0.00000  Uiso   1.00
H719   H     0.32972   0.79413   0.71027   0.00000  Uiso   1.00
H720   H     0.29622   0.93577   0.93547   0.00000  Uiso   1.00
H721   H     0.33092   0.93213   0.51557   0.00000  Uiso   1.00
H722   H     0.14016   0.79753   0.57987   0.00000  Uiso   1.00
H723   H     0.01757   0.78888   0.90015   0.00000  Uiso   1.00
H724   H     0.31458   0.78169   0.99274   0.00000  Uiso   1.00
H725   H     0.22083   0.90720   0.88181   0.00000  Uiso   1.00
N726   N     0.31574   0.84741   0.76416   0.00000  Uiso   1.00
N727   N     0.01759   0.81926   0.73584   0.00000  Uiso   1.00
N728   N     0.04310   0.81690   0.56424   0.00000  Uiso   1.00
O729   O     0.12797   0.90474   0.74633   0.00000  Uiso   1.00
O730   O     0.22858   0.91422   0.75587   0.00000  Uiso   1.00
O731   O     0.09181   0.82627   0.81840   0.00000  Uiso   1.00
O732   O     0.19242   0.83575   0.82793   0.00000  Uiso   1.00
O733   O     0.10476   0.75245   0.74414   0.00000  Uiso   1.00
O734   O     0.20536   0.76193   0.75367   0.00000  Uiso   1.00
O735   O     0.14092   0.83092   0.67207   0.00000  Uiso   1.00
O736   O     0.24152   0.84040   0.68161   0.00000  Uiso   1.00
C737   C     0.51518   0.93332   0.75039   0.00000  Uiso   1.00
C738   C     0.44509   0.83177   0.90384   0.00000  Uiso   1.00
C739   C     0.52191   0.98902   0.75190   0.00000  Uiso   1.00
C740   C     0.46639   0.83235   0.84739   0.00000  Uiso   1.00
C741   C     0.47951   0.67815   0.73849   0.00000  Uiso   1.00
C742   C     0.48580   0.73349   0.74619   0.00000  Uiso   1.00
C743   C     0.53395   0.83753   0.65288   0.00000  Uiso   1.00
C744   C     0.62079   0.90427   0.52986   0.00000  Uiso   1.00
C745   C     0.55441   0.84886   0.59810   0.00000  Uiso   1.00
C746   C     0.38374   0.80510   0.92467   0.00000  Uiso   1.00
C747   C     0.36345   0.79949   0.97733   0.00000  Uiso   1.00
C748   C     0.46943   0.84036   0.98994   0.00000  Uiso   1.00
C749   C     0.40480   0.81665   0.51049   0.00000  Uiso   1.00
C750   C     0.48640   0.85376   0.93715   0.00000  Uiso   1.00
C751   C     0.51756   0.85303   0.51925   0.00000  Uiso   1.00
C752   C     0.57518   0.88838   0.99969   0.00000  Uiso   1.00
C753   C     0.58645   0.90778   0.95048   0.00000  Uiso   1.00
C754   C     0.54328   0.89018   0.91936   0.00000  Uiso   1.00
C755   C     0.51162   0.82998   0.56643   0.00000  Uiso   1.00
C756   C     0.60944   0.88589   0.57959   0.00000  Uiso   1.00
Cl757  Cl    0.41722   0.97854   0.70826   0.00000  Uiso   1.00
Cu758  Cu    0.44043   0.82772   0.74436   0.00000  Uiso   1.00
Cu759  Cu    0.55957   0.83895   0.75565   0.00000  Uiso   1.00
H760   H     0.64265   0.90157   0.60392   0.00000  Uiso   1.00
H761   H     0.56139   0.67885   0.76696   0.00000  Uiso   1.00
H762   H     0.37442   0.78097   0.58001   0.00000  Uiso   1.00
H763   H     0.39930   0.84874   0.58384   0.00000  Uiso   1.00
H764   H     0.33696   0.87257   0.78970   0.00000  Uiso   1.00
H765   H     0.66306   0.79413   0.71027   0.00000  Uiso   1.00
H766   H     0.62955   0.93577   0.93547   0.00000  Uiso   1.00
H767   H     0.66426   0.93213   0.51557   0.00000  Uiso   1.00
H768   H     0.47349   0.79753   0.57987   0.00000  Uiso   1.00
H769   H     0.35091   0.78888   0.90015   0.00000  Uiso   1.00
H770   H     0.64792   0.78169   0.99274   0.00000  Uiso   1.00
H771   H     0.55416   0.90720   0.88181   0.00000  Uiso   1.00
N772   N     0.64908   0.84741   0.76416   0.00000  Uiso   1.00
N773   N     0.35092   0.81926   0.73584   0.00000  Uiso   1.00
N774   N     0.37643   0.81690   0.56424   0.00000  Uiso   1.00
O775   O     0.46131   0.90474   0.74633   0.00000  Uiso   1.00
O776   O     0.56191   0.91422   0.75587   0.00000  Uiso   1.00
O777   O     0.42515   0.82627   0.81840   0.00000  Uiso   1.00
O778   O     0.52575   0.83575   0.82793   0.00000  Uiso   1.00
O779   O     0.43809   0.75245   0.74414   0.00000  Uiso   1.00
O780   O     0.53869   0.76193   0.75367   0.00000  Uiso   1.00
O781   O     0.47425   0.83092   0.67207   0.00000  Uiso   1.00
O782   O     0.57485   0.84040   0.68161   0.00000  Uiso   1.00
C783   C     0.84851   0.93332   0.75039   0.00000  Uiso   1.00
C784   C     0.77842   0.83177   0.90384   0.00000  Uiso   1.00
C785   C     0.85524   0.98902   0.75190   0.00000  Uiso   1.00
C786   C     0.79972   0.83235   0.84739   0.00000  Uiso   1.00
C787   C     0.81284   0.67815   0.73849   0.00000  Uiso   1.00
C788   C     0.81914   0.73349   0.74619   0.00000  Uiso   1.00
C789   C     0.86729   0.83753   0.65288   0.00000  Uiso   1.00
C790   C     0.95412   0.90427   0.52986   0.00000  Uiso   1.00
C791   C     0.88775   0.84886   0.59810   0.00000  Uiso   1.00
C792   C     0.71707   0.80510   0.92467   0.00000  Uiso   1.00
C793   C     0.69678   0.79949   0.97733   0.00000  Uiso   1.00
C794   C     0.80276   0.84036   0.98994   0.00000  Uiso   1.00
C795   C     0.73814   0.81665   0.51049   0.00000  Uiso   1.00
C796   C     0.81973   0.85376   0.93715   0.00000  Uiso   1.00
C797   C     0.85089   0.85303   0.51925   0.00000  Uiso   1.00
C798   C     0.90851   0.88838   0.99969   0.00000  Uiso   1.00
C799   C     0.91979   0.90778   0.95048   0.00000  Uiso   1.00
C800   C     0.87662   0.89018   0.91936   0.00000  Uiso   1.00
C801   C     0.84496   0.82998   0.56643   0.00000  Uiso   1.00
C802   C     0.94278   0.88589   0.57959   0.00000  Uiso   1.00
Cl803  Cl    0.75055   0.97854   0.70826   0.00000  Uiso   1.00
Cu804  Cu    0.77377   0.82772   0.74436   0.00000  Uiso   1.00
Cu805  Cu    0.89290   0.83895   0.75565   0.00000  Uiso   1.00
H806   H     0.97598   0.90157   0.60392   0.00000  Uiso   1.00
H807   H     0.89473   0.67885   0.76696   0.00000  Uiso   1.00
H808   H     0.70775   0.78097   0.58001   0.00000  Uiso   1.00
H809   H     0.73263   0.84874   0.58384   0.00000  Uiso   1.00
H810   H     0.67029   0.87257   0.78970   0.00000  Uiso   1.00
H811   H     0.99639   0.79413   0.71027   0.00000  Uiso   1.00
H812   H     0.96289   0.93577   0.93547   0.00000  Uiso   1.00
H813   H     0.99759   0.93213   0.51557   0.00000  Uiso   1.00
H814   H     0.80683   0.79753   0.57987   0.00000  Uiso   1.00
H815   H     0.68424   0.78888   0.90015   0.00000  Uiso   1.00
H816   H     0.98125   0.78169   0.99274   0.00000  Uiso   1.00
H817   H     0.88749   0.90720   0.88181   0.00000  Uiso   1.00
N818   N     0.98241   0.84741   0.76416   0.00000  Uiso   1.00
N819   N     0.68426   0.81926   0.73584   0.00000  Uiso   1.00
N820   N     0.70977   0.81690   0.56424   0.00000  Uiso   1.00
O821   O     0.79464   0.90474   0.74633   0.00000  Uiso   1.00
O822   O     0.89524   0.91422   0.75587   0.00000  Uiso   1.00
O823   O     0.75848   0.82627   0.81840   0.00000  Uiso   1.00
O824   O     0.85908   0.83575   0.82793   0.00000  Uiso   1.00
O825   O     0.77142   0.75245   0.74414   0.00000  Uiso   1.00
O826   O     0.87203   0.76193   0.75367   0.00000  Uiso   1.00
O827   O     0.80758   0.83092   0.67207   0.00000  Uiso   1.00
O828   O     0.90819   0.84040   0.68161   0.00000  Uiso   1.00
loop_
_geom_bond_atom_site_label_1
_geom_bond_atom_site_label_2
_geom_bond_distance
_geom_bond_site_symmetry_2
_ccdc_geom_bond_type
C1     O39     1.286   .     A
C1     O40     1.291   .     A
C1     C3      1.430   .     S
C2     C4      1.476   .     S
C2     C14     1.420   .     A
C2     C10     1.399   .     A
C3     C143    1.339   .     S
C3     H163    1.088   .     S
C4     O42     1.296   .     A
C4     O41     1.302   .     A
C5     C6      1.428   .     S
C5     C279    1.339   1_545 S
C5     Cl297   1.782   1_545 S
C6     O44     1.292   .     A
C6     O43     1.283   .     A
C7     O45     1.294   .     A
C7     O46     1.300   .     A
C7     C9      1.462   .     S
C8     C20     1.394   .     A
C8     H31     1.084   .     S
C8     C430    1.405   1_554 S
C9     C20     1.398   .     A
C9     C19     1.396   .     A
C10    H33     1.083   .     S
C10    C11     1.386   .     A
C11    C427    1.396   .     S
C11    H126    1.084   1_455 S
C12    C14     1.423   .     A
C12    C427    1.435   .     S
C12    C429    1.429   .     S
C13    N38     1.435   .     S
C13    C426    1.435   1_554 S
C13    C425    1.396   1_554 S
C14    C18     1.413   .     A
C15    C19     1.401   .     A
C15    C426    1.429   1_554 S
C15    C430    1.420   1_554 S
C16    C17     1.391   .     A
C16    C429    1.420   .     S
C16    C422    1.405   .     S
C17    C18     1.387   .     A
C17    H30     1.084   .     S
C18    H35     1.080   .     S
C19    H32     1.075   .     S
C20    H24     1.083   .     S
Cl21   C143    1.782   .     S
Cu22   N37     2.018   .     S
Cu22   O43     1.959   .     S
Cu22   O41     1.931   .     S
Cu22   O39     1.964   .     S
Cu22   O45     1.911   .     S
Cu22   Cu23    2.686   .     S
Cu23   O46     1.931   .     S
Cu23   O42     1.911   .     S
Cu23   O40     1.959   .     S
Cu23   N36     2.018   .     S
Cu23   O44     1.964   .     S
H25    C279    1.088   1_545 S
H26    N38     1.045   .     S
H27    N38     1.045   .     S
H28    N128    1.029   1_455 S
H29    N83     1.029   .     S
H34    C57     1.084   .     S
N36    H74     1.029   .     S
N36    N83     1.285   .     S
N37    N128    1.285   1_455 S
N37    H121    1.029   1_455 S
C47    O85     1.286   .     A
C47    O86     1.291   .     A
C47    C49     1.430   .     S
C48    C50     1.476   .     S
C48    C60     1.420   .     A
C48    C56     1.399   .     A
C49    C189    1.339   .     S
C49    H209    1.088   .     S
C50    O88     1.296   .     A
C50    O87     1.302   .     A
C51    C52     1.428   .     S
C51    C325    1.339   1_545 S
C51    Cl343   1.782   1_545 S
C52    O90     1.292   .     A
C52    O89     1.283   .     A
C53    O91     1.294   .     A
C53    O92     1.300   .     A
C53    C55     1.462   .     S
C54    C66     1.394   .     A
C54    H77     1.084   .     S
C54    C476    1.405   1_554 S
C55    C66     1.398   .     A
C55    C65     1.396   .     A
C56    H79     1.083   .     S
C56    C57     1.386   .     A
C57    C473    1.396   .     S
C58    C60     1.423   .     A
C58    C473    1.435   .     S
C58    C475    1.429   .     S
C59    N84     1.435   .     S
C59    C472    1.435   1_554 S
C59    C471    1.396   1_554 S
C60    C64     1.413   .     A
C61    C65     1.401   .     A
C61    C472    1.429   1_554 S
C61    C476    1.420   1_554 S
C62    C63     1.391   .     A
C62    C475    1.420   .     S
C62    C468    1.405   .     S
C63    C64     1.387   .     A
C63    H76     1.084   .     S
C64    H81     1.080   .     S
C65    H78     1.075   .     S
C66    H70     1.083   .     S
Cl67   C189    1.782   .     S
Cu68   N83     2.018   .     S
Cu68   O89     1.959   .     S
Cu68   O87     1.931   .     S
Cu68   O85     1.964   .     S
Cu68   O91     1.911   .     S
Cu68   Cu69    2.686   .     S
Cu69   O92     1.931   .     S
Cu69   O88     1.911   .     S
Cu69   O86     1.959   .     S
Cu69   N82     2.018   .     S
Cu69   O90     1.964   .     S
H71    C325    1.088   1_545 S
H72    N84     1.045   .     S
H73    N84     1.045   .     S
H75    N129    1.029   .     S
H80    C103    1.084   .     S
N82    H120    1.029   .     S
N82    N129    1.285   .     S
C93    O131    1.286   .     A
C93    O132    1.291   .     A
C93    C95     1.430   .     S
C94    C96     1.476   .     S
C94    C106    1.420   .     A
C94    C102    1.399   .     A
C95    C235    1.339   .     S
C95    H255    1.088   .     S
C96    O134    1.296   .     A
C96    O133    1.302   .     A
C97    C98     1.428   .     S
C97    C371    1.339   1_545 S
C97    Cl389   1.782   1_545 S
C98    O136    1.292   .     A
C98    O135    1.283   .     A
C99    O137    1.294   .     A
C99    O138    1.300   .     A
C99    C101    1.462   .     S
C100   C112    1.394   .     A
C100   H123    1.084   .     S
C100   C522    1.405   1_554 S
C101   C112    1.398   .     A
C101   C111    1.396   .     A
C102   H125    1.083   .     S
C102   C103    1.386   .     A
C103   C519    1.396   .     S
C104   C106    1.423   .     A
C104   C519    1.435   .     S
C104   C521    1.429   .     S
C105   N130    1.435   .     S
C105   C518    1.435   1_554 S
C105   C517    1.396   1_554 S
C106   C110    1.413   .     A
C107   C111    1.401   .     A
C107   C518    1.429   1_554 S
C107   C522    1.420   1_554 S
C108   C109    1.391   .     A
C108   C521    1.420   .     S
C108   C514    1.405   .     S
C109   C110    1.387   .     A
C109   H122    1.084   .     S
C110   H127    1.080   .     S
C111   H124    1.075   .     S
C112   H116    1.083   .     S
Cl113  C235    1.782   .     S
Cu114  N129    2.018   .     S
Cu114  O135    1.959   .     S
Cu114  O133    1.931   .     S
Cu114  O131    1.964   .     S
Cu114  O137    1.911   .     S
Cu114  Cu115   2.686   .     S
Cu115  O138    1.931   .     S
Cu115  O134    1.911   .     S
Cu115  O132    1.959   .     S
Cu115  N128    2.018   .     S
Cu115  O136    1.964   .     S
H117   C371    1.088   1_545 S
H118   N130    1.045   .     S
H119   N130    1.045   .     S
H121   N37     1.029   1_655 S
H126   C11     1.084   1_655 S
N128   H28     1.029   1_655 S
N128   N37     1.285   1_655 S
C139   O177    1.286   .     A
C139   O178    1.291   .     A
C139   C141    1.430   .     S
C140   C142    1.476   .     S
C140   C152    1.420   .     A
C140   C148    1.399   .     A
C141   C281    1.339   .     S
C141   H301    1.088   .     S
C142   O180    1.296   .     A
C142   O179    1.302   .     A
C143   C144    1.428   .     S
C144   O182    1.292   .     A
C144   O181    1.283   .     A
C145   O183    1.294   .     A
C145   O184    1.300   .     A
C145   C147    1.462   .     S
C146   C158    1.394   .     A
C146   H169    1.084   .     S
C146   C568    1.405   1_554 S
C147   C158    1.398   .     A
C147   C157    1.396   .     A
C148   H171    1.083   .     S
C148   C149    1.386   .     A
C149   C565    1.396   .     S
C149   H264    1.084   1_455 S
C150   C152    1.423   .     A
C150   C565    1.435   .     S
C150   C567    1.429   .     S
C151   N176    1.435   .     S
C151   C564    1.435   1_554 S
C151   C563    1.396   1_554 S
C152   C156    1.413   .     A
C153   C157    1.401   .     A
C153   C564    1.429   1_554 S
C153   C568    1.420   1_554 S
C154   C155    1.391   .     A
C154   C567    1.420   .     S
C154   C560    1.405   .     S
C155   C156    1.387   .     A
C155   H168    1.084   .     S
C156   H173    1.080   .     S
C157   H170    1.075   .     S
C158   H162    1.083   .     S
Cl159  C281    1.782   .     S
Cu160  N175    2.018   .     S
Cu160  O181    1.959   .     S
Cu160  O179    1.931   .     S
Cu160  O177    1.964   .     S
Cu160  O183    1.911   .     S
Cu160  Cu161   2.686   .     S
Cu161  O184    1.931   .     S
Cu161  O180    1.911   .     S
Cu161  O178    1.959   .     S
Cu161  N174    2.018   .     S
Cu161  O182    1.964   .     S
H164   N176    1.045   .     S
H165   N176    1.045   .     S
H166   N266    1.029   1_455 S
H167   N221    1.029   .     S
H172   C195    1.084   .     S
N174   H212    1.029   .     S
N174   N221    1.285   .     S
N175   N266    1.285   1_455 S
N175   H259    1.029   1_455 S
C185   O223    1.286   .     A
C185   O224    1.291   .     A
C185   C187    1.430   .     S
C186   C188    1.476   .     S
C186   C198    1.420   .     A
C186   C194    1.399   .     A
C187   C327    1.339   .     S
C187   H347    1.088   .     S
C188   O226    1.296   .     A
C188   O225    1.302   .     A
C189   C190    1.428   .     S
C190   O228    1.292   .     A
C190   O227    1.283   .     A
C191   O229    1.294   .     A
C191   O230    1.300   .     A
C191   C193    1.462   .     S
C192   C204    1.394   .     A
C192   H215    1.084   .     S
C192   C614    1.405   1_554 S
C193   C204    1.398   .     A
C193   C203    1.396   .     A
C194   H217    1.083   .     S
C194   C195    1.386   .     A
C195   C611    1.396   .     S
C196   C198    1.423   .     A
C196   C611    1.435   .     S
C196   C613    1.429   .     S
C197   N222    1.435   .     S
C197   C610    1.435   1_554 S
C197   C609    1.396   1_554 S
C198   C202    1.413   .     A
C199   C203    1.401   .     A
C199   C610    1.429   1_554 S
C199   C614    1.420   1_554 S
C200   C201    1.391   .     A
C200   C613    1.420   .     S
C200   C606    1.405   .     S
C201   C202    1.387   .     A
C201   H214    1.084   .     S
C202   H219    1.080   .     S
C203   H216    1.075   .     S
C204   H208    1.083   .     S
Cl205  C327    1.782   .     S
Cu206  N221    2.018   .     S
Cu206  O227    1.959   .     S
Cu206  O225    1.931   .     S
Cu206  O223    1.964   .     S
Cu206  O229    1.911   .     S
Cu206  Cu207   2.686   .     S
Cu207  O230    1.931   .     S
Cu207  O226    1.911   .     S
Cu207  O224    1.959   .     S
Cu207  N220    2.018   .     S
Cu207  O228    1.964   .     S
H210   N222    1.045   .     S
H211   N222    1.045   .     S
H213   N267    1.029   .     S
H218   C241    1.084   .     S
N220   H258    1.029   .     S
N220   N267    1.285   .     S
C231   O269    1.286   .     A
C231   O270    1.291   .     A
C231   C233    1.430   .     S
C232   C234    1.476   .     S
C232   C244    1.420   .     A
C232   C240    1.399   .     A
C233   C373    1.339   .     S
C233   H393    1.088   .     S
C234   O272    1.296   .     A
C234   O271    1.302   .     A
C235   C236    1.428   .     S
C236   O274    1.292   .     A
C236   O273    1.283   .     A
C237   O275    1.294   .     A
C237   O276    1.300   .     A
C237   C239    1.462   .     S
C238   C250    1.394   .     A
C238   H261    1.084   .     S
C238   C660    1.405   1_554 S
C239   C250    1.398   .     A
C239   C249    1.396   .     A
C240   H263    1.083   .     S
C240   C241    1.386   .     A
C241   C657    1.396   .     S
C242   C244    1.423   .     A
C242   C657    1.435   .     S
C242   C659    1.429   .     S
C243   N268    1.435   .     S
C243   C656    1.435   1_554 S
C243   C655    1.396   1_554 S
C244   C248    1.413   .     A
C245   C249    1.401   .     A
C245   C656    1.429   1_554 S
C245   C660    1.420   1_554 S
C246   C247    1.391   .     A
C246   C659    1.420   .     S
C246   C652    1.405   .     S
C247   C248    1.387   .     A
C247   H260    1.084   .     S
C248   H265    1.080   .     S
C249   H262    1.075   .     S
C250   H254    1.083   .     S
Cl251  C373    1.782   .     S
Cu252  N267    2.018   .     S
Cu252  O273    1.959   .     S
Cu252  O271    1.931   .     S
Cu252  O269    1.964   .     S
Cu252  O275    1.911   .     S
Cu252  Cu253   2.686   .     S
Cu253  O276    1.931   .     S
Cu253  O272    1.911   .     S
Cu253  O270    1.959   .     S
Cu253  N266    2.018   .     S
Cu253  O274    1.964   .     S
H256   N268    1.045   .     S
H257   N268    1.045   .     S
H259   N175    1.029   1_655 S
H264   C149    1.084   1_655 S
N266   H166    1.029   1_655 S
N266   N175    1.285   1_655 S
C277   O315    1.286   .     A
C277   O316    1.291   .     A
C277   C279    1.430   .     S
C278   C280    1.476   .     S
C278   C290    1.420   .     A
C278   C286    1.399   .     A
C279   C5      1.339   1_565 S
C279   H25     1.088   1_565 S
C280   O318    1.296   .     A
C280   O317    1.302   .     A
C281   C282    1.428   .     S
C282   O320    1.292   .     A
C282   O319    1.283   .     A
C283   O321    1.294   .     A
C283   O322    1.300   .     A
C283   C285    1.462   .     S
C284   C296    1.394   .     A
C284   H307    1.084   .     S
C284   C706    1.405   1_554 S
C285   C296    1.398   .     A
C285   C295    1.396   .     A
C286   H309    1.083   .     S
C286   C287    1.386   .     A
C287   C703    1.396   .     S
C287   H402    1.084   1_455 S
C288   C290    1.423   .     A
C288   C703    1.435   .     S
C288   C705    1.429   .     S
C289   N314    1.435   .     S
C289   C702    1.435   1_554 S
C289   C701    1.396   1_554 S
C290   C294    1.413   .     A
C291   C295    1.401   .     A
C291   C702    1.429   1_554 S
C291   C706    1.420   1_554 S
C292   C293    1.391   .     A
C292   C705    1.420   .     S
C292   C698    1.405   .     S
C293   C294    1.387   .     A
C293   H306    1.084   .     S
C294   H311    1.080   .     S
C295   H308    1.075   .     S
C296   H300    1.083   .     S
Cl297  C5      1.782   1_565 S
Cu298  N313    2.018   .     S
Cu298  O319    1.959   .     S
Cu298  O317    1.931   .     S
Cu298  O315    1.964   .     S
Cu298  O321    1.911   .     S
Cu298  Cu299   2.686   .     S
Cu299  O322    1.931   .     S
Cu299  O318    1.911   .     S
Cu299  O316    1.959   .     S
Cu299  N312    2.018   .     S
Cu299  O320    1.964   .     S
H302   N314    1.045   .     S
H303   N314    1.045   .     S
H304   N404    1.029   1_455 S
H305   N359    1.029   .     S
H310   C333    1.084   .     S
N312   H350    1.029   .     S
N312   N359    1.285   .     S
N313   N404    1.285   1_455 S
N313   H397    1.029   1_455 S
C323   O361    1.286   .     A
C323   O362    1.291   .     A
C323   C325    1.430   .     S
C324   C326    1.476   .     S
C324   C336    1.420   .     A
C324   C332    1.399   .     A
C325   C51     1.339   1_565 S
C325   H71     1.088   1_565 S
C326   O364    1.296   .     A
C326   O363    1.302   .     A
C327   C328    1.428   .     S
C328   O366    1.292   .     A
C328   O365    1.283   .     A
C329   O367    1.294   .     A
C329   O368    1.300   .     A
C329   C331    1.462   .     S
C330   C342    1.394   .     A
C330   H353    1.084   .     S
C330   C752    1.405   1_554 S
C331   C342    1.398   .     A
C331   C341    1.396   .     A
C332   H355    1.083   .     S
C332   C333    1.386   .     A
C333   C749    1.396   .     S
C334   C336    1.423   .     A
C334   C749    1.435   .     S
C334   C751    1.429   .     S
C335   N360    1.435   .     S
C335   C748    1.435   1_554 S
C335   C747    1.396   1_554 S
C336   C340    1.413   .     A
C337   C341    1.401   .     A
C337   C748    1.429   1_554 S
C337   C752    1.420   1_554 S
C338   C339    1.391   .     A
C338   C751    1.420   .     S
C338   C744    1.405   .     S
C339   C340    1.387   .     A
C339   H352    1.084   .     S
C340   H357    1.080   .     S
C341   H354    1.075   .     S
C342   H346    1.083   .     S
Cl343  C51     1.782   1_565 S
Cu344  N359    2.018   .     S
Cu344  O365    1.959   .     S
Cu344  O363    1.931   .     S
Cu344  O361    1.964   .     S
Cu344  O367    1.911   .     S
Cu344  Cu345   2.686   .     S
Cu345  O368    1.931   .     S
Cu345  O364    1.911   .     S
Cu345  O362    1.959   .     S
Cu345  N358    2.018   .     S
Cu345  O366    1.964   .     S
H348   N360    1.045   .     S
H349   N360    1.045   .     S
H351   N405    1.029   .     S
H356   C379    1.084   .     S
N358   H396    1.029   .     S
N358   N405    1.285   .     S
C369   O407    1.286   .     A
C369   O408    1.291   .     A
C369   C371    1.430   .     S
C370   C372    1.476   .     S
C370   C382    1.420   .     A
C370   C378    1.399   .     A
C371   C97     1.339   1_565 S
C371   H117    1.088   1_565 S
C372   O410    1.296   .     A
C372   O409    1.302   .     A
C373   C374    1.428   .     S
C374   O412    1.292   .     A
C374   O411    1.283   .     A
C375   O413    1.294   .     A
C375   O414    1.300   .     A
C375   C377    1.462   .     S
C376   C388    1.394   .     A
C376   H399    1.084   .     S
C376   C798    1.405   1_554 S
C377   C388    1.398   .     A
C377   C387    1.396   .     A
C378   H401    1.083   .     S
C378   C379    1.386   .     A
C379   C795    1.396   .     S
C380   C382    1.423   .     A
C380   C795    1.435   .     S
C380   C797    1.429   .     S
C381   N406    1.435   .     S
C381   C794    1.435   1_554 S
C381   C793    1.396   1_554 S
C382   C386    1.413   .     A
C383   C387    1.401   .     A
C383   C794    1.429   1_554 S
C383   C798    1.420   1_554 S
C384   C385    1.391   .     A
C384   C797    1.420   .     S
C384   C790    1.405   .     S
C385   C386    1.387   .     A
C385   H398    1.084   .     S
C386   H403    1.080   .     S
C387   H400    1.075   .     S
C388   H392    1.083   .     S
Cl389  C97     1.782   1_565 S
Cu390  N405    2.018   .     S
Cu390  O411    1.959   .     S
Cu390  O409    1.931   .     S
Cu390  O407    1.964   .     S
Cu390  O413    1.911   .     S
Cu390  Cu391   2.686   .     S
Cu391  O414    1.931   .     S
Cu391  O410    1.911   .     S
Cu391  O408    1.959   .     S
Cu391  N404    2.018   .     S
Cu391  O412    1.964   .     S
H394   N406    1.045   .     S
H395   N406    1.045   .     S
H397   N313    1.029   1_655 S
H402   C287    1.084   1_655 S
N404   H304    1.029   1_655 S
N404   N313    1.285   1_655 S
C415   O453    1.286   .     A
C415   O454    1.291   .     A
C415   C417    1.430   .     S
C416   C418    1.476   .     S
C416   C428    1.420   .     A
C416   C424    1.399   .     A
C417   C557    1.339   .     S
C417   H577    1.088   .     S
C418   O456    1.296   .     A
C418   O455    1.302   .     A
C419   C420    1.428   .     S
C419   C693    1.339   1_545 S
C419   Cl711   1.782   1_545 S
C420   O458    1.292   .     A
C420   O457    1.283   .     A
C421   O459    1.294   .     A
C421   O460    1.300   .     A
C421   C423    1.462   .     S
C422   C434    1.394   .     A
C422   H445    1.084   .     S
C423   C434    1.398   .     A
C423   C433    1.396   .     A
C424   H447    1.083   .     S
C424   C425    1.386   .     A
C425   C13     1.396   1_556 S
C425   H540    1.084   1_455 S
C426   C428    1.423   .     A
C426   C13     1.435   1_556 S
C426   C15     1.429   1_556 S
C427   N452    1.435   .     S
C428   C432    1.413   .     A
C429   C433    1.401   .     A
C430   C431    1.391   .     A
C430   C15     1.420   1_556 S
C430   C8      1.405   1_556 S
C431   C432    1.387   .     A
C431   H444    1.084   .     S
C432   H449    1.080   .     S
C433   H446    1.075   .     S
C434   H438    1.083   .     S
Cl435  C557    1.782   .     S
Cu436  N451    2.018   .     S
Cu436  O457    1.959   .     S
Cu436  O455    1.931   .     S
Cu436  O453    1.964   .     S
Cu436  O459    1.911   .     S
Cu436  Cu437   2.686   .     S
Cu437  O460    1.931   .     S
Cu437  O456    1.911   .     S
Cu437  O454    1.959   .     S
Cu437  N450    2.018   .     S
Cu437  O458    1.964   .     S
H439   C693    1.088   1_545 S
H440   N452    1.045   .     S
H441   N452    1.045   .     S
H442   N542    1.029   1_455 S
H443   N497    1.029   .     S
H448   C471    1.084   .     S
N450   H488    1.029   .     S
N450   N497    1.285   .     S
N451   N542    1.285   1_455 S
N451   H535    1.029   1_455 S
C461   O499    1.286   .     A
C461   O500    1.291   .     A
C461   C463    1.430   .     S
C462   C464    1.476   .     S
C462   C474    1.420   .     A
C462   C470    1.399   .     A
C463   C603    1.339   .     S
C463   H623    1.088   .     S
C464   O502    1.296   .     A
C464   O501    1.302   .     A
C465   C466    1.428   .     S
C465   C739    1.339   1_545 S
C465   Cl757   1.782   1_545 S
C466   O504    1.292   .     A
C466   O503    1.283   .     A
C467   O505    1.294   .     A
C467   O506    1.300   .     A
C467   C469    1.462   .     S
C468   C480    1.394   .     A
C468   H491    1.084   .     S
C469   C480    1.398   .     A
C469   C479    1.396   .     A
C470   H493    1.083   .     S
C470   C471    1.386   .     A
C471   C59     1.396   1_556 S
C472   C474    1.423   .     A
C472   C59     1.435   1_556 S
C472   C61     1.429   1_556 S
C473   N498    1.435   .     S
C474   C478    1.413   .     A
C475   C479    1.401   .     A
C476   C477    1.391   .     A
C476   C61     1.420   1_556 S
C476   C54     1.405   1_556 S
C477   C478    1.387   .     A
C477   H490    1.084   .     S
C478   H495    1.080   .     S
C479   H492    1.075   .     S
C480   H484    1.083   .     S
Cl481  C603    1.782   .     S
Cu482  N497    2.018   .     S
Cu482  O503    1.959   .     S
Cu482  O501    1.931   .     S
Cu482  O499    1.964   .     S
Cu482  O505    1.911   .     S
Cu482  Cu483   2.686   .     S
Cu483  O506    1.931   .     S
Cu483  O502    1.911   .     S
Cu483  O500    1.959   .     S
Cu483  N496    2.018   .     S
Cu483  O504    1.964   .     S
H485   C739    1.088   1_545 S
H486   N498    1.045   .     S
H487   N498    1.045   .     S
H489   N543    1.029   .     S
H494   C517    1.084   .     S
N496   H534    1.029   .     S
N496   N543    1.285   .     S
C507   O545    1.286   .     A
C507   O546    1.291   .     A
C507   C509    1.430   .     S
C508   C510    1.476   .     S
C508   C520    1.420   .     A
C508   C516    1.399   .     A
C509   C649    1.339   .     S
C509   H669    1.088   .     S
C510   O548    1.296   .     A
C510   O547    1.302   .     A
C511   C512    1.428   .     S
C511   C785    1.339   1_545 S
C511   Cl803   1.782   1_545 S
C512   O550    1.292   .     A
C512   O549    1.283   .     A
C513   O551    1.294   .     A
C513   O552    1.300   .     A
C513   C515    1.462   .     S
C514   C526    1.394   .     A
C514   H537    1.084   .     S
C515   C526    1.398   .     A
C515   C525    1.396   .     A
C516   H539    1.083   .     S
C516   C517    1.386   .     A
C517   C105    1.396   1_556 S
C518   C520    1.423   .     A
C518   C105    1.435   1_556 S
C518   C107    1.429   1_556 S
C519   N544    1.435   .     S
C520   C524    1.413   .     A
C521   C525    1.401   .     A
C522   C523    1.391   .     A
C522   C107    1.420   1_556 S
C522   C100    1.405   1_556 S
C523   C524    1.387   .     A
C523   H536    1.084   .     S
C524   H541    1.080   .     S
C525   H538    1.075   .     S
C526   H530    1.083   .     S
Cl527  C649    1.782   .     S
Cu528  N543    2.018   .     S
Cu528  O549    1.959   .     S
Cu528  O547    1.931   .     S
Cu528  O545    1.964   .     S
Cu528  O551    1.911   .     S
Cu528  Cu529   2.686   .     S
Cu529  O552    1.931   .     S
Cu529  O548    1.911   .     S
Cu529  O546    1.959   .     S
Cu529  N542    2.018   .     S
Cu529  O550    1.964   .     S
H531   C785    1.088   1_545 S
H532   N544    1.045   .     S
H533   N544    1.045   .     S
H535   N451    1.029   1_655 S
H540   C425    1.084   1_655 S
N542   H442    1.029   1_655 S
N542   N451    1.285   1_655 S
C553   O591    1.286   .     A
C553   O592    1.291   .     A
C553   C555    1.430   .     S
C554   C556    1.476   .     S
C554   C566    1.420   .     A
C554   C562    1.399   .     A
C555   C695    1.339   .     S
C555   H715    1.088   .     S
C556   O594    1.296   .     A
C556   O593    1.302   .     A
C557   C558    1.428   .     S
C558   O596    1.292   .     A
C558   O595    1.283   .     A
C559   O597    1.294   .     A
C559   O598    1.300   .     A
C559   C561    1.462   .     S
C560   C572    1.394   .     A
C560   H583    1.084   .     S
C561   C572    1.398   .     A
C561   C571    1.396   .     A
C562   H585    1.083   .     S
C562   C563    1.386   .     A
C563   C151    1.396   1_556 S
C563   H678    1.084   1_455 S
C564   C566    1.423   .     A
C564   C151    1.435   1_556 S
C564   C153    1.429   1_556 S
C565   N590    1.435   .     S
C566   C570    1.413   .     A
C567   C571    1.401   .     A
C568   C569    1.391   .     A
C568   C153    1.420   1_556 S
C568   C146    1.405   1_556 S
C569   C570    1.387   .     A
C569   H582    1.084   .     S
C570   H587    1.080   .     S
C571   H584    1.075   .     S
C572   H576    1.083   .     S
Cl573  C695    1.782   .     S
Cu574  N589    2.018   .     S
Cu574  O595    1.959   .     S
Cu574  O593    1.931   .     S
Cu574  O591    1.964   .     S
Cu574  O597    1.911   .     S
Cu574  Cu575   2.686   .     S
Cu575  O598    1.931   .     S
Cu575  O594    1.911   .     S
Cu575  O592    1.959   .     S
Cu575  N588    2.018   .     S
Cu575  O596    1.964   .     S
H578   N590    1.045   .     S
H579   N590    1.045   .     S
H580   N680    1.029   1_455 S
H581   N635    1.029   .     S
H586   C609    1.084   .     S
N588   H626    1.029   .     S
N588   N635    1.285   .     S
N589   N680    1.285   1_455 S
N589   H673    1.029   1_455 S
C599   O637    1.286   .     A
C599   O638    1.291   .     A
C599   C601    1.430   .     S
C600   C602    1.476   .     S
C600   C612    1.420   .     A
C600   C608    1.399   .     A
C601   C741    1.339   .     S
C601   H761    1.088   .     S
C602   O640    1.296   .     A
C602   O639    1.302   .     A
C603   C604    1.428   .     S
C604   O642    1.292   .     A
C604   O641    1.283   .     A
C605   O643    1.294   .     A
C605   O644    1.300   .     A
C605   C607    1.462   .     S
C606   C618    1.394   .     A
C606   H629    1.084   .     S
C607   C618    1.398   .     A
C607   C617    1.396   .     A
C608   H631    1.083   .     S
C608   C609    1.386   .     A
C609   C197    1.396   1_556 S
C610   C612    1.423   .     A
C610   C197    1.435   1_556 S
C610   C199    1.429   1_556 S
C611   N636    1.435   .     S
C612   C616    1.413   .     A
C613   C617    1.401   .     A
C614   C615    1.391   .     A
C614   C199    1.420   1_556 S
C614   C192    1.405   1_556 S
C615   C616    1.387   .     A
C615   H628    1.084   .     S
C616   H633    1.080   .     S
C617   H630    1.075   .     S
C618   H622    1.083   .     S
Cl619  C741    1.782   .     S
Cu620  N635    2.018   .     S
Cu620  O641    1.959   .     S
Cu620  O639    1.931   .     S
Cu620  O637    1.964   .     S
Cu620  O643    1.911   .     S
Cu620  Cu621   2.686   .     S
Cu621  O644    1.931   .     S
Cu621  O640    1.911   .     S
Cu621  O638    1.959   .     S
Cu621  N634    2.018   .     S
Cu621  O642    1.964   .     S
H624   N636    1.045   .     S
H625   N636    1.045   .     S
H627   N681    1.029   .     S
H632   C655    1.084   .     S
N634   H672    1.029   .     S
N634   N681    1.285   .     S
C645   O683    1.286   .     A
C645   O684    1.291   .     A
C645   C647    1.430   .     S
C646   C648    1.476   .     S
C646   C658    1.420   .     A
C646   C654    1.399   .     A
C647   C787    1.339   .     S
C647   H807    1.088   .     S
C648   O686    1.296   .     A
C648   O685    1.302   .     A
C649   C650    1.428   .     S
C650   O688    1.292   .     A
C650   O687    1.283   .     A
C651   O689    1.294   .     A
C651   O690    1.300   .     A
C651   C653    1.462   .     S
C652   C664    1.394   .     A
C652   H675    1.084   .     S
C653   C664    1.398   .     A
C653   C663    1.396   .     A
C654   H677    1.083   .     S
C654   C655    1.386   .     A
C655   C243    1.396   1_556 S
C656   C658    1.423   .     A
C656   C243    1.435   1_556 S
C656   C245    1.429   1_556 S
C657   N682    1.435   .     S
C658   C662    1.413   .     A
C659   C663    1.401   .     A
C660   C661    1.391   .     A
C660   C245    1.420   1_556 S
C660   C238    1.405   1_556 S
C661   C662    1.387   .     A
C661   H674    1.084   .     S
C662   H679    1.080   .     S
C663   H676    1.075   .     S
C664   H668    1.083   .     S
Cl665  C787    1.782   .     S
Cu666  N681    2.018   .     S
Cu666  O687    1.959   .     S
Cu666  O685    1.931   .     S
Cu666  O683    1.964   .     S
Cu666  O689    1.911   .     S
Cu666  Cu667   2.686   .     S
Cu667  O690    1.931   .     S
Cu667  O686    1.911   .     S
Cu667  O684    1.959   .     S
Cu667  N680    2.018   .     S
Cu667  O688    1.964   .     S
H670   N682    1.045   .     S
H671   N682    1.045   .     S
H673   N589    1.029   1_655 S
H678   C563    1.084   1_655 S
N680   H580    1.029   1_655 S
N680   N589    1.285   1_655 S
C691   O729    1.286   .     A
C691   O730    1.291   .     A
C691   C693    1.430   .     S
C692   C694    1.476   .     S
C692   C704    1.420   .     A
C692   C700    1.399   .     A
C693   C419    1.339   1_565 S
C693   H439    1.088   1_565 S
C694   O732    1.296   .     A
C694   O731    1.302   .     A
C695   C696    1.428   .     S
C696   O734    1.292   .     A
C696   O733    1.283   .     A
C697   O735    1.294   .     A
C697   O736    1.300   .     A
C697   C699    1.462   .     S
C698   C710    1.394   .     A
C698   H721    1.084   .     S
C699   C710    1.398   .     A
C699   C709    1.396   .     A
C700   H723    1.083   .     S
C700   C701    1.386   .     A
C701   C289    1.396   1_556 S
C701   H816    1.084   1_455 S
C702   C704    1.423   .     A
C702   C289    1.435   1_556 S
C702   C291    1.429   1_556 S
C703   N728    1.435   .     S
C704   C708    1.413   .     A
C705   C709    1.401   .     A
C706   C707    1.391   .     A
C706   C291    1.420   1_556 S
C706   C284    1.405   1_556 S
C707   C708    1.387   .     A
C707   H720    1.084   .     S
C708   H725    1.080   .     S
C709   H722    1.075   .     S
C710   H714    1.083   .     S
Cl711  C419    1.782   1_565 S
Cu712  N727    2.018   .     S
Cu712  O733    1.959   .     S
Cu712  O731    1.931   .     S
Cu712  O729    1.964   .     S
Cu712  O735    1.911   .     S
Cu712  Cu713   2.686   .     S
Cu713  O736    1.931   .     S
Cu713  O732    1.911   .     S
Cu713  O730    1.959   .     S
Cu713  N726    2.018   .     S
Cu713  O734    1.964   .     S
H716   N728    1.045   .     S
H717   N728    1.045   .     S
H718   N818    1.029   1_455 S
H719   N773    1.029   .     S
H724   C747    1.084   .     S
N726   H764    1.029   .     S
N726   N773    1.285   .     S
N727   N818    1.285   1_455 S
N727   H811    1.029   1_455 S
C737   O775    1.286   .     A
C737   O776    1.291   .     A
C737   C739    1.430   .     S
C738   C740    1.476   .     S
C738   C750    1.420   .     A
C738   C746    1.399   .     A
C739   C465    1.339   1_565 S
C739   H485    1.088   1_565 S
C740   O778    1.296   .     A
C740   O777    1.302   .     A
C741   C742    1.428   .     S
C742   O780    1.292   .     A
C742   O779    1.283   .     A
C743   O781    1.294   .     A
C743   O782    1.300   .     A
C743   C745    1.462   .     S
C744   C756    1.394   .     A
C744   H767    1.084   .     S
C745   C756    1.398   .     A
C745   C755    1.396   .     A
C746   H769    1.083   .     S
C746   C747    1.386   .     A
C747   C335    1.396   1_556 S
C748   C750    1.423   .     A
C748   C335    1.435   1_556 S
C748   C337    1.429   1_556 S
C749   N774    1.435   .     S
C750   C754    1.413   .     A
C751   C755    1.401   .     A
C752   C753    1.391   .     A
C752   C337    1.420   1_556 S
C752   C330    1.405   1_556 S
C753   C754    1.387   .     A
C753   H766    1.084   .     S
C754   H771    1.080   .     S
C755   H768    1.075   .     S
C756   H760    1.083   .     S
Cl757  C465    1.782   1_565 S
Cu758  N773    2.018   .     S
Cu758  O779    1.959   .     S
Cu758  O777    1.931   .     S
Cu758  O775    1.964   .     S
Cu758  O781    1.911   .     S
Cu758  Cu759   2.686   .     S
Cu759  O782    1.931   .     S
Cu759  O778    1.911   .     S
Cu759  O776    1.959   .     S
Cu759  N772    2.018   .     S
Cu759  O780    1.964   .     S
H762   N774    1.045   .     S
H763   N774    1.045   .     S
H765   N819    1.029   .     S
H770   C793    1.084   .     S
N772   H810    1.029   .     S
N772   N819    1.285   .     S
C783   O821    1.286   .     A
C783   O822    1.291   .     A
C783   C785    1.430   .     S
C784   C786    1.476   .     S
C784   C796    1.420   .     A
C784   C792    1.399   .     A
C785   C511    1.339   1_565 S
C785   H531    1.088   1_565 S
C786   O824    1.296   .     A
C786   O823    1.302   .     A
C787   C788    1.428   .     S
C788   O826    1.292   .     A
C788   O825    1.283   .     A
C789   O827    1.294   .     A
C789   O828    1.300   .     A
C789   C791    1.462   .     S
C790   C802    1.394   .     A
C790   H813    1.084   .     S
C791   C802    1.398   .     A
C791   C801    1.396   .     A
C792   H815    1.083   .     S
C792   C793    1.386   .     A
C793   C381    1.396   1_556 S
C794   C796    1.423   .     A
C794   C381    1.435   1_556 S
C794   C383    1.429   1_556 S
C795   N820    1.435   .     S
C796   C800    1.413   .     A
C797   C801    1.401   .     A
C798   C799    1.391   .     A
C798   C383    1.420   1_556 S
C798   C376    1.405   1_556 S
C799   C800    1.387   .     A
C799   H812    1.084   .     S
C800   H817    1.080   .     S
C801   H814    1.075   .     S
C802   H806    1.083   .     S
Cl803  C511    1.782   1_565 S
Cu804  N819    2.018   .     S
Cu804  O825    1.959   .     S
Cu804  O823    1.931   .     S
Cu804  O821    1.964   .     S
Cu804  O827    1.911   .     S
Cu804  Cu805   2.686   .     S
Cu805  O828    1.931   .     S
Cu805  O824    1.911   .     S
Cu805  O822    1.959   .     S
Cu805  N818    2.018   .     S
Cu805  O826    1.964   .     S
H808   N820    1.045   .     S
H809   N820    1.045   .     S
H811   N727    1.029   1_655 S
H816   C701    1.084   1_655 S
N818   H718    1.029   1_655 S
N818   N727    1.285   1_655 S
