data_str_m2_o1_o5_pcu_sym.70
_audit_creation_date              2020-01-03
_audit_creation_method            'Materials Studio'
_symmetry_space_group_name_H-M    'P1'
_symmetry_Int_Tables_number       1
_symmetry_cell_setting            triclinic
loop_
_symmetry_equiv_pos_as_xyz
  x,y,z
_cell_length_a                    32.6308
_cell_length_b                    29.0135
_cell_length_c                    27.1538
_cell_angle_alpha                 90.5693
_cell_angle_beta                  93.8515
_cell_angle_gamma                 91.6448
loop_
_atom_site_label
_atom_site_type_symbol
_atom_site_fract_x
_atom_site_fract_y
_atom_site_fract_z
_atom_site_U_iso_or_equiv
_atom_site_adp_type
_atom_site_occupancy
C1     C     0.08754   0.16593   0.16811   0.00000  Uiso   1.00
C2     C     0.02375   0.20329   0.18930   0.00000  Uiso   1.00
C3     C     0.29050   0.16831   0.16415   0.00000  Uiso   1.00
C4     C     0.04282   0.16442   0.17096   0.00000  Uiso   1.00
C5     C     0.14734   0.02350   0.12843   0.00000  Uiso   1.00
C6     C     0.18504   0.30992   0.20551   0.00000  Uiso   1.00
C7     C     0.18644   0.02581   0.20455   0.00000  Uiso   1.00
C8     C     0.14653   0.30755   0.12905   0.00000  Uiso   1.00
C9     C     0.04150   0.05748   0.18177   0.00000  Uiso   1.00
C10    C     0.29649   0.27850   0.16459   0.00000  Uiso   1.00
C11    C     0.28230   0.05744   0.12198   0.00000  Uiso   1.00
C12    C     0.24576   0.16732   0.16539   0.00000  Uiso   1.00
C13    C     0.05422   0.23113   0.26151   0.00000  Uiso   1.00
C14    C     0.12821   0.04595   0.08442   0.00000  Uiso   1.00
C15    C     0.19982   0.28792   0.25186   0.00000  Uiso   1.00
C16    C     0.21055   0.05098   0.24497   0.00000  Uiso   1.00
C17    C     0.11968   0.28244   0.09114   0.00000  Uiso   1.00
C18    C     0.16651   0.16652   0.07369   0.00000  Uiso   1.00
C19    C     0.16677   0.16681   0.25964   0.00000  Uiso   1.00
C20    C     0.16656   0.16647   0.02188   0.00000  Uiso   1.00
C21    C     0.16665   0.16687   0.31143   0.00000  Uiso   1.00
C22    C     0.01856   0.12585   0.15281   0.00000  Uiso   1.00
C23    C     0.31450   0.20584   0.18439   0.00000  Uiso   1.00
C24    C     0.30927   0.12996   0.14452   0.00000  Uiso   1.00
Cu25   Cu    0.16667   0.21355   0.16667   0.00000  Uiso   1.00
Cu26   Cu    0.16667   0.11978   0.16667   0.00000  Uiso   1.00
H27    H     0.01166   0.04759   0.19662   0.00000  Uiso   1.00
H28    H     0.07281   0.26039   0.27869   0.00000  Uiso   1.00
H29    H     0.07219   0.19940   0.26749   0.00000  Uiso   1.00
H30    H     0.02507   0.22839   0.28051   0.00000  Uiso   1.00
H31    H     0.12781   0.05510   0.01096   0.00000  Uiso   1.00
H32    H     0.24307   0.25115   0.28872   0.00000  Uiso   1.00
H33    H     0.21480   0.07088   0.31655   0.00000  Uiso   1.00
H34    H     0.06384   0.25345   0.07241   0.00000  Uiso   1.00
H35    H     0.06153   0.07458   0.21171   0.00000  Uiso   1.00
H36    H     0.05641   0.02528   0.17122   0.00000  Uiso   1.00
H37    H     0.27768   0.30725   0.17635   0.00000  Uiso   1.00
H38    H     0.28229   0.26525   0.12855   0.00000  Uiso   1.00
H39    H     0.32807   0.29245   0.16001   0.00000  Uiso   1.00
H40    H     0.25342   0.04309   0.10316   0.00000  Uiso   1.00
H41    H     0.27944   0.05350   0.16214   0.00000  Uiso   1.00
H42    H     0.30777   0.03681   0.10930   0.00000  Uiso   1.00
N43    N     0.16667   0.28402   0.16667   0.00000  Uiso   1.00
N44    N     0.16667   0.04931   0.16667   0.00000  Uiso   1.00
O45    O     0.10655   0.20625   0.16666   0.00000  Uiso   1.00
O46    O     0.29651   0.24469   0.20153   0.00000  Uiso   1.00
O47    O     0.28719   0.10376   0.10804   0.00000  Uiso   1.00
O48    O     0.04655   0.24007   0.21082   0.00000  Uiso   1.00
O49    O     0.09844   0.06985   0.08769   0.00000  Uiso   1.00
O50    O     0.14387   0.03866   0.03846   0.00000  Uiso   1.00
O51    O     0.17976   0.29100   0.28815   0.00000  Uiso   1.00
O52    O     0.23650   0.26450   0.25483   0.00000  Uiso   1.00
O53    O     0.24457   0.06731   0.23829   0.00000  Uiso   1.00
O54    O     0.19525   0.05369   0.29169   0.00000  Uiso   1.00
O55    O     0.13136   0.27641   0.04978   0.00000  Uiso   1.00
O56    O     0.22679   0.12709   0.16667   0.00000  Uiso   1.00
O57    O     0.07964   0.26942   0.10148   0.00000  Uiso   1.00
O58    O     0.22679   0.20625   0.16667   0.00000  Uiso   1.00
O59    O     0.10655   0.12709   0.16666   0.00000  Uiso   1.00
O60    O     0.16667   0.20625   0.09613   0.00000  Uiso   1.00
O61    O     0.16667   0.12708   0.23720   0.00000  Uiso   1.00
O62    O     0.16667   0.20625   0.23720   0.00000  Uiso   1.00
O63    O     0.16667   0.12708   0.09613   0.00000  Uiso   1.00
O64    O     0.03629   0.08542   0.13948   0.00000  Uiso   1.00
C65    C     0.42087   0.16593   0.16811   0.00000  Uiso   1.00
C66    C     0.35709   0.20329   0.18930   0.00000  Uiso   1.00
C67    C     0.62383   0.16831   0.16415   0.00000  Uiso   1.00
C68    C     0.37615   0.16442   0.17096   0.00000  Uiso   1.00
C69    C     0.48067   0.02350   0.12843   0.00000  Uiso   1.00
C70    C     0.51837   0.30992   0.20551   0.00000  Uiso   1.00
C71    C     0.51978   0.02581   0.20455   0.00000  Uiso   1.00
C72    C     0.47986   0.30755   0.12905   0.00000  Uiso   1.00
C73    C     0.37483   0.05748   0.18177   0.00000  Uiso   1.00
C74    C     0.62982   0.27850   0.16459   0.00000  Uiso   1.00
C75    C     0.61564   0.05744   0.12198   0.00000  Uiso   1.00
C76    C     0.57909   0.16732   0.16539   0.00000  Uiso   1.00
C77    C     0.38755   0.23113   0.26151   0.00000  Uiso   1.00
C78    C     0.46155   0.04595   0.08442   0.00000  Uiso   1.00
C79    C     0.53315   0.28792   0.25186   0.00000  Uiso   1.00
C80    C     0.54388   0.05098   0.24497   0.00000  Uiso   1.00
C81    C     0.45301   0.28244   0.09114   0.00000  Uiso   1.00
C82    C     0.49984   0.16652   0.07369   0.00000  Uiso   1.00
C83    C     0.50010   0.16681   0.25964   0.00000  Uiso   1.00
C84    C     0.49989   0.16647   0.02188   0.00000  Uiso   1.00
C85    C     0.49998   0.16687   0.31143   0.00000  Uiso   1.00
C86    C     0.35189   0.12585   0.15281   0.00000  Uiso   1.00
C87    C     0.64784   0.20584   0.18439   0.00000  Uiso   1.00
C88    C     0.64261   0.12996   0.14452   0.00000  Uiso   1.00
Cu89   Cu    0.50000   0.21355   0.16667   0.00000  Uiso   1.00
Cu90   Cu    0.50000   0.11978   0.16667   0.00000  Uiso   1.00
H91    H     0.34500   0.04759   0.19662   0.00000  Uiso   1.00
H92    H     0.40615   0.26039   0.27869   0.00000  Uiso   1.00
H93    H     0.40553   0.19940   0.26749   0.00000  Uiso   1.00
H94    H     0.35840   0.22839   0.28051   0.00000  Uiso   1.00
H95    H     0.46115   0.05510   0.01096   0.00000  Uiso   1.00
H96    H     0.57641   0.25115   0.28872   0.00000  Uiso   1.00
H97    H     0.54814   0.07088   0.31655   0.00000  Uiso   1.00
H98    H     0.39717   0.25345   0.07241   0.00000  Uiso   1.00
H99    H     0.39486   0.07458   0.21171   0.00000  Uiso   1.00
H100   H     0.38974   0.02528   0.17122   0.00000  Uiso   1.00
H101   H     0.61102   0.30725   0.17635   0.00000  Uiso   1.00
H102   H     0.61562   0.26525   0.12855   0.00000  Uiso   1.00
H103   H     0.66141   0.29245   0.16001   0.00000  Uiso   1.00
H104   H     0.58676   0.04309   0.10316   0.00000  Uiso   1.00
H105   H     0.61277   0.05350   0.16214   0.00000  Uiso   1.00
H106   H     0.64110   0.03681   0.10930   0.00000  Uiso   1.00
N107   N     0.50000   0.28402   0.16667   0.00000  Uiso   1.00
N108   N     0.50000   0.04931   0.16667   0.00000  Uiso   1.00
O109   O     0.43988   0.20625   0.16666   0.00000  Uiso   1.00
O110   O     0.62985   0.24469   0.20153   0.00000  Uiso   1.00
O111   O     0.62053   0.10376   0.10804   0.00000  Uiso   1.00
O112   O     0.37989   0.24007   0.21082   0.00000  Uiso   1.00
O113   O     0.43177   0.06985   0.08769   0.00000  Uiso   1.00
O114   O     0.47720   0.03866   0.03846   0.00000  Uiso   1.00
O115   O     0.51309   0.29100   0.28815   0.00000  Uiso   1.00
O116   O     0.56983   0.26450   0.25483   0.00000  Uiso   1.00
O117   O     0.57791   0.06731   0.23829   0.00000  Uiso   1.00
O118   O     0.52859   0.05369   0.29169   0.00000  Uiso   1.00
O119   O     0.46470   0.27641   0.04978   0.00000  Uiso   1.00
O120   O     0.56012   0.12709   0.16667   0.00000  Uiso   1.00
O121   O     0.41298   0.26942   0.10148   0.00000  Uiso   1.00
O122   O     0.56012   0.20625   0.16667   0.00000  Uiso   1.00
O123   O     0.43988   0.12709   0.16666   0.00000  Uiso   1.00
O124   O     0.50000   0.20625   0.09613   0.00000  Uiso   1.00
O125   O     0.50000   0.12708   0.23720   0.00000  Uiso   1.00
O126   O     0.50000   0.20625   0.23720   0.00000  Uiso   1.00
O127   O     0.50000   0.12708   0.09613   0.00000  Uiso   1.00
O128   O     0.36963   0.08542   0.13948   0.00000  Uiso   1.00
C129   C     0.75420   0.16593   0.16811   0.00000  Uiso   1.00
C130   C     0.69042   0.20329   0.18930   0.00000  Uiso   1.00
C131   C     0.95717   0.16831   0.16415   0.00000  Uiso   1.00
C132   C     0.70948   0.16442   0.17096   0.00000  Uiso   1.00
C133   C     0.81400   0.02350   0.12843   0.00000  Uiso   1.00
C134   C     0.85171   0.30992   0.20551   0.00000  Uiso   1.00
C135   C     0.85311   0.02581   0.20455   0.00000  Uiso   1.00
C136   C     0.81320   0.30755   0.12905   0.00000  Uiso   1.00
C137   C     0.70816   0.05748   0.18177   0.00000  Uiso   1.00
C138   C     0.96316   0.27850   0.16459   0.00000  Uiso   1.00
C139   C     0.94897   0.05744   0.12198   0.00000  Uiso   1.00
C140   C     0.91243   0.16732   0.16539   0.00000  Uiso   1.00
C141   C     0.72088   0.23113   0.26151   0.00000  Uiso   1.00
C142   C     0.79488   0.04595   0.08442   0.00000  Uiso   1.00
C143   C     0.86649   0.28792   0.25186   0.00000  Uiso   1.00
C144   C     0.87721   0.05098   0.24497   0.00000  Uiso   1.00
C145   C     0.78634   0.28244   0.09114   0.00000  Uiso   1.00
C146   C     0.83317   0.16652   0.07369   0.00000  Uiso   1.00
C147   C     0.83344   0.16681   0.25964   0.00000  Uiso   1.00
C148   C     0.83322   0.16647   0.02188   0.00000  Uiso   1.00
C149   C     0.83331   0.16687   0.31143   0.00000  Uiso   1.00
C150   C     0.68522   0.12585   0.15281   0.00000  Uiso   1.00
C151   C     0.98117   0.20584   0.18439   0.00000  Uiso   1.00
C152   C     0.97594   0.12996   0.14452   0.00000  Uiso   1.00
Cu153  Cu    0.83333   0.21355   0.16667   0.00000  Uiso   1.00
Cu154  Cu    0.83333   0.11978   0.16667   0.00000  Uiso   1.00
H155   H     0.67833   0.04759   0.19662   0.00000  Uiso   1.00
H156   H     0.73948   0.26039   0.27869   0.00000  Uiso   1.00
H157   H     0.73886   0.19940   0.26749   0.00000  Uiso   1.00
H158   H     0.69174   0.22839   0.28051   0.00000  Uiso   1.00
H159   H     0.79448   0.05510   0.01096   0.00000  Uiso   1.00
H160   H     0.90974   0.25115   0.28872   0.00000  Uiso   1.00
H161   H     0.88147   0.07088   0.31655   0.00000  Uiso   1.00
H162   H     0.73051   0.25345   0.07241   0.00000  Uiso   1.00
H163   H     0.72820   0.07458   0.21171   0.00000  Uiso   1.00
H164   H     0.72308   0.02528   0.17122   0.00000  Uiso   1.00
H165   H     0.94435   0.30725   0.17635   0.00000  Uiso   1.00
H166   H     0.94895   0.26525   0.12855   0.00000  Uiso   1.00
H167   H     0.99474   0.29245   0.16001   0.00000  Uiso   1.00
H168   H     0.92009   0.04309   0.10316   0.00000  Uiso   1.00
H169   H     0.94610   0.05350   0.16214   0.00000  Uiso   1.00
H170   H     0.97443   0.03681   0.10930   0.00000  Uiso   1.00
N171   N     0.83333   0.28402   0.16667   0.00000  Uiso   1.00
N172   N     0.83333   0.04931   0.16667   0.00000  Uiso   1.00
O173   O     0.77321   0.20625   0.16666   0.00000  Uiso   1.00
O174   O     0.96318   0.24469   0.20153   0.00000  Uiso   1.00
O175   O     0.95386   0.10376   0.10804   0.00000  Uiso   1.00
O176   O     0.71322   0.24007   0.21082   0.00000  Uiso   1.00
O177   O     0.76511   0.06985   0.08769   0.00000  Uiso   1.00
O178   O     0.81053   0.03866   0.03846   0.00000  Uiso   1.00
O179   O     0.84642   0.29100   0.28815   0.00000  Uiso   1.00
O180   O     0.90316   0.26450   0.25483   0.00000  Uiso   1.00
O181   O     0.91124   0.06731   0.23829   0.00000  Uiso   1.00
O182   O     0.86192   0.05369   0.29169   0.00000  Uiso   1.00
O183   O     0.79803   0.27641   0.04978   0.00000  Uiso   1.00
O184   O     0.89345   0.12709   0.16667   0.00000  Uiso   1.00
O185   O     0.74631   0.26942   0.10148   0.00000  Uiso   1.00
O186   O     0.89345   0.20625   0.16667   0.00000  Uiso   1.00
O187   O     0.77321   0.12709   0.16666   0.00000  Uiso   1.00
O188   O     0.83333   0.20625   0.09613   0.00000  Uiso   1.00
O189   O     0.83333   0.12708   0.23720   0.00000  Uiso   1.00
O190   O     0.83333   0.20625   0.23720   0.00000  Uiso   1.00
O191   O     0.83333   0.12708   0.09613   0.00000  Uiso   1.00
O192   O     0.70296   0.08542   0.13948   0.00000  Uiso   1.00
C193   C     0.08754   0.49926   0.16811   0.00000  Uiso   1.00
C194   C     0.02375   0.53662   0.18930   0.00000  Uiso   1.00
C195   C     0.29050   0.50164   0.16415   0.00000  Uiso   1.00
C196   C     0.04282   0.49775   0.17096   0.00000  Uiso   1.00
C197   C     0.14734   0.35683   0.12843   0.00000  Uiso   1.00
C198   C     0.18504   0.64326   0.20551   0.00000  Uiso   1.00
C199   C     0.18644   0.35914   0.20455   0.00000  Uiso   1.00
C200   C     0.14653   0.64088   0.12905   0.00000  Uiso   1.00
C201   C     0.04150   0.39082   0.18177   0.00000  Uiso   1.00
C202   C     0.29649   0.61183   0.16459   0.00000  Uiso   1.00
C203   C     0.28230   0.39077   0.12198   0.00000  Uiso   1.00
C204   C     0.24576   0.50065   0.16539   0.00000  Uiso   1.00
C205   C     0.05422   0.56447   0.26151   0.00000  Uiso   1.00
C206   C     0.12821   0.37928   0.08442   0.00000  Uiso   1.00
C207   C     0.19982   0.62126   0.25186   0.00000  Uiso   1.00
C208   C     0.21055   0.38432   0.24497   0.00000  Uiso   1.00
C209   C     0.11968   0.61577   0.09114   0.00000  Uiso   1.00
C210   C     0.16651   0.49985   0.07369   0.00000  Uiso   1.00
C211   C     0.16677   0.50014   0.25964   0.00000  Uiso   1.00
C212   C     0.16656   0.49980   0.02188   0.00000  Uiso   1.00
C213   C     0.16665   0.50020   0.31143   0.00000  Uiso   1.00
C214   C     0.01856   0.45918   0.15281   0.00000  Uiso   1.00
C215   C     0.31450   0.53917   0.18439   0.00000  Uiso   1.00
C216   C     0.30927   0.46330   0.14452   0.00000  Uiso   1.00
Cu217  Cu    0.16667   0.54689   0.16667   0.00000  Uiso   1.00
Cu218  Cu    0.16667   0.45311   0.16667   0.00000  Uiso   1.00
H219   H     0.01166   0.38093   0.19662   0.00000  Uiso   1.00
H220   H     0.07281   0.59372   0.27869   0.00000  Uiso   1.00
H221   H     0.07219   0.53273   0.26749   0.00000  Uiso   1.00
H222   H     0.02507   0.56172   0.28051   0.00000  Uiso   1.00
H223   H     0.12781   0.38843   0.01096   0.00000  Uiso   1.00
H224   H     0.24307   0.58449   0.28872   0.00000  Uiso   1.00
H225   H     0.21480   0.40421   0.31655   0.00000  Uiso   1.00
H226   H     0.06384   0.58679   0.07241   0.00000  Uiso   1.00
H227   H     0.06153   0.40792   0.21171   0.00000  Uiso   1.00
H228   H     0.05641   0.35862   0.17122   0.00000  Uiso   1.00
H229   H     0.27768   0.64058   0.17635   0.00000  Uiso   1.00
H230   H     0.28229   0.59858   0.12855   0.00000  Uiso   1.00
H231   H     0.32807   0.62578   0.16001   0.00000  Uiso   1.00
H232   H     0.25342   0.37642   0.10316   0.00000  Uiso   1.00
H233   H     0.27944   0.38684   0.16214   0.00000  Uiso   1.00
H234   H     0.30777   0.37015   0.10930   0.00000  Uiso   1.00
N235   N     0.16667   0.61736   0.16667   0.00000  Uiso   1.00
N236   N     0.16667   0.38264   0.16667   0.00000  Uiso   1.00
O237   O     0.10655   0.53958   0.16666   0.00000  Uiso   1.00
O238   O     0.29651   0.57803   0.20153   0.00000  Uiso   1.00
O239   O     0.28719   0.43709   0.10804   0.00000  Uiso   1.00
O240   O     0.04655   0.57341   0.21082   0.00000  Uiso   1.00
O241   O     0.09844   0.40318   0.08769   0.00000  Uiso   1.00
O242   O     0.14387   0.37199   0.03846   0.00000  Uiso   1.00
O243   O     0.17976   0.62433   0.28815   0.00000  Uiso   1.00
O244   O     0.23650   0.59783   0.25483   0.00000  Uiso   1.00
O245   O     0.24457   0.40064   0.23829   0.00000  Uiso   1.00
O246   O     0.19525   0.38703   0.29169   0.00000  Uiso   1.00
O247   O     0.13136   0.60974   0.04978   0.00000  Uiso   1.00
O248   O     0.22679   0.46042   0.16667   0.00000  Uiso   1.00
O249   O     0.07964   0.60275   0.10148   0.00000  Uiso   1.00
O250   O     0.22679   0.53958   0.16667   0.00000  Uiso   1.00
O251   O     0.10655   0.46042   0.16666   0.00000  Uiso   1.00
O252   O     0.16667   0.53959   0.09613   0.00000  Uiso   1.00
O253   O     0.16667   0.46041   0.23720   0.00000  Uiso   1.00
O254   O     0.16667   0.53959   0.23720   0.00000  Uiso   1.00
O255   O     0.16667   0.46041   0.09613   0.00000  Uiso   1.00
O256   O     0.03629   0.41876   0.13948   0.00000  Uiso   1.00
C257   C     0.42087   0.49926   0.16811   0.00000  Uiso   1.00
C258   C     0.35709   0.53662   0.18930   0.00000  Uiso   1.00
C259   C     0.62383   0.50164   0.16415   0.00000  Uiso   1.00
C260   C     0.37615   0.49775   0.17096   0.00000  Uiso   1.00
C261   C     0.48067   0.35683   0.12843   0.00000  Uiso   1.00
C262   C     0.51837   0.64326   0.20551   0.00000  Uiso   1.00
C263   C     0.51978   0.35914   0.20455   0.00000  Uiso   1.00
C264   C     0.47986   0.64088   0.12905   0.00000  Uiso   1.00
C265   C     0.37483   0.39082   0.18177   0.00000  Uiso   1.00
C266   C     0.62982   0.61183   0.16459   0.00000  Uiso   1.00
C267   C     0.61564   0.39077   0.12198   0.00000  Uiso   1.00
C268   C     0.57909   0.50065   0.16539   0.00000  Uiso   1.00
C269   C     0.38755   0.56447   0.26151   0.00000  Uiso   1.00
C270   C     0.46155   0.37928   0.08442   0.00000  Uiso   1.00
C271   C     0.53315   0.62126   0.25186   0.00000  Uiso   1.00
C272   C     0.54388   0.38432   0.24497   0.00000  Uiso   1.00
C273   C     0.45301   0.61577   0.09114   0.00000  Uiso   1.00
C274   C     0.49984   0.49985   0.07369   0.00000  Uiso   1.00
C275   C     0.50010   0.50014   0.25964   0.00000  Uiso   1.00
C276   C     0.49989   0.49980   0.02188   0.00000  Uiso   1.00
C277   C     0.49998   0.50020   0.31143   0.00000  Uiso   1.00
C278   C     0.35189   0.45918   0.15281   0.00000  Uiso   1.00
C279   C     0.64784   0.53917   0.18439   0.00000  Uiso   1.00
C280   C     0.64261   0.46330   0.14452   0.00000  Uiso   1.00
Cu281  Cu    0.50000   0.54689   0.16667   0.00000  Uiso   1.00
Cu282  Cu    0.50000   0.45311   0.16667   0.00000  Uiso   1.00
H283   H     0.34500   0.38093   0.19662   0.00000  Uiso   1.00
H284   H     0.40615   0.59372   0.27869   0.00000  Uiso   1.00
H285   H     0.40553   0.53273   0.26749   0.00000  Uiso   1.00
H286   H     0.35840   0.56172   0.28051   0.00000  Uiso   1.00
H287   H     0.46115   0.38843   0.01096   0.00000  Uiso   1.00
H288   H     0.57641   0.58449   0.28872   0.00000  Uiso   1.00
H289   H     0.54814   0.40421   0.31655   0.00000  Uiso   1.00
H290   H     0.39717   0.58679   0.07241   0.00000  Uiso   1.00
H291   H     0.39486   0.40792   0.21171   0.00000  Uiso   1.00
H292   H     0.38974   0.35862   0.17122   0.00000  Uiso   1.00
H293   H     0.61102   0.64058   0.17635   0.00000  Uiso   1.00
H294   H     0.61562   0.59858   0.12855   0.00000  Uiso   1.00
H295   H     0.66141   0.62578   0.16001   0.00000  Uiso   1.00
H296   H     0.58676   0.37642   0.10316   0.00000  Uiso   1.00
H297   H     0.61277   0.38684   0.16214   0.00000  Uiso   1.00
H298   H     0.64110   0.37015   0.10930   0.00000  Uiso   1.00
N299   N     0.50000   0.61736   0.16667   0.00000  Uiso   1.00
N300   N     0.50000   0.38264   0.16667   0.00000  Uiso   1.00
O301   O     0.43988   0.53958   0.16666   0.00000  Uiso   1.00
O302   O     0.62985   0.57803   0.20153   0.00000  Uiso   1.00
O303   O     0.62053   0.43709   0.10804   0.00000  Uiso   1.00
O304   O     0.37989   0.57341   0.21082   0.00000  Uiso   1.00
O305   O     0.43177   0.40318   0.08769   0.00000  Uiso   1.00
O306   O     0.47720   0.37199   0.03846   0.00000  Uiso   1.00
O307   O     0.51309   0.62433   0.28815   0.00000  Uiso   1.00
O308   O     0.56983   0.59783   0.25483   0.00000  Uiso   1.00
O309   O     0.57791   0.40064   0.23829   0.00000  Uiso   1.00
O310   O     0.52859   0.38703   0.29169   0.00000  Uiso   1.00
O311   O     0.46470   0.60974   0.04978   0.00000  Uiso   1.00
O312   O     0.56012   0.46042   0.16667   0.00000  Uiso   1.00
O313   O     0.41298   0.60275   0.10148   0.00000  Uiso   1.00
O314   O     0.56012   0.53958   0.16667   0.00000  Uiso   1.00
O315   O     0.43988   0.46042   0.16666   0.00000  Uiso   1.00
O316   O     0.50000   0.53959   0.09613   0.00000  Uiso   1.00
O317   O     0.50000   0.46041   0.23720   0.00000  Uiso   1.00
O318   O     0.50000   0.53959   0.23720   0.00000  Uiso   1.00
O319   O     0.50000   0.46041   0.09613   0.00000  Uiso   1.00
O320   O     0.36963   0.41876   0.13948   0.00000  Uiso   1.00
C321   C     0.75420   0.49926   0.16811   0.00000  Uiso   1.00
C322   C     0.69042   0.53662   0.18930   0.00000  Uiso   1.00
C323   C     0.95717   0.50164   0.16415   0.00000  Uiso   1.00
C324   C     0.70948   0.49775   0.17096   0.00000  Uiso   1.00
C325   C     0.81400   0.35683   0.12843   0.00000  Uiso   1.00
C326   C     0.85171   0.64326   0.20551   0.00000  Uiso   1.00
C327   C     0.85311   0.35914   0.20455   0.00000  Uiso   1.00
C328   C     0.81320   0.64088   0.12905   0.00000  Uiso   1.00
C329   C     0.70816   0.39082   0.18177   0.00000  Uiso   1.00
C330   C     0.96316   0.61183   0.16459   0.00000  Uiso   1.00
C331   C     0.94897   0.39077   0.12198   0.00000  Uiso   1.00
C332   C     0.91243   0.50065   0.16539   0.00000  Uiso   1.00
C333   C     0.72088   0.56447   0.26151   0.00000  Uiso   1.00
C334   C     0.79488   0.37928   0.08442   0.00000  Uiso   1.00
C335   C     0.86649   0.62126   0.25186   0.00000  Uiso   1.00
C336   C     0.87721   0.38432   0.24497   0.00000  Uiso   1.00
C337   C     0.78634   0.61577   0.09114   0.00000  Uiso   1.00
C338   C     0.83317   0.49985   0.07369   0.00000  Uiso   1.00
C339   C     0.83344   0.50014   0.25964   0.00000  Uiso   1.00
C340   C     0.83322   0.49980   0.02188   0.00000  Uiso   1.00
C341   C     0.83331   0.50020   0.31143   0.00000  Uiso   1.00
C342   C     0.68522   0.45918   0.15281   0.00000  Uiso   1.00
C343   C     0.98117   0.53917   0.18439   0.00000  Uiso   1.00
C344   C     0.97594   0.46330   0.14452   0.00000  Uiso   1.00
Cu345  Cu    0.83333   0.54689   0.16667   0.00000  Uiso   1.00
Cu346  Cu    0.83333   0.45311   0.16667   0.00000  Uiso   1.00
H347   H     0.67833   0.38093   0.19662   0.00000  Uiso   1.00
H348   H     0.73948   0.59372   0.27869   0.00000  Uiso   1.00
H349   H     0.73886   0.53273   0.26749   0.00000  Uiso   1.00
H350   H     0.69174   0.56172   0.28051   0.00000  Uiso   1.00
H351   H     0.79448   0.38843   0.01096   0.00000  Uiso   1.00
H352   H     0.90974   0.58449   0.28872   0.00000  Uiso   1.00
H353   H     0.88147   0.40421   0.31655   0.00000  Uiso   1.00
H354   H     0.73051   0.58679   0.07241   0.00000  Uiso   1.00
H355   H     0.72820   0.40792   0.21171   0.00000  Uiso   1.00
H356   H     0.72308   0.35862   0.17122   0.00000  Uiso   1.00
H357   H     0.94435   0.64058   0.17635   0.00000  Uiso   1.00
H358   H     0.94895   0.59858   0.12855   0.00000  Uiso   1.00
H359   H     0.99474   0.62578   0.16001   0.00000  Uiso   1.00
H360   H     0.92009   0.37642   0.10316   0.00000  Uiso   1.00
H361   H     0.94610   0.38684   0.16214   0.00000  Uiso   1.00
H362   H     0.97443   0.37015   0.10930   0.00000  Uiso   1.00
N363   N     0.83333   0.61736   0.16667   0.00000  Uiso   1.00
N364   N     0.83333   0.38264   0.16667   0.00000  Uiso   1.00
O365   O     0.77321   0.53958   0.16666   0.00000  Uiso   1.00
O366   O     0.96318   0.57803   0.20153   0.00000  Uiso   1.00
O367   O     0.95386   0.43709   0.10804   0.00000  Uiso   1.00
O368   O     0.71322   0.57341   0.21082   0.00000  Uiso   1.00
O369   O     0.76511   0.40318   0.08769   0.00000  Uiso   1.00
O370   O     0.81053   0.37199   0.03846   0.00000  Uiso   1.00
O371   O     0.84642   0.62433   0.28815   0.00000  Uiso   1.00
O372   O     0.90316   0.59783   0.25483   0.00000  Uiso   1.00
O373   O     0.91124   0.40064   0.23829   0.00000  Uiso   1.00
O374   O     0.86192   0.38703   0.29169   0.00000  Uiso   1.00
O375   O     0.79803   0.60974   0.04978   0.00000  Uiso   1.00
O376   O     0.89345   0.46042   0.16667   0.00000  Uiso   1.00
O377   O     0.74631   0.60275   0.10148   0.00000  Uiso   1.00
O378   O     0.89345   0.53958   0.16667   0.00000  Uiso   1.00
O379   O     0.77321   0.46042   0.16666   0.00000  Uiso   1.00
O380   O     0.83333   0.53959   0.09613   0.00000  Uiso   1.00
O381   O     0.83333   0.46041   0.23720   0.00000  Uiso   1.00
O382   O     0.83333   0.53959   0.23720   0.00000  Uiso   1.00
O383   O     0.83333   0.46041   0.09613   0.00000  Uiso   1.00
O384   O     0.70296   0.41876   0.13948   0.00000  Uiso   1.00
C385   C     0.08754   0.83259   0.16811   0.00000  Uiso   1.00
C386   C     0.02375   0.86996   0.18930   0.00000  Uiso   1.00
C387   C     0.29050   0.83497   0.16415   0.00000  Uiso   1.00
C388   C     0.04282   0.83109   0.17096   0.00000  Uiso   1.00
C389   C     0.14734   0.69016   0.12843   0.00000  Uiso   1.00
C390   C     0.18504   0.97659   0.20551   0.00000  Uiso   1.00
C391   C     0.18644   0.69247   0.20455   0.00000  Uiso   1.00
C392   C     0.14653   0.97422   0.12905   0.00000  Uiso   1.00
C393   C     0.04150   0.72415   0.18177   0.00000  Uiso   1.00
C394   C     0.29649   0.94517   0.16459   0.00000  Uiso   1.00
C395   C     0.28230   0.72410   0.12198   0.00000  Uiso   1.00
C396   C     0.24576   0.83399   0.16539   0.00000  Uiso   1.00
C397   C     0.05422   0.89780   0.26151   0.00000  Uiso   1.00
C398   C     0.12821   0.71262   0.08442   0.00000  Uiso   1.00
C399   C     0.19982   0.95459   0.25186   0.00000  Uiso   1.00
C400   C     0.21055   0.71765   0.24497   0.00000  Uiso   1.00
C401   C     0.11968   0.94910   0.09114   0.00000  Uiso   1.00
C402   C     0.16651   0.83319   0.07369   0.00000  Uiso   1.00
C403   C     0.16677   0.83348   0.25964   0.00000  Uiso   1.00
C404   C     0.16656   0.83314   0.02188   0.00000  Uiso   1.00
C405   C     0.16665   0.83354   0.31143   0.00000  Uiso   1.00
C406   C     0.01856   0.79251   0.15281   0.00000  Uiso   1.00
C407   C     0.31450   0.87251   0.18439   0.00000  Uiso   1.00
C408   C     0.30927   0.79663   0.14452   0.00000  Uiso   1.00
Cu409  Cu    0.16667   0.88022   0.16667   0.00000  Uiso   1.00
Cu410  Cu    0.16667   0.78645   0.16667   0.00000  Uiso   1.00
H411   H     0.01166   0.71426   0.19662   0.00000  Uiso   1.00
H412   H     0.07281   0.92705   0.27869   0.00000  Uiso   1.00
H413   H     0.07219   0.86606   0.26749   0.00000  Uiso   1.00
H414   H     0.02507   0.89506   0.28051   0.00000  Uiso   1.00
H415   H     0.12781   0.72177   0.01096   0.00000  Uiso   1.00
H416   H     0.24307   0.91782   0.28872   0.00000  Uiso   1.00
H417   H     0.21480   0.73754   0.31655   0.00000  Uiso   1.00
H418   H     0.06384   0.92012   0.07241   0.00000  Uiso   1.00
H419   H     0.06153   0.74125   0.21171   0.00000  Uiso   1.00
H420   H     0.05641   0.69195   0.17122   0.00000  Uiso   1.00
H421   H     0.27768   0.97392   0.17635   0.00000  Uiso   1.00
H422   H     0.28229   0.93192   0.12855   0.00000  Uiso   1.00
H423   H     0.32807   0.95911   0.16001   0.00000  Uiso   1.00
H424   H     0.25342   0.70975   0.10316   0.00000  Uiso   1.00
H425   H     0.27944   0.72017   0.16214   0.00000  Uiso   1.00
H426   H     0.30777   0.70348   0.10930   0.00000  Uiso   1.00
N427   N     0.16667   0.95069   0.16667   0.00000  Uiso   1.00
N428   N     0.16667   0.71598   0.16667   0.00000  Uiso   1.00
O429   O     0.10655   0.87291   0.16666   0.00000  Uiso   1.00
O430   O     0.29651   0.91136   0.20153   0.00000  Uiso   1.00
O431   O     0.28719   0.77042   0.10804   0.00000  Uiso   1.00
O432   O     0.04655   0.90674   0.21082   0.00000  Uiso   1.00
O433   O     0.09844   0.73652   0.08769   0.00000  Uiso   1.00
O434   O     0.14387   0.70533   0.03846   0.00000  Uiso   1.00
O435   O     0.17976   0.95766   0.28815   0.00000  Uiso   1.00
O436   O     0.23650   0.93117   0.25483   0.00000  Uiso   1.00
O437   O     0.24457   0.73397   0.23829   0.00000  Uiso   1.00
O438   O     0.19525   0.72036   0.29169   0.00000  Uiso   1.00
O439   O     0.13136   0.94307   0.04978   0.00000  Uiso   1.00
O440   O     0.22679   0.79375   0.16667   0.00000  Uiso   1.00
O441   O     0.07964   0.93608   0.10148   0.00000  Uiso   1.00
O442   O     0.22679   0.87291   0.16667   0.00000  Uiso   1.00
O443   O     0.10655   0.79375   0.16666   0.00000  Uiso   1.00
O444   O     0.16667   0.87292   0.09613   0.00000  Uiso   1.00
O445   O     0.16667   0.79375   0.23720   0.00000  Uiso   1.00
O446   O     0.16667   0.87292   0.23720   0.00000  Uiso   1.00
O447   O     0.16667   0.79375   0.09613   0.00000  Uiso   1.00
O448   O     0.03629   0.75209   0.13948   0.00000  Uiso   1.00
C449   C     0.42087   0.83259   0.16811   0.00000  Uiso   1.00
C450   C     0.35709   0.86996   0.18930   0.00000  Uiso   1.00
C451   C     0.62383   0.83497   0.16415   0.00000  Uiso   1.00
C452   C     0.37615   0.83109   0.17096   0.00000  Uiso   1.00
C453   C     0.48067   0.69016   0.12843   0.00000  Uiso   1.00
C454   C     0.51837   0.97659   0.20551   0.00000  Uiso   1.00
C455   C     0.51978   0.69247   0.20455   0.00000  Uiso   1.00
C456   C     0.47986   0.97422   0.12905   0.00000  Uiso   1.00
C457   C     0.37483   0.72415   0.18177   0.00000  Uiso   1.00
C458   C     0.62982   0.94517   0.16459   0.00000  Uiso   1.00
C459   C     0.61564   0.72410   0.12198   0.00000  Uiso   1.00
C460   C     0.57909   0.83399   0.16539   0.00000  Uiso   1.00
C461   C     0.38755   0.89780   0.26151   0.00000  Uiso   1.00
C462   C     0.46155   0.71262   0.08442   0.00000  Uiso   1.00
C463   C     0.53315   0.95459   0.25186   0.00000  Uiso   1.00
C464   C     0.54388   0.71765   0.24497   0.00000  Uiso   1.00
C465   C     0.45301   0.94910   0.09114   0.00000  Uiso   1.00
C466   C     0.49984   0.83319   0.07369   0.00000  Uiso   1.00
C467   C     0.50010   0.83348   0.25964   0.00000  Uiso   1.00
C468   C     0.49989   0.83314   0.02188   0.00000  Uiso   1.00
C469   C     0.49998   0.83354   0.31143   0.00000  Uiso   1.00
C470   C     0.35189   0.79251   0.15281   0.00000  Uiso   1.00
C471   C     0.64784   0.87251   0.18439   0.00000  Uiso   1.00
C472   C     0.64261   0.79663   0.14452   0.00000  Uiso   1.00
Cu473  Cu    0.50000   0.88022   0.16667   0.00000  Uiso   1.00
Cu474  Cu    0.50000   0.78645   0.16667   0.00000  Uiso   1.00
H475   H     0.34500   0.71426   0.19662   0.00000  Uiso   1.00
H476   H     0.40615   0.92705   0.27869   0.00000  Uiso   1.00
H477   H     0.40553   0.86606   0.26749   0.00000  Uiso   1.00
H478   H     0.35840   0.89506   0.28051   0.00000  Uiso   1.00
H479   H     0.46115   0.72177   0.01096   0.00000  Uiso   1.00
H480   H     0.57641   0.91782   0.28872   0.00000  Uiso   1.00
H481   H     0.54814   0.73754   0.31655   0.00000  Uiso   1.00
H482   H     0.39717   0.92012   0.07241   0.00000  Uiso   1.00
H483   H     0.39486   0.74125   0.21171   0.00000  Uiso   1.00
H484   H     0.38974   0.69195   0.17122   0.00000  Uiso   1.00
H485   H     0.61102   0.97392   0.17635   0.00000  Uiso   1.00
H486   H     0.61562   0.93192   0.12855   0.00000  Uiso   1.00
H487   H     0.66141   0.95911   0.16001   0.00000  Uiso   1.00
H488   H     0.58676   0.70975   0.10316   0.00000  Uiso   1.00
H489   H     0.61277   0.72017   0.16214   0.00000  Uiso   1.00
H490   H     0.64110   0.70348   0.10930   0.00000  Uiso   1.00
N491   N     0.50000   0.95069   0.16667   0.00000  Uiso   1.00
N492   N     0.50000   0.71598   0.16667   0.00000  Uiso   1.00
O493   O     0.43988   0.87291   0.16666   0.00000  Uiso   1.00
O494   O     0.62985   0.91136   0.20153   0.00000  Uiso   1.00
O495   O     0.62053   0.77042   0.10804   0.00000  Uiso   1.00
O496   O     0.37989   0.90674   0.21082   0.00000  Uiso   1.00
O497   O     0.43177   0.73652   0.08769   0.00000  Uiso   1.00
O498   O     0.47720   0.70533   0.03846   0.00000  Uiso   1.00
O499   O     0.51309   0.95766   0.28815   0.00000  Uiso   1.00
O500   O     0.56983   0.93117   0.25483   0.00000  Uiso   1.00
O501   O     0.57791   0.73397   0.23829   0.00000  Uiso   1.00
O502   O     0.52859   0.72036   0.29169   0.00000  Uiso   1.00
O503   O     0.46470   0.94307   0.04978   0.00000  Uiso   1.00
O504   O     0.56012   0.79375   0.16667   0.00000  Uiso   1.00
O505   O     0.41298   0.93608   0.10148   0.00000  Uiso   1.00
O506   O     0.56012   0.87291   0.16667   0.00000  Uiso   1.00
O507   O     0.43988   0.79375   0.16666   0.00000  Uiso   1.00
O508   O     0.50000   0.87292   0.09613   0.00000  Uiso   1.00
O509   O     0.50000   0.79375   0.23720   0.00000  Uiso   1.00
O510   O     0.50000   0.87292   0.23720   0.00000  Uiso   1.00
O511   O     0.50000   0.79375   0.09613   0.00000  Uiso   1.00
O512   O     0.36963   0.75209   0.13948   0.00000  Uiso   1.00
C513   C     0.75420   0.83259   0.16811   0.00000  Uiso   1.00
C514   C     0.69042   0.86996   0.18930   0.00000  Uiso   1.00
C515   C     0.95717   0.83497   0.16415   0.00000  Uiso   1.00
C516   C     0.70948   0.83109   0.17096   0.00000  Uiso   1.00
C517   C     0.81400   0.69016   0.12843   0.00000  Uiso   1.00
C518   C     0.85171   0.97659   0.20551   0.00000  Uiso   1.00
C519   C     0.85311   0.69247   0.20455   0.00000  Uiso   1.00
C520   C     0.81320   0.97422   0.12905   0.00000  Uiso   1.00
C521   C     0.70816   0.72415   0.18177   0.00000  Uiso   1.00
C522   C     0.96316   0.94517   0.16459   0.00000  Uiso   1.00
C523   C     0.94897   0.72410   0.12198   0.00000  Uiso   1.00
C524   C     0.91243   0.83399   0.16539   0.00000  Uiso   1.00
C525   C     0.72088   0.89780   0.26151   0.00000  Uiso   1.00
C526   C     0.79488   0.71262   0.08442   0.00000  Uiso   1.00
C527   C     0.86649   0.95459   0.25186   0.00000  Uiso   1.00
C528   C     0.87721   0.71765   0.24497   0.00000  Uiso   1.00
C529   C     0.78634   0.94910   0.09114   0.00000  Uiso   1.00
C530   C     0.83317   0.83319   0.07369   0.00000  Uiso   1.00
C531   C     0.83344   0.83348   0.25964   0.00000  Uiso   1.00
C532   C     0.83322   0.83314   0.02188   0.00000  Uiso   1.00
C533   C     0.83331   0.83354   0.31143   0.00000  Uiso   1.00
C534   C     0.68522   0.79251   0.15281   0.00000  Uiso   1.00
C535   C     0.98117   0.87251   0.18439   0.00000  Uiso   1.00
C536   C     0.97594   0.79663   0.14452   0.00000  Uiso   1.00
Cu537  Cu    0.83333   0.88022   0.16667   0.00000  Uiso   1.00
Cu538  Cu    0.83333   0.78645   0.16667   0.00000  Uiso   1.00
H539   H     0.67833   0.71426   0.19662   0.00000  Uiso   1.00
H540   H     0.73948   0.92705   0.27869   0.00000  Uiso   1.00
H541   H     0.73886   0.86606   0.26749   0.00000  Uiso   1.00
H542   H     0.69174   0.89506   0.28051   0.00000  Uiso   1.00
H543   H     0.79448   0.72177   0.01096   0.00000  Uiso   1.00
H544   H     0.90974   0.91782   0.28872   0.00000  Uiso   1.00
H545   H     0.88147   0.73754   0.31655   0.00000  Uiso   1.00
H546   H     0.73051   0.92012   0.07241   0.00000  Uiso   1.00
H547   H     0.72820   0.74125   0.21171   0.00000  Uiso   1.00
H548   H     0.72308   0.69195   0.17122   0.00000  Uiso   1.00
H549   H     0.94435   0.97392   0.17635   0.00000  Uiso   1.00
H550   H     0.94895   0.93192   0.12855   0.00000  Uiso   1.00
H551   H     0.99474   0.95911   0.16001   0.00000  Uiso   1.00
H552   H     0.92009   0.70975   0.10316   0.00000  Uiso   1.00
H553   H     0.94610   0.72017   0.16214   0.00000  Uiso   1.00
H554   H     0.97443   0.70348   0.10930   0.00000  Uiso   1.00
N555   N     0.83333   0.95069   0.16667   0.00000  Uiso   1.00
N556   N     0.83333   0.71598   0.16667   0.00000  Uiso   1.00
O557   O     0.77321   0.87291   0.16666   0.00000  Uiso   1.00
O558   O     0.96318   0.91136   0.20153   0.00000  Uiso   1.00
O559   O     0.95386   0.77042   0.10804   0.00000  Uiso   1.00
O560   O     0.71322   0.90674   0.21082   0.00000  Uiso   1.00
O561   O     0.76511   0.73652   0.08769   0.00000  Uiso   1.00
O562   O     0.81053   0.70533   0.03846   0.00000  Uiso   1.00
O563   O     0.84642   0.95766   0.28815   0.00000  Uiso   1.00
O564   O     0.90316   0.93117   0.25483   0.00000  Uiso   1.00
O565   O     0.91124   0.73397   0.23829   0.00000  Uiso   1.00
O566   O     0.86192   0.72036   0.29169   0.00000  Uiso   1.00
O567   O     0.79803   0.94307   0.04978   0.00000  Uiso   1.00
O568   O     0.89345   0.79375   0.16667   0.00000  Uiso   1.00
O569   O     0.74631   0.93608   0.10148   0.00000  Uiso   1.00
O570   O     0.89345   0.87291   0.16667   0.00000  Uiso   1.00
O571   O     0.77321   0.79375   0.16666   0.00000  Uiso   1.00
O572   O     0.83333   0.87292   0.09613   0.00000  Uiso   1.00
O573   O     0.83333   0.79375   0.23720   0.00000  Uiso   1.00
O574   O     0.83333   0.87292   0.23720   0.00000  Uiso   1.00
O575   O     0.83333   0.79375   0.09613   0.00000  Uiso   1.00
O576   O     0.70296   0.75209   0.13948   0.00000  Uiso   1.00
C577   C     0.08754   0.16593   0.50144   0.00000  Uiso   1.00
C578   C     0.02375   0.20329   0.52264   0.00000  Uiso   1.00
C579   C     0.29050   0.16831   0.49748   0.00000  Uiso   1.00
C580   C     0.04282   0.16442   0.50430   0.00000  Uiso   1.00
C581   C     0.14734   0.02350   0.46176   0.00000  Uiso   1.00
C582   C     0.18504   0.30992   0.53885   0.00000  Uiso   1.00
C583   C     0.18644   0.02581   0.53788   0.00000  Uiso   1.00
C584   C     0.14653   0.30755   0.46238   0.00000  Uiso   1.00
C585   C     0.04150   0.05748   0.51510   0.00000  Uiso   1.00
C586   C     0.29649   0.27850   0.49792   0.00000  Uiso   1.00
C587   C     0.28230   0.05744   0.45531   0.00000  Uiso   1.00
C588   C     0.24576   0.16732   0.49873   0.00000  Uiso   1.00
C589   C     0.05422   0.23113   0.59484   0.00000  Uiso   1.00
C590   C     0.12821   0.04595   0.41775   0.00000  Uiso   1.00
C591   C     0.19982   0.28792   0.58519   0.00000  Uiso   1.00
C592   C     0.21055   0.05098   0.57830   0.00000  Uiso   1.00
C593   C     0.11968   0.28244   0.42448   0.00000  Uiso   1.00
C594   C     0.16651   0.16652   0.40702   0.00000  Uiso   1.00
C595   C     0.16677   0.16681   0.59297   0.00000  Uiso   1.00
C596   C     0.16656   0.16647   0.35521   0.00000  Uiso   1.00
C597   C     0.16665   0.16687   0.64477   0.00000  Uiso   1.00
C598   C     0.01856   0.12585   0.48615   0.00000  Uiso   1.00
C599   C     0.31450   0.20584   0.51772   0.00000  Uiso   1.00
C600   C     0.30927   0.12996   0.47785   0.00000  Uiso   1.00
Cu601  Cu    0.16667   0.21355   0.50000   0.00000  Uiso   1.00
Cu602  Cu    0.16667   0.11978   0.50000   0.00000  Uiso   1.00
H603   H     0.01166   0.04759   0.52996   0.00000  Uiso   1.00
H604   H     0.07281   0.26039   0.61203   0.00000  Uiso   1.00
H605   H     0.07219   0.19940   0.60082   0.00000  Uiso   1.00
H606   H     0.02507   0.22839   0.61384   0.00000  Uiso   1.00
H607   H     0.12781   0.05510   0.34429   0.00000  Uiso   1.00
H608   H     0.24307   0.25115   0.62206   0.00000  Uiso   1.00
H609   H     0.21480   0.07088   0.64988   0.00000  Uiso   1.00
H610   H     0.06384   0.25345   0.40574   0.00000  Uiso   1.00
H611   H     0.06153   0.07458   0.54504   0.00000  Uiso   1.00
H612   H     0.05641   0.02528   0.50455   0.00000  Uiso   1.00
H613   H     0.27768   0.30725   0.50968   0.00000  Uiso   1.00
H614   H     0.28229   0.26525   0.46189   0.00000  Uiso   1.00
H615   H     0.32807   0.29245   0.49335   0.00000  Uiso   1.00
H616   H     0.25342   0.04309   0.43649   0.00000  Uiso   1.00
H617   H     0.27944   0.05350   0.49547   0.00000  Uiso   1.00
H618   H     0.30777   0.03681   0.44263   0.00000  Uiso   1.00
N619   N     0.16667   0.28402   0.50000   0.00000  Uiso   1.00
N620   N     0.16667   0.04931   0.50000   0.00000  Uiso   1.00
O621   O     0.10655   0.20625   0.50000   0.00000  Uiso   1.00
O622   O     0.29651   0.24469   0.53486   0.00000  Uiso   1.00
O623   O     0.28719   0.10376   0.44137   0.00000  Uiso   1.00
O624   O     0.04655   0.24007   0.54415   0.00000  Uiso   1.00
O625   O     0.09844   0.06985   0.42103   0.00000  Uiso   1.00
O626   O     0.14387   0.03866   0.37179   0.00000  Uiso   1.00
O627   O     0.17976   0.29100   0.62149   0.00000  Uiso   1.00
O628   O     0.23650   0.26450   0.58816   0.00000  Uiso   1.00
O629   O     0.24457   0.06731   0.57162   0.00000  Uiso   1.00
O630   O     0.19525   0.05369   0.62502   0.00000  Uiso   1.00
O631   O     0.13136   0.27641   0.38311   0.00000  Uiso   1.00
O632   O     0.22679   0.12709   0.50000   0.00000  Uiso   1.00
O633   O     0.07964   0.26942   0.43481   0.00000  Uiso   1.00
O634   O     0.22679   0.20625   0.50000   0.00000  Uiso   1.00
O635   O     0.10655   0.12709   0.50000   0.00000  Uiso   1.00
O636   O     0.16667   0.20625   0.42946   0.00000  Uiso   1.00
O637   O     0.16667   0.12708   0.57054   0.00000  Uiso   1.00
O638   O     0.16667   0.20625   0.57054   0.00000  Uiso   1.00
O639   O     0.16667   0.12708   0.42946   0.00000  Uiso   1.00
O640   O     0.03629   0.08542   0.47281   0.00000  Uiso   1.00
C641   C     0.42087   0.16593   0.50144   0.00000  Uiso   1.00
C642   C     0.35709   0.20329   0.52264   0.00000  Uiso   1.00
C643   C     0.62383   0.16831   0.49748   0.00000  Uiso   1.00
C644   C     0.37615   0.16442   0.50430   0.00000  Uiso   1.00
C645   C     0.48067   0.02350   0.46176   0.00000  Uiso   1.00
C646   C     0.51837   0.30992   0.53885   0.00000  Uiso   1.00
C647   C     0.51978   0.02581   0.53788   0.00000  Uiso   1.00
C648   C     0.47986   0.30755   0.46238   0.00000  Uiso   1.00
C649   C     0.37483   0.05748   0.51510   0.00000  Uiso   1.00
C650   C     0.62982   0.27850   0.49792   0.00000  Uiso   1.00
C651   C     0.61564   0.05744   0.45531   0.00000  Uiso   1.00
C652   C     0.57909   0.16732   0.49873   0.00000  Uiso   1.00
C653   C     0.38755   0.23113   0.59484   0.00000  Uiso   1.00
C654   C     0.46155   0.04595   0.41775   0.00000  Uiso   1.00
C655   C     0.53315   0.28792   0.58519   0.00000  Uiso   1.00
C656   C     0.54388   0.05098   0.57830   0.00000  Uiso   1.00
C657   C     0.45301   0.28244   0.42448   0.00000  Uiso   1.00
C658   C     0.49984   0.16652   0.40702   0.00000  Uiso   1.00
C659   C     0.50010   0.16681   0.59297   0.00000  Uiso   1.00
C660   C     0.49989   0.16647   0.35521   0.00000  Uiso   1.00
C661   C     0.49998   0.16687   0.64477   0.00000  Uiso   1.00
C662   C     0.35189   0.12585   0.48615   0.00000  Uiso   1.00
C663   C     0.64784   0.20584   0.51772   0.00000  Uiso   1.00
C664   C     0.64261   0.12996   0.47785   0.00000  Uiso   1.00
Cu665  Cu    0.50000   0.21355   0.50000   0.00000  Uiso   1.00
Cu666  Cu    0.50000   0.11978   0.50000   0.00000  Uiso   1.00
H667   H     0.34500   0.04759   0.52996   0.00000  Uiso   1.00
H668   H     0.40615   0.26039   0.61203   0.00000  Uiso   1.00
H669   H     0.40553   0.19940   0.60082   0.00000  Uiso   1.00
H670   H     0.35840   0.22839   0.61384   0.00000  Uiso   1.00
H671   H     0.46115   0.05510   0.34429   0.00000  Uiso   1.00
H672   H     0.57641   0.25115   0.62206   0.00000  Uiso   1.00
H673   H     0.54814   0.07088   0.64988   0.00000  Uiso   1.00
H674   H     0.39717   0.25345   0.40574   0.00000  Uiso   1.00
H675   H     0.39486   0.07458   0.54504   0.00000  Uiso   1.00
H676   H     0.38974   0.02528   0.50455   0.00000  Uiso   1.00
H677   H     0.61102   0.30725   0.50968   0.00000  Uiso   1.00
H678   H     0.61562   0.26525   0.46189   0.00000  Uiso   1.00
H679   H     0.66141   0.29245   0.49335   0.00000  Uiso   1.00
H680   H     0.58676   0.04309   0.43649   0.00000  Uiso   1.00
H681   H     0.61277   0.05350   0.49547   0.00000  Uiso   1.00
H682   H     0.64110   0.03681   0.44263   0.00000  Uiso   1.00
N683   N     0.50000   0.28402   0.50000   0.00000  Uiso   1.00
N684   N     0.50000   0.04931   0.50000   0.00000  Uiso   1.00
O685   O     0.43988   0.20625   0.50000   0.00000  Uiso   1.00
O686   O     0.62985   0.24469   0.53486   0.00000  Uiso   1.00
O687   O     0.62053   0.10376   0.44137   0.00000  Uiso   1.00
O688   O     0.37989   0.24007   0.54415   0.00000  Uiso   1.00
O689   O     0.43177   0.06985   0.42103   0.00000  Uiso   1.00
O690   O     0.47720   0.03866   0.37179   0.00000  Uiso   1.00
O691   O     0.51309   0.29100   0.62149   0.00000  Uiso   1.00
O692   O     0.56983   0.26450   0.58816   0.00000  Uiso   1.00
O693   O     0.57791   0.06731   0.57162   0.00000  Uiso   1.00
O694   O     0.52859   0.05369   0.62502   0.00000  Uiso   1.00
O695   O     0.46470   0.27641   0.38311   0.00000  Uiso   1.00
O696   O     0.56012   0.12709   0.50000   0.00000  Uiso   1.00
O697   O     0.41298   0.26942   0.43481   0.00000  Uiso   1.00
O698   O     0.56012   0.20625   0.50000   0.00000  Uiso   1.00
O699   O     0.43988   0.12709   0.50000   0.00000  Uiso   1.00
O700   O     0.50000   0.20625   0.42946   0.00000  Uiso   1.00
O701   O     0.50000   0.12708   0.57054   0.00000  Uiso   1.00
O702   O     0.50000   0.20625   0.57054   0.00000  Uiso   1.00
O703   O     0.50000   0.12708   0.42946   0.00000  Uiso   1.00
O704   O     0.36963   0.08542   0.47281   0.00000  Uiso   1.00
C705   C     0.75420   0.16593   0.50144   0.00000  Uiso   1.00
C706   C     0.69042   0.20329   0.52264   0.00000  Uiso   1.00
C707   C     0.95717   0.16831   0.49748   0.00000  Uiso   1.00
C708   C     0.70948   0.16442   0.50430   0.00000  Uiso   1.00
C709   C     0.81400   0.02350   0.46176   0.00000  Uiso   1.00
C710   C     0.85171   0.30992   0.53885   0.00000  Uiso   1.00
C711   C     0.85311   0.02581   0.53788   0.00000  Uiso   1.00
C712   C     0.81320   0.30755   0.46238   0.00000  Uiso   1.00
C713   C     0.70816   0.05748   0.51510   0.00000  Uiso   1.00
C714   C     0.96316   0.27850   0.49792   0.00000  Uiso   1.00
C715   C     0.94897   0.05744   0.45531   0.00000  Uiso   1.00
C716   C     0.91243   0.16732   0.49873   0.00000  Uiso   1.00
C717   C     0.72088   0.23113   0.59484   0.00000  Uiso   1.00
C718   C     0.79488   0.04595   0.41775   0.00000  Uiso   1.00
C719   C     0.86649   0.28792   0.58519   0.00000  Uiso   1.00
C720   C     0.87721   0.05098   0.57830   0.00000  Uiso   1.00
C721   C     0.78634   0.28244   0.42448   0.00000  Uiso   1.00
C722   C     0.83317   0.16652   0.40702   0.00000  Uiso   1.00
C723   C     0.83344   0.16681   0.59297   0.00000  Uiso   1.00
C724   C     0.83322   0.16647   0.35521   0.00000  Uiso   1.00
C725   C     0.83331   0.16687   0.64477   0.00000  Uiso   1.00
C726   C     0.68522   0.12585   0.48615   0.00000  Uiso   1.00
C727   C     0.98117   0.20584   0.51772   0.00000  Uiso   1.00
C728   C     0.97594   0.12996   0.47785   0.00000  Uiso   1.00
Cu729  Cu    0.83333   0.21355   0.50000   0.00000  Uiso   1.00
Cu730  Cu    0.83333   0.11978   0.50000   0.00000  Uiso   1.00
H731   H     0.67833   0.04759   0.52996   0.00000  Uiso   1.00
H732   H     0.73948   0.26039   0.61203   0.00000  Uiso   1.00
H733   H     0.73886   0.19940   0.60082   0.00000  Uiso   1.00
H734   H     0.69174   0.22839   0.61384   0.00000  Uiso   1.00
H735   H     0.79448   0.05510   0.34429   0.00000  Uiso   1.00
H736   H     0.90974   0.25115   0.62206   0.00000  Uiso   1.00
H737   H     0.88147   0.07088   0.64988   0.00000  Uiso   1.00
H738   H     0.73051   0.25345   0.40574   0.00000  Uiso   1.00
H739   H     0.72820   0.07458   0.54504   0.00000  Uiso   1.00
H740   H     0.72308   0.02528   0.50455   0.00000  Uiso   1.00
H741   H     0.94435   0.30725   0.50968   0.00000  Uiso   1.00
H742   H     0.94895   0.26525   0.46189   0.00000  Uiso   1.00
H743   H     0.99474   0.29245   0.49335   0.00000  Uiso   1.00
H744   H     0.92009   0.04309   0.43649   0.00000  Uiso   1.00
H745   H     0.94610   0.05350   0.49547   0.00000  Uiso   1.00
H746   H     0.97443   0.03681   0.44263   0.00000  Uiso   1.00
N747   N     0.83333   0.28402   0.50000   0.00000  Uiso   1.00
N748   N     0.83333   0.04931   0.50000   0.00000  Uiso   1.00
O749   O     0.77321   0.20625   0.50000   0.00000  Uiso   1.00
O750   O     0.96318   0.24469   0.53486   0.00000  Uiso   1.00
O751   O     0.95386   0.10376   0.44137   0.00000  Uiso   1.00
O752   O     0.71322   0.24007   0.54415   0.00000  Uiso   1.00
O753   O     0.76511   0.06985   0.42103   0.00000  Uiso   1.00
O754   O     0.81053   0.03866   0.37179   0.00000  Uiso   1.00
O755   O     0.84642   0.29100   0.62149   0.00000  Uiso   1.00
O756   O     0.90316   0.26450   0.58816   0.00000  Uiso   1.00
O757   O     0.91124   0.06731   0.57162   0.00000  Uiso   1.00
O758   O     0.86192   0.05369   0.62502   0.00000  Uiso   1.00
O759   O     0.79803   0.27641   0.38311   0.00000  Uiso   1.00
O760   O     0.89345   0.12709   0.50000   0.00000  Uiso   1.00
O761   O     0.74631   0.26942   0.43481   0.00000  Uiso   1.00
O762   O     0.89345   0.20625   0.50000   0.00000  Uiso   1.00
O763   O     0.77321   0.12709   0.50000   0.00000  Uiso   1.00
O764   O     0.83333   0.20625   0.42946   0.00000  Uiso   1.00
O765   O     0.83333   0.12708   0.57054   0.00000  Uiso   1.00
O766   O     0.83333   0.20625   0.57054   0.00000  Uiso   1.00
O767   O     0.83333   0.12708   0.42946   0.00000  Uiso   1.00
O768   O     0.70296   0.08542   0.47281   0.00000  Uiso   1.00
C769   C     0.08754   0.49926   0.50144   0.00000  Uiso   1.00
C770   C     0.02375   0.53662   0.52264   0.00000  Uiso   1.00
C771   C     0.29050   0.50164   0.49748   0.00000  Uiso   1.00
C772   C     0.04282   0.49775   0.50430   0.00000  Uiso   1.00
C773   C     0.14734   0.35683   0.46176   0.00000  Uiso   1.00
C774   C     0.18504   0.64326   0.53885   0.00000  Uiso   1.00
C775   C     0.18644   0.35914   0.53788   0.00000  Uiso   1.00
C776   C     0.14653   0.64088   0.46238   0.00000  Uiso   1.00
C777   C     0.04150   0.39082   0.51510   0.00000  Uiso   1.00
C778   C     0.29649   0.61183   0.49792   0.00000  Uiso   1.00
C779   C     0.28230   0.39077   0.45531   0.00000  Uiso   1.00
C780   C     0.24576   0.50065   0.49873   0.00000  Uiso   1.00
C781   C     0.05422   0.56447   0.59484   0.00000  Uiso   1.00
C782   C     0.12821   0.37928   0.41775   0.00000  Uiso   1.00
C783   C     0.19982   0.62126   0.58519   0.00000  Uiso   1.00
C784   C     0.21055   0.38432   0.57830   0.00000  Uiso   1.00
C785   C     0.11968   0.61577   0.42448   0.00000  Uiso   1.00
C786   C     0.16651   0.49985   0.40702   0.00000  Uiso   1.00
C787   C     0.16677   0.50014   0.59297   0.00000  Uiso   1.00
C788   C     0.16656   0.49980   0.35521   0.00000  Uiso   1.00
C789   C     0.16665   0.50020   0.64477   0.00000  Uiso   1.00
C790   C     0.01856   0.45918   0.48615   0.00000  Uiso   1.00
C791   C     0.31450   0.53917   0.51772   0.00000  Uiso   1.00
C792   C     0.30927   0.46330   0.47785   0.00000  Uiso   1.00
Cu793  Cu    0.16667   0.54689   0.50000   0.00000  Uiso   1.00
Cu794  Cu    0.16667   0.45311   0.50000   0.00000  Uiso   1.00
H795   H     0.01166   0.38093   0.52996   0.00000  Uiso   1.00
H796   H     0.07281   0.59372   0.61203   0.00000  Uiso   1.00
H797   H     0.07219   0.53273   0.60082   0.00000  Uiso   1.00
H798   H     0.02507   0.56172   0.61384   0.00000  Uiso   1.00
H799   H     0.12781   0.38843   0.34429   0.00000  Uiso   1.00
H800   H     0.24307   0.58449   0.62206   0.00000  Uiso   1.00
H801   H     0.21480   0.40421   0.64988   0.00000  Uiso   1.00
H802   H     0.06384   0.58679   0.40574   0.00000  Uiso   1.00
H803   H     0.06153   0.40792   0.54504   0.00000  Uiso   1.00
H804   H     0.05641   0.35862   0.50455   0.00000  Uiso   1.00
H805   H     0.27768   0.64058   0.50968   0.00000  Uiso   1.00
H806   H     0.28229   0.59858   0.46189   0.00000  Uiso   1.00
H807   H     0.32807   0.62578   0.49335   0.00000  Uiso   1.00
H808   H     0.25342   0.37642   0.43649   0.00000  Uiso   1.00
H809   H     0.27944   0.38684   0.49547   0.00000  Uiso   1.00
H810   H     0.30777   0.37015   0.44263   0.00000  Uiso   1.00
N811   N     0.16667   0.61736   0.50000   0.00000  Uiso   1.00
N812   N     0.16667   0.38264   0.50000   0.00000  Uiso   1.00
O813   O     0.10655   0.53958   0.50000   0.00000  Uiso   1.00
O814   O     0.29651   0.57803   0.53486   0.00000  Uiso   1.00
O815   O     0.28719   0.43709   0.44137   0.00000  Uiso   1.00
O816   O     0.04655   0.57341   0.54415   0.00000  Uiso   1.00
O817   O     0.09844   0.40318   0.42103   0.00000  Uiso   1.00
O818   O     0.14387   0.37199   0.37179   0.00000  Uiso   1.00
O819   O     0.17976   0.62433   0.62149   0.00000  Uiso   1.00
O820   O     0.23650   0.59783   0.58816   0.00000  Uiso   1.00
O821   O     0.24457   0.40064   0.57162   0.00000  Uiso   1.00
O822   O     0.19525   0.38703   0.62502   0.00000  Uiso   1.00
O823   O     0.13136   0.60974   0.38311   0.00000  Uiso   1.00
O824   O     0.22679   0.46042   0.50000   0.00000  Uiso   1.00
O825   O     0.07964   0.60275   0.43481   0.00000  Uiso   1.00
O826   O     0.22679   0.53958   0.50000   0.00000  Uiso   1.00
O827   O     0.10655   0.46042   0.50000   0.00000  Uiso   1.00
O828   O     0.16667   0.53959   0.42946   0.00000  Uiso   1.00
O829   O     0.16667   0.46041   0.57054   0.00000  Uiso   1.00
O830   O     0.16667   0.53959   0.57054   0.00000  Uiso   1.00
O831   O     0.16667   0.46041   0.42946   0.00000  Uiso   1.00
O832   O     0.03629   0.41876   0.47281   0.00000  Uiso   1.00
C833   C     0.42087   0.49926   0.50144   0.00000  Uiso   1.00
C834   C     0.35709   0.53662   0.52264   0.00000  Uiso   1.00
C835   C     0.62383   0.50164   0.49748   0.00000  Uiso   1.00
C836   C     0.37615   0.49775   0.50430   0.00000  Uiso   1.00
C837   C     0.48067   0.35683   0.46176   0.00000  Uiso   1.00
C838   C     0.51837   0.64326   0.53885   0.00000  Uiso   1.00
C839   C     0.51978   0.35914   0.53788   0.00000  Uiso   1.00
C840   C     0.47986   0.64088   0.46238   0.00000  Uiso   1.00
C841   C     0.37483   0.39082   0.51510   0.00000  Uiso   1.00
C842   C     0.62982   0.61183   0.49792   0.00000  Uiso   1.00
C843   C     0.61564   0.39077   0.45531   0.00000  Uiso   1.00
C844   C     0.57909   0.50065   0.49873   0.00000  Uiso   1.00
C845   C     0.38755   0.56447   0.59484   0.00000  Uiso   1.00
C846   C     0.46155   0.37928   0.41775   0.00000  Uiso   1.00
C847   C     0.53315   0.62126   0.58519   0.00000  Uiso   1.00
C848   C     0.54388   0.38432   0.57830   0.00000  Uiso   1.00
C849   C     0.45301   0.61577   0.42448   0.00000  Uiso   1.00
C850   C     0.49984   0.49985   0.40702   0.00000  Uiso   1.00
C851   C     0.50010   0.50014   0.59297   0.00000  Uiso   1.00
C852   C     0.49989   0.49980   0.35521   0.00000  Uiso   1.00
C853   C     0.49998   0.50020   0.64477   0.00000  Uiso   1.00
C854   C     0.35189   0.45918   0.48615   0.00000  Uiso   1.00
C855   C     0.64784   0.53917   0.51772   0.00000  Uiso   1.00
C856   C     0.64261   0.46330   0.47785   0.00000  Uiso   1.00
Cu857  Cu    0.50000   0.54689   0.50000   0.00000  Uiso   1.00
Cu858  Cu    0.50000   0.45311   0.50000   0.00000  Uiso   1.00
H859   H     0.34500   0.38093   0.52996   0.00000  Uiso   1.00
H860   H     0.40615   0.59372   0.61203   0.00000  Uiso   1.00
H861   H     0.40553   0.53273   0.60082   0.00000  Uiso   1.00
H862   H     0.35840   0.56172   0.61384   0.00000  Uiso   1.00
H863   H     0.46115   0.38843   0.34429   0.00000  Uiso   1.00
H864   H     0.57641   0.58449   0.62206   0.00000  Uiso   1.00
H865   H     0.54814   0.40421   0.64988   0.00000  Uiso   1.00
H866   H     0.39717   0.58679   0.40574   0.00000  Uiso   1.00
H867   H     0.39486   0.40792   0.54504   0.00000  Uiso   1.00
H868   H     0.38974   0.35862   0.50455   0.00000  Uiso   1.00
H869   H     0.61102   0.64058   0.50968   0.00000  Uiso   1.00
H870   H     0.61562   0.59858   0.46189   0.00000  Uiso   1.00
H871   H     0.66141   0.62578   0.49335   0.00000  Uiso   1.00
H872   H     0.58676   0.37642   0.43649   0.00000  Uiso   1.00
H873   H     0.61277   0.38684   0.49547   0.00000  Uiso   1.00
H874   H     0.64110   0.37015   0.44263   0.00000  Uiso   1.00
N875   N     0.50000   0.61736   0.50000   0.00000  Uiso   1.00
N876   N     0.50000   0.38264   0.50000   0.00000  Uiso   1.00
O877   O     0.43988   0.53958   0.50000   0.00000  Uiso   1.00
O878   O     0.62985   0.57803   0.53486   0.00000  Uiso   1.00
O879   O     0.62053   0.43709   0.44137   0.00000  Uiso   1.00
O880   O     0.37989   0.57341   0.54415   0.00000  Uiso   1.00
O881   O     0.43177   0.40318   0.42103   0.00000  Uiso   1.00
O882   O     0.47720   0.37199   0.37179   0.00000  Uiso   1.00
O883   O     0.51309   0.62433   0.62149   0.00000  Uiso   1.00
O884   O     0.56983   0.59783   0.58816   0.00000  Uiso   1.00
O885   O     0.57791   0.40064   0.57162   0.00000  Uiso   1.00
O886   O     0.52859   0.38703   0.62502   0.00000  Uiso   1.00
O887   O     0.46470   0.60974   0.38311   0.00000  Uiso   1.00
O888   O     0.56012   0.46042   0.50000   0.00000  Uiso   1.00
O889   O     0.41298   0.60275   0.43481   0.00000  Uiso   1.00
O890   O     0.56012   0.53958   0.50000   0.00000  Uiso   1.00
O891   O     0.43988   0.46042   0.50000   0.00000  Uiso   1.00
O892   O     0.50000   0.53959   0.42946   0.00000  Uiso   1.00
O893   O     0.50000   0.46041   0.57054   0.00000  Uiso   1.00
O894   O     0.50000   0.53959   0.57054   0.00000  Uiso   1.00
O895   O     0.50000   0.46041   0.42946   0.00000  Uiso   1.00
O896   O     0.36963   0.41876   0.47281   0.00000  Uiso   1.00
C897   C     0.75420   0.49926   0.50144   0.00000  Uiso   1.00
C898   C     0.69042   0.53662   0.52264   0.00000  Uiso   1.00
C899   C     0.95717   0.50164   0.49748   0.00000  Uiso   1.00
C900   C     0.70948   0.49775   0.50430   0.00000  Uiso   1.00
C901   C     0.81400   0.35683   0.46176   0.00000  Uiso   1.00
C902   C     0.85171   0.64326   0.53885   0.00000  Uiso   1.00
C903   C     0.85311   0.35914   0.53788   0.00000  Uiso   1.00
C904   C     0.81320   0.64088   0.46238   0.00000  Uiso   1.00
C905   C     0.70816   0.39082   0.51510   0.00000  Uiso   1.00
C906   C     0.96316   0.61183   0.49792   0.00000  Uiso   1.00
C907   C     0.94897   0.39077   0.45531   0.00000  Uiso   1.00
C908   C     0.91243   0.50065   0.49873   0.00000  Uiso   1.00
C909   C     0.72088   0.56447   0.59484   0.00000  Uiso   1.00
C910   C     0.79488   0.37928   0.41775   0.00000  Uiso   1.00
C911   C     0.86649   0.62126   0.58519   0.00000  Uiso   1.00
C912   C     0.87721   0.38432   0.57830   0.00000  Uiso   1.00
C913   C     0.78634   0.61577   0.42448   0.00000  Uiso   1.00
C914   C     0.83317   0.49985   0.40702   0.00000  Uiso   1.00
C915   C     0.83344   0.50014   0.59297   0.00000  Uiso   1.00
C916   C     0.83322   0.49980   0.35521   0.00000  Uiso   1.00
C917   C     0.83331   0.50020   0.64477   0.00000  Uiso   1.00
C918   C     0.68522   0.45918   0.48615   0.00000  Uiso   1.00
C919   C     0.98117   0.53917   0.51772   0.00000  Uiso   1.00
C920   C     0.97594   0.46330   0.47785   0.00000  Uiso   1.00
Cu921  Cu    0.83333   0.54689   0.50000   0.00000  Uiso   1.00
Cu922  Cu    0.83333   0.45311   0.50000   0.00000  Uiso   1.00
H923   H     0.67833   0.38093   0.52996   0.00000  Uiso   1.00
H924   H     0.73948   0.59372   0.61203   0.00000  Uiso   1.00
H925   H     0.73886   0.53273   0.60082   0.00000  Uiso   1.00
H926   H     0.69174   0.56172   0.61384   0.00000  Uiso   1.00
H927   H     0.79448   0.38843   0.34429   0.00000  Uiso   1.00
H928   H     0.90974   0.58449   0.62206   0.00000  Uiso   1.00
H929   H     0.88147   0.40421   0.64988   0.00000  Uiso   1.00
H930   H     0.73051   0.58679   0.40574   0.00000  Uiso   1.00
H931   H     0.72820   0.40792   0.54504   0.00000  Uiso   1.00
H932   H     0.72308   0.35862   0.50455   0.00000  Uiso   1.00
H933   H     0.94435   0.64058   0.50968   0.00000  Uiso   1.00
H934   H     0.94895   0.59858   0.46189   0.00000  Uiso   1.00
H935   H     0.99474   0.62578   0.49335   0.00000  Uiso   1.00
H936   H     0.92009   0.37642   0.43649   0.00000  Uiso   1.00
H937   H     0.94610   0.38684   0.49547   0.00000  Uiso   1.00
H938   H     0.97443   0.37015   0.44263   0.00000  Uiso   1.00
N939   N     0.83333   0.61736   0.50000   0.00000  Uiso   1.00
N940   N     0.83333   0.38264   0.50000   0.00000  Uiso   1.00
O941   O     0.77321   0.53958   0.50000   0.00000  Uiso   1.00
O942   O     0.96318   0.57803   0.53486   0.00000  Uiso   1.00
O943   O     0.95386   0.43709   0.44137   0.00000  Uiso   1.00
O944   O     0.71322   0.57341   0.54415   0.00000  Uiso   1.00
O945   O     0.76511   0.40318   0.42103   0.00000  Uiso   1.00
O946   O     0.81053   0.37199   0.37179   0.00000  Uiso   1.00
O947   O     0.84642   0.62433   0.62149   0.00000  Uiso   1.00
O948   O     0.90316   0.59783   0.58816   0.00000  Uiso   1.00
O949   O     0.91124   0.40064   0.57162   0.00000  Uiso   1.00
O950   O     0.86192   0.38703   0.62502   0.00000  Uiso   1.00
O951   O     0.79803   0.60974   0.38311   0.00000  Uiso   1.00
O952   O     0.89345   0.46042   0.50000   0.00000  Uiso   1.00
O953   O     0.74631   0.60275   0.43481   0.00000  Uiso   1.00
O954   O     0.89345   0.53958   0.50000   0.00000  Uiso   1.00
O955   O     0.77321   0.46042   0.50000   0.00000  Uiso   1.00
O956   O     0.83333   0.53959   0.42946   0.00000  Uiso   1.00
O957   O     0.83333   0.46041   0.57054   0.00000  Uiso   1.00
O958   O     0.83333   0.53959   0.57054   0.00000  Uiso   1.00
O959   O     0.83333   0.46041   0.42946   0.00000  Uiso   1.00
O960   O     0.70296   0.41876   0.47281   0.00000  Uiso   1.00
C961   C     0.08754   0.83259   0.50144   0.00000  Uiso   1.00
C962   C     0.02375   0.86996   0.52264   0.00000  Uiso   1.00
C963   C     0.29050   0.83497   0.49748   0.00000  Uiso   1.00
C964   C     0.04282   0.83109   0.50430   0.00000  Uiso   1.00
C965   C     0.14734   0.69016   0.46176   0.00000  Uiso   1.00
C966   C     0.18504   0.97659   0.53885   0.00000  Uiso   1.00
C967   C     0.18644   0.69247   0.53788   0.00000  Uiso   1.00
C968   C     0.14653   0.97422   0.46238   0.00000  Uiso   1.00
C969   C     0.04150   0.72415   0.51510   0.00000  Uiso   1.00
C970   C     0.29649   0.94517   0.49792   0.00000  Uiso   1.00
C971   C     0.28230   0.72410   0.45531   0.00000  Uiso   1.00
C972   C     0.24576   0.83399   0.49873   0.00000  Uiso   1.00
C973   C     0.05422   0.89780   0.59484   0.00000  Uiso   1.00
C974   C     0.12821   0.71262   0.41775   0.00000  Uiso   1.00
C975   C     0.19982   0.95459   0.58519   0.00000  Uiso   1.00
C976   C     0.21055   0.71765   0.57830   0.00000  Uiso   1.00
C977   C     0.11968   0.94910   0.42448   0.00000  Uiso   1.00
C978   C     0.16651   0.83319   0.40702   0.00000  Uiso   1.00
C979   C     0.16677   0.83348   0.59297   0.00000  Uiso   1.00
C980   C     0.16656   0.83314   0.35521   0.00000  Uiso   1.00
C981   C     0.16665   0.83354   0.64477   0.00000  Uiso   1.00
C982   C     0.01856   0.79251   0.48615   0.00000  Uiso   1.00
C983   C     0.31450   0.87251   0.51772   0.00000  Uiso   1.00
C984   C     0.30927   0.79663   0.47785   0.00000  Uiso   1.00
Cu985  Cu    0.16667   0.88022   0.50000   0.00000  Uiso   1.00
Cu986  Cu    0.16667   0.78645   0.50000   0.00000  Uiso   1.00
H987   H     0.01166   0.71426   0.52996   0.00000  Uiso   1.00
H988   H     0.07281   0.92705   0.61203   0.00000  Uiso   1.00
H989   H     0.07219   0.86606   0.60082   0.00000  Uiso   1.00
H990   H     0.02507   0.89506   0.61384   0.00000  Uiso   1.00
H991   H     0.12781   0.72177   0.34429   0.00000  Uiso   1.00
H992   H     0.24307   0.91782   0.62206   0.00000  Uiso   1.00
H993   H     0.21480   0.73754   0.64988   0.00000  Uiso   1.00
H994   H     0.06384   0.92012   0.40574   0.00000  Uiso   1.00
H995   H     0.06153   0.74125   0.54504   0.00000  Uiso   1.00
H996   H     0.05641   0.69195   0.50455   0.00000  Uiso   1.00
H997   H     0.27768   0.97392   0.50968   0.00000  Uiso   1.00
H998   H     0.28229   0.93192   0.46189   0.00000  Uiso   1.00
H999   H     0.32807   0.95911   0.49335   0.00000  Uiso   1.00
H1000  H     0.25342   0.70975   0.43649   0.00000  Uiso   1.00
H1001  H     0.27944   0.72017   0.49547   0.00000  Uiso   1.00
H1002  H     0.30777   0.70348   0.44263   0.00000  Uiso   1.00
N1003  N     0.16667   0.95069   0.50000   0.00000  Uiso   1.00
N1004  N     0.16667   0.71598   0.50000   0.00000  Uiso   1.00
O1005  O     0.10655   0.87291   0.50000   0.00000  Uiso   1.00
O1006  O     0.29651   0.91136   0.53486   0.00000  Uiso   1.00
O1007  O     0.28719   0.77042   0.44137   0.00000  Uiso   1.00
O1008  O     0.04655   0.90674   0.54415   0.00000  Uiso   1.00
O1009  O     0.09844   0.73652   0.42103   0.00000  Uiso   1.00
O1010  O     0.14387   0.70533   0.37179   0.00000  Uiso   1.00
O1011  O     0.17976   0.95766   0.62149   0.00000  Uiso   1.00
O1012  O     0.23650   0.93117   0.58816   0.00000  Uiso   1.00
O1013  O     0.24457   0.73397   0.57162   0.00000  Uiso   1.00
O1014  O     0.19525   0.72036   0.62502   0.00000  Uiso   1.00
O1015  O     0.13136   0.94307   0.38311   0.00000  Uiso   1.00
O1016  O     0.22679   0.79375   0.50000   0.00000  Uiso   1.00
O1017  O     0.07964   0.93608   0.43481   0.00000  Uiso   1.00
O1018  O     0.22679   0.87291   0.50000   0.00000  Uiso   1.00
O1019  O     0.10655   0.79375   0.50000   0.00000  Uiso   1.00
O1020  O     0.16667   0.87292   0.42946   0.00000  Uiso   1.00
O1021  O     0.16667   0.79375   0.57054   0.00000  Uiso   1.00
O1022  O     0.16667   0.87292   0.57054   0.00000  Uiso   1.00
O1023  O     0.16667   0.79375   0.42946   0.00000  Uiso   1.00
O1024  O     0.03629   0.75209   0.47281   0.00000  Uiso   1.00
C1025  C     0.42087   0.83259   0.50144   0.00000  Uiso   1.00
C1026  C     0.35709   0.86996   0.52264   0.00000  Uiso   1.00
C1027  C     0.62383   0.83497   0.49748   0.00000  Uiso   1.00
C1028  C     0.37615   0.83109   0.50430   0.00000  Uiso   1.00
C1029  C     0.48067   0.69016   0.46176   0.00000  Uiso   1.00
C1030  C     0.51837   0.97659   0.53885   0.00000  Uiso   1.00
C1031  C     0.51978   0.69247   0.53788   0.00000  Uiso   1.00
C1032  C     0.47986   0.97422   0.46238   0.00000  Uiso   1.00
C1033  C     0.37483   0.72415   0.51510   0.00000  Uiso   1.00
C1034  C     0.62982   0.94517   0.49792   0.00000  Uiso   1.00
C1035  C     0.61564   0.72410   0.45531   0.00000  Uiso   1.00
C1036  C     0.57909   0.83399   0.49873   0.00000  Uiso   1.00
C1037  C     0.38755   0.89780   0.59484   0.00000  Uiso   1.00
C1038  C     0.46155   0.71262   0.41775   0.00000  Uiso   1.00
C1039  C     0.53315   0.95459   0.58519   0.00000  Uiso   1.00
C1040  C     0.54388   0.71765   0.57830   0.00000  Uiso   1.00
C1041  C     0.45301   0.94910   0.42448   0.00000  Uiso   1.00
C1042  C     0.49984   0.83319   0.40702   0.00000  Uiso   1.00
C1043  C     0.50010   0.83348   0.59297   0.00000  Uiso   1.00
C1044  C     0.49989   0.83314   0.35521   0.00000  Uiso   1.00
C1045  C     0.49998   0.83354   0.64477   0.00000  Uiso   1.00
C1046  C     0.35189   0.79251   0.48615   0.00000  Uiso   1.00
C1047  C     0.64784   0.87251   0.51772   0.00000  Uiso   1.00
C1048  C     0.64261   0.79663   0.47785   0.00000  Uiso   1.00
Cu1049 Cu    0.50000   0.88022   0.50000   0.00000  Uiso   1.00
Cu1050 Cu    0.50000   0.78645   0.50000   0.00000  Uiso   1.00
H1051  H     0.34500   0.71426   0.52996   0.00000  Uiso   1.00
H1052  H     0.40615   0.92705   0.61203   0.00000  Uiso   1.00
H1053  H     0.40553   0.86606   0.60082   0.00000  Uiso   1.00
H1054  H     0.35840   0.89506   0.61384   0.00000  Uiso   1.00
H1055  H     0.46115   0.72177   0.34429   0.00000  Uiso   1.00
H1056  H     0.57641   0.91782   0.62206   0.00000  Uiso   1.00
H1057  H     0.54814   0.73754   0.64988   0.00000  Uiso   1.00
H1058  H     0.39717   0.92012   0.40574   0.00000  Uiso   1.00
H1059  H     0.39486   0.74125   0.54504   0.00000  Uiso   1.00
H1060  H     0.38974   0.69195   0.50455   0.00000  Uiso   1.00
H1061  H     0.61102   0.97392   0.50968   0.00000  Uiso   1.00
H1062  H     0.61562   0.93192   0.46189   0.00000  Uiso   1.00
H1063  H     0.66141   0.95911   0.49335   0.00000  Uiso   1.00
H1064  H     0.58676   0.70975   0.43649   0.00000  Uiso   1.00
H1065  H     0.61277   0.72017   0.49547   0.00000  Uiso   1.00
H1066  H     0.64110   0.70348   0.44263   0.00000  Uiso   1.00
N1067  N     0.50000   0.95069   0.50000   0.00000  Uiso   1.00
N1068  N     0.50000   0.71598   0.50000   0.00000  Uiso   1.00
O1069  O     0.43988   0.87291   0.50000   0.00000  Uiso   1.00
O1070  O     0.62985   0.91136   0.53486   0.00000  Uiso   1.00
O1071  O     0.62053   0.77042   0.44137   0.00000  Uiso   1.00
O1072  O     0.37989   0.90674   0.54415   0.00000  Uiso   1.00
O1073  O     0.43177   0.73652   0.42103   0.00000  Uiso   1.00
O1074  O     0.47720   0.70533   0.37179   0.00000  Uiso   1.00
O1075  O     0.51309   0.95766   0.62149   0.00000  Uiso   1.00
O1076  O     0.56983   0.93117   0.58816   0.00000  Uiso   1.00
O1077  O     0.57791   0.73397   0.57162   0.00000  Uiso   1.00
O1078  O     0.52859   0.72036   0.62502   0.00000  Uiso   1.00
O1079  O     0.46470   0.94307   0.38311   0.00000  Uiso   1.00
O1080  O     0.56012   0.79375   0.50000   0.00000  Uiso   1.00
O1081  O     0.41298   0.93608   0.43481   0.00000  Uiso   1.00
O1082  O     0.56012   0.87291   0.50000   0.00000  Uiso   1.00
O1083  O     0.43988   0.79375   0.50000   0.00000  Uiso   1.00
O1084  O     0.50000   0.87292   0.42946   0.00000  Uiso   1.00
O1085  O     0.50000   0.79375   0.57054   0.00000  Uiso   1.00
O1086  O     0.50000   0.87292   0.57054   0.00000  Uiso   1.00
O1087  O     0.50000   0.79375   0.42946   0.00000  Uiso   1.00
O1088  O     0.36963   0.75209   0.47281   0.00000  Uiso   1.00
C1089  C     0.75420   0.83259   0.50144   0.00000  Uiso   1.00
C1090  C     0.69042   0.86996   0.52264   0.00000  Uiso   1.00
C1091  C     0.95717   0.83497   0.49748   0.00000  Uiso   1.00
C1092  C     0.70948   0.83109   0.50430   0.00000  Uiso   1.00
C1093  C     0.81400   0.69016   0.46176   0.00000  Uiso   1.00
C1094  C     0.85171   0.97659   0.53885   0.00000  Uiso   1.00
C1095  C     0.85311   0.69247   0.53788   0.00000  Uiso   1.00
C1096  C     0.81320   0.97422   0.46238   0.00000  Uiso   1.00
C1097  C     0.70816   0.72415   0.51510   0.00000  Uiso   1.00
C1098  C     0.96316   0.94517   0.49792   0.00000  Uiso   1.00
C1099  C     0.94897   0.72410   0.45531   0.00000  Uiso   1.00
C1100  C     0.91243   0.83399   0.49873   0.00000  Uiso   1.00
C1101  C     0.72088   0.89780   0.59484   0.00000  Uiso   1.00
C1102  C     0.79488   0.71262   0.41775   0.00000  Uiso   1.00
C1103  C     0.86649   0.95459   0.58519   0.00000  Uiso   1.00
C1104  C     0.87721   0.71765   0.57830   0.00000  Uiso   1.00
C1105  C     0.78634   0.94910   0.42448   0.00000  Uiso   1.00
C1106  C     0.83317   0.83319   0.40702   0.00000  Uiso   1.00
C1107  C     0.83344   0.83348   0.59297   0.00000  Uiso   1.00
C1108  C     0.83322   0.83314   0.35521   0.00000  Uiso   1.00
C1109  C     0.83331   0.83354   0.64477   0.00000  Uiso   1.00
C1110  C     0.68522   0.79251   0.48615   0.00000  Uiso   1.00
C1111  C     0.98117   0.87251   0.51772   0.00000  Uiso   1.00
C1112  C     0.97594   0.79663   0.47785   0.00000  Uiso   1.00
Cu1113 Cu    0.83333   0.88022   0.50000   0.00000  Uiso   1.00
Cu1114 Cu    0.83333   0.78645   0.50000   0.00000  Uiso   1.00
H1115  H     0.67833   0.71426   0.52996   0.00000  Uiso   1.00
H1116  H     0.73948   0.92705   0.61203   0.00000  Uiso   1.00
H1117  H     0.73886   0.86606   0.60082   0.00000  Uiso   1.00
H1118  H     0.69174   0.89506   0.61384   0.00000  Uiso   1.00
H1119  H     0.79448   0.72177   0.34429   0.00000  Uiso   1.00
H1120  H     0.90974   0.91782   0.62206   0.00000  Uiso   1.00
H1121  H     0.88147   0.73754   0.64988   0.00000  Uiso   1.00
H1122  H     0.73051   0.92012   0.40574   0.00000  Uiso   1.00
H1123  H     0.72820   0.74125   0.54504   0.00000  Uiso   1.00
H1124  H     0.72308   0.69195   0.50455   0.00000  Uiso   1.00
H1125  H     0.94435   0.97392   0.50968   0.00000  Uiso   1.00
H1126  H     0.94895   0.93192   0.46189   0.00000  Uiso   1.00
H1127  H     0.99474   0.95911   0.49335   0.00000  Uiso   1.00
H1128  H     0.92009   0.70975   0.43649   0.00000  Uiso   1.00
H1129  H     0.94610   0.72017   0.49547   0.00000  Uiso   1.00
H1130  H     0.97443   0.70348   0.44263   0.00000  Uiso   1.00
N1131  N     0.83333   0.95069   0.50000   0.00000  Uiso   1.00
N1132  N     0.83333   0.71598   0.50000   0.00000  Uiso   1.00
O1133  O     0.77321   0.87291   0.50000   0.00000  Uiso   1.00
O1134  O     0.96318   0.91136   0.53486   0.00000  Uiso   1.00
O1135  O     0.95386   0.77042   0.44137   0.00000  Uiso   1.00
O1136  O     0.71322   0.90674   0.54415   0.00000  Uiso   1.00
O1137  O     0.76511   0.73652   0.42103   0.00000  Uiso   1.00
O1138  O     0.81053   0.70533   0.37179   0.00000  Uiso   1.00
O1139  O     0.84642   0.95766   0.62149   0.00000  Uiso   1.00
O1140  O     0.90316   0.93117   0.58816   0.00000  Uiso   1.00
O1141  O     0.91124   0.73397   0.57162   0.00000  Uiso   1.00
O1142  O     0.86192   0.72036   0.62502   0.00000  Uiso   1.00
O1143  O     0.79803   0.94307   0.38311   0.00000  Uiso   1.00
O1144  O     0.89345   0.79375   0.50000   0.00000  Uiso   1.00
O1145  O     0.74631   0.93608   0.43481   0.00000  Uiso   1.00
O1146  O     0.89345   0.87291   0.50000   0.00000  Uiso   1.00
O1147  O     0.77321   0.79375   0.50000   0.00000  Uiso   1.00
O1148  O     0.83333   0.87292   0.42946   0.00000  Uiso   1.00
O1149  O     0.83333   0.79375   0.57054   0.00000  Uiso   1.00
O1150  O     0.83333   0.87292   0.57054   0.00000  Uiso   1.00
O1151  O     0.83333   0.79375   0.42946   0.00000  Uiso   1.00
O1152  O     0.70296   0.75209   0.47281   0.00000  Uiso   1.00
C1153  C     0.08754   0.16593   0.83477   0.00000  Uiso   1.00
C1154  C     0.02375   0.20329   0.85597   0.00000  Uiso   1.00
C1155  C     0.29050   0.16831   0.83082   0.00000  Uiso   1.00
C1156  C     0.04282   0.16442   0.83763   0.00000  Uiso   1.00
C1157  C     0.14734   0.02350   0.79509   0.00000  Uiso   1.00
C1158  C     0.18504   0.30992   0.87218   0.00000  Uiso   1.00
C1159  C     0.18644   0.02581   0.87122   0.00000  Uiso   1.00
C1160  C     0.14653   0.30755   0.79571   0.00000  Uiso   1.00
C1161  C     0.04150   0.05748   0.84844   0.00000  Uiso   1.00
C1162  C     0.29649   0.27850   0.83125   0.00000  Uiso   1.00
C1163  C     0.28230   0.05744   0.78865   0.00000  Uiso   1.00
C1164  C     0.24576   0.16732   0.83206   0.00000  Uiso   1.00
C1165  C     0.05422   0.23113   0.92818   0.00000  Uiso   1.00
C1166  C     0.12821   0.04595   0.75109   0.00000  Uiso   1.00
C1167  C     0.19982   0.28792   0.91852   0.00000  Uiso   1.00
C1168  C     0.21055   0.05098   0.91163   0.00000  Uiso   1.00
C1169  C     0.11968   0.28244   0.75781   0.00000  Uiso   1.00
C1170  C     0.16651   0.16652   0.74035   0.00000  Uiso   1.00
C1171  C     0.16677   0.16681   0.92631   0.00000  Uiso   1.00
C1172  C     0.16656   0.16647   0.68855   0.00000  Uiso   1.00
C1173  C     0.16665   0.16687   0.97810   0.00000  Uiso   1.00
C1174  C     0.01856   0.12585   0.81948   0.00000  Uiso   1.00
C1175  C     0.31450   0.20584   0.85105   0.00000  Uiso   1.00
C1176  C     0.30927   0.12996   0.81118   0.00000  Uiso   1.00
Cu1177 Cu    0.16667   0.21355   0.83333   0.00000  Uiso   1.00
Cu1178 Cu    0.16667   0.11978   0.83333   0.00000  Uiso   1.00
H1179  H     0.01166   0.04759   0.86329   0.00000  Uiso   1.00
H1180  H     0.07281   0.26039   0.94536   0.00000  Uiso   1.00
H1181  H     0.07219   0.19940   0.93415   0.00000  Uiso   1.00
H1182  H     0.02507   0.22839   0.94718   0.00000  Uiso   1.00
H1183  H     0.12781   0.05510   0.67763   0.00000  Uiso   1.00
H1184  H     0.24307   0.25115   0.95539   0.00000  Uiso   1.00
H1185  H     0.21480   0.07088   0.98321   0.00000  Uiso   1.00
H1186  H     0.06384   0.25345   0.73907   0.00000  Uiso   1.00
H1187  H     0.06153   0.07458   0.87838   0.00000  Uiso   1.00
H1188  H     0.05641   0.02528   0.83788   0.00000  Uiso   1.00
H1189  H     0.27768   0.30725   0.84302   0.00000  Uiso   1.00
H1190  H     0.28229   0.26525   0.79522   0.00000  Uiso   1.00
H1191  H     0.32807   0.29245   0.82668   0.00000  Uiso   1.00
H1192  H     0.25342   0.04309   0.76983   0.00000  Uiso   1.00
H1193  H     0.27944   0.05350   0.82880   0.00000  Uiso   1.00
H1194  H     0.30777   0.03681   0.77596   0.00000  Uiso   1.00
N1195  N     0.16667   0.28402   0.83333   0.00000  Uiso   1.00
N1196  N     0.16667   0.04931   0.83333   0.00000  Uiso   1.00
O1197  O     0.10655   0.20625   0.83333   0.00000  Uiso   1.00
O1198  O     0.29651   0.24469   0.86820   0.00000  Uiso   1.00
O1199  O     0.28719   0.10376   0.77470   0.00000  Uiso   1.00
O1200  O     0.04655   0.24007   0.87749   0.00000  Uiso   1.00
O1201  O     0.09844   0.06985   0.75436   0.00000  Uiso   1.00
O1202  O     0.14387   0.03866   0.70513   0.00000  Uiso   1.00
O1203  O     0.17976   0.29100   0.95482   0.00000  Uiso   1.00
O1204  O     0.23650   0.26450   0.92150   0.00000  Uiso   1.00
O1205  O     0.24457   0.06731   0.90496   0.00000  Uiso   1.00
O1206  O     0.19525   0.05369   0.95835   0.00000  Uiso   1.00
O1207  O     0.13136   0.27641   0.71644   0.00000  Uiso   1.00
O1208  O     0.22679   0.12709   0.83334   0.00000  Uiso   1.00
O1209  O     0.07964   0.26942   0.76814   0.00000  Uiso   1.00
O1210  O     0.22679   0.20625   0.83334   0.00000  Uiso   1.00
O1211  O     0.10655   0.12709   0.83333   0.00000  Uiso   1.00
O1212  O     0.16667   0.20625   0.76280   0.00000  Uiso   1.00
O1213  O     0.16667   0.12708   0.90387   0.00000  Uiso   1.00
O1214  O     0.16667   0.20625   0.90387   0.00000  Uiso   1.00
O1215  O     0.16667   0.12708   0.76280   0.00000  Uiso   1.00
O1216  O     0.03629   0.08542   0.80614   0.00000  Uiso   1.00
C1217  C     0.42087   0.16593   0.83477   0.00000  Uiso   1.00
C1218  C     0.35709   0.20329   0.85597   0.00000  Uiso   1.00
C1219  C     0.62383   0.16831   0.83082   0.00000  Uiso   1.00
C1220  C     0.37615   0.16442   0.83763   0.00000  Uiso   1.00
C1221  C     0.48067   0.02350   0.79509   0.00000  Uiso   1.00
C1222  C     0.51837   0.30992   0.87218   0.00000  Uiso   1.00
C1223  C     0.51978   0.02581   0.87122   0.00000  Uiso   1.00
C1224  C     0.47986   0.30755   0.79571   0.00000  Uiso   1.00
C1225  C     0.37483   0.05748   0.84844   0.00000  Uiso   1.00
C1226  C     0.62982   0.27850   0.83125   0.00000  Uiso   1.00
C1227  C     0.61564   0.05744   0.78865   0.00000  Uiso   1.00
C1228  C     0.57909   0.16732   0.83206   0.00000  Uiso   1.00
C1229  C     0.38755   0.23113   0.92818   0.00000  Uiso   1.00
C1230  C     0.46155   0.04595   0.75109   0.00000  Uiso   1.00
C1231  C     0.53315   0.28792   0.91852   0.00000  Uiso   1.00
C1232  C     0.54388   0.05098   0.91163   0.00000  Uiso   1.00
C1233  C     0.45301   0.28244   0.75781   0.00000  Uiso   1.00
C1234  C     0.49984   0.16652   0.74035   0.00000  Uiso   1.00
C1235  C     0.50010   0.16681   0.92631   0.00000  Uiso   1.00
C1236  C     0.49989   0.16647   0.68855   0.00000  Uiso   1.00
C1237  C     0.49998   0.16687   0.97810   0.00000  Uiso   1.00
C1238  C     0.35189   0.12585   0.81948   0.00000  Uiso   1.00
C1239  C     0.64784   0.20584   0.85105   0.00000  Uiso   1.00
C1240  C     0.64261   0.12996   0.81118   0.00000  Uiso   1.00
Cu1241 Cu    0.50000   0.21355   0.83333   0.00000  Uiso   1.00
Cu1242 Cu    0.50000   0.11978   0.83333   0.00000  Uiso   1.00
H1243  H     0.34500   0.04759   0.86329   0.00000  Uiso   1.00
H1244  H     0.40615   0.26039   0.94536   0.00000  Uiso   1.00
H1245  H     0.40553   0.19940   0.93415   0.00000  Uiso   1.00
H1246  H     0.35840   0.22839   0.94718   0.00000  Uiso   1.00
H1247  H     0.46115   0.05510   0.67763   0.00000  Uiso   1.00
H1248  H     0.57641   0.25115   0.95539   0.00000  Uiso   1.00
H1249  H     0.54814   0.07088   0.98321   0.00000  Uiso   1.00
H1250  H     0.39717   0.25345   0.73907   0.00000  Uiso   1.00
H1251  H     0.39486   0.07458   0.87838   0.00000  Uiso   1.00
H1252  H     0.38974   0.02528   0.83788   0.00000  Uiso   1.00
H1253  H     0.61102   0.30725   0.84302   0.00000  Uiso   1.00
H1254  H     0.61562   0.26525   0.79522   0.00000  Uiso   1.00
H1255  H     0.66141   0.29245   0.82668   0.00000  Uiso   1.00
H1256  H     0.58676   0.04309   0.76983   0.00000  Uiso   1.00
H1257  H     0.61277   0.05350   0.82880   0.00000  Uiso   1.00
H1258  H     0.64110   0.03681   0.77596   0.00000  Uiso   1.00
N1259  N     0.50000   0.28402   0.83333   0.00000  Uiso   1.00
N1260  N     0.50000   0.04931   0.83333   0.00000  Uiso   1.00
O1261  O     0.43988   0.20625   0.83333   0.00000  Uiso   1.00
O1262  O     0.62985   0.24469   0.86820   0.00000  Uiso   1.00
O1263  O     0.62053   0.10376   0.77470   0.00000  Uiso   1.00
O1264  O     0.37989   0.24007   0.87749   0.00000  Uiso   1.00
O1265  O     0.43177   0.06985   0.75436   0.00000  Uiso   1.00
O1266  O     0.47720   0.03866   0.70513   0.00000  Uiso   1.00
O1267  O     0.51309   0.29100   0.95482   0.00000  Uiso   1.00
O1268  O     0.56983   0.26450   0.92150   0.00000  Uiso   1.00
O1269  O     0.57791   0.06731   0.90496   0.00000  Uiso   1.00
O1270  O     0.52859   0.05369   0.95835   0.00000  Uiso   1.00
O1271  O     0.46470   0.27641   0.71644   0.00000  Uiso   1.00
O1272  O     0.56012   0.12709   0.83334   0.00000  Uiso   1.00
O1273  O     0.41298   0.26942   0.76814   0.00000  Uiso   1.00
O1274  O     0.56012   0.20625   0.83334   0.00000  Uiso   1.00
O1275  O     0.43988   0.12709   0.83333   0.00000  Uiso   1.00
O1276  O     0.50000   0.20625   0.76280   0.00000  Uiso   1.00
O1277  O     0.50000   0.12708   0.90387   0.00000  Uiso   1.00
O1278  O     0.50000   0.20625   0.90387   0.00000  Uiso   1.00
O1279  O     0.50000   0.12708   0.76280   0.00000  Uiso   1.00
O1280  O     0.36963   0.08542   0.80614   0.00000  Uiso   1.00
C1281  C     0.75420   0.16593   0.83477   0.00000  Uiso   1.00
C1282  C     0.69042   0.20329   0.85597   0.00000  Uiso   1.00
C1283  C     0.95717   0.16831   0.83082   0.00000  Uiso   1.00
C1284  C     0.70948   0.16442   0.83763   0.00000  Uiso   1.00
C1285  C     0.81400   0.02350   0.79509   0.00000  Uiso   1.00
C1286  C     0.85171   0.30992   0.87218   0.00000  Uiso   1.00
C1287  C     0.85311   0.02581   0.87122   0.00000  Uiso   1.00
C1288  C     0.81320   0.30755   0.79571   0.00000  Uiso   1.00
C1289  C     0.70816   0.05748   0.84844   0.00000  Uiso   1.00
C1290  C     0.96316   0.27850   0.83125   0.00000  Uiso   1.00
C1291  C     0.94897   0.05744   0.78865   0.00000  Uiso   1.00
C1292  C     0.91243   0.16732   0.83206   0.00000  Uiso   1.00
C1293  C     0.72088   0.23113   0.92818   0.00000  Uiso   1.00
C1294  C     0.79488   0.04595   0.75109   0.00000  Uiso   1.00
C1295  C     0.86649   0.28792   0.91852   0.00000  Uiso   1.00
C1296  C     0.87721   0.05098   0.91163   0.00000  Uiso   1.00
C1297  C     0.78634   0.28244   0.75781   0.00000  Uiso   1.00
C1298  C     0.83317   0.16652   0.74035   0.00000  Uiso   1.00
C1299  C     0.83344   0.16681   0.92631   0.00000  Uiso   1.00
C1300  C     0.83322   0.16647   0.68855   0.00000  Uiso   1.00
C1301  C     0.83331   0.16687   0.97810   0.00000  Uiso   1.00
C1302  C     0.68522   0.12585   0.81948   0.00000  Uiso   1.00
C1303  C     0.98117   0.20584   0.85105   0.00000  Uiso   1.00
C1304  C     0.97594   0.12996   0.81118   0.00000  Uiso   1.00
Cu1305 Cu    0.83333   0.21355   0.83333   0.00000  Uiso   1.00
Cu1306 Cu    0.83333   0.11978   0.83333   0.00000  Uiso   1.00
H1307  H     0.67833   0.04759   0.86329   0.00000  Uiso   1.00
H1308  H     0.73948   0.26039   0.94536   0.00000  Uiso   1.00
H1309  H     0.73886   0.19940   0.93415   0.00000  Uiso   1.00
H1310  H     0.69174   0.22839   0.94718   0.00000  Uiso   1.00
H1311  H     0.79448   0.05510   0.67763   0.00000  Uiso   1.00
H1312  H     0.90974   0.25115   0.95539   0.00000  Uiso   1.00
H1313  H     0.88147   0.07088   0.98321   0.00000  Uiso   1.00
H1314  H     0.73051   0.25345   0.73907   0.00000  Uiso   1.00
H1315  H     0.72820   0.07458   0.87838   0.00000  Uiso   1.00
H1316  H     0.72308   0.02528   0.83788   0.00000  Uiso   1.00
H1317  H     0.94435   0.30725   0.84302   0.00000  Uiso   1.00
H1318  H     0.94895   0.26525   0.79522   0.00000  Uiso   1.00
H1319  H     0.99474   0.29245   0.82668   0.00000  Uiso   1.00
H1320  H     0.92009   0.04309   0.76983   0.00000  Uiso   1.00
H1321  H     0.94610   0.05350   0.82880   0.00000  Uiso   1.00
H1322  H     0.97443   0.03681   0.77596   0.00000  Uiso   1.00
N1323  N     0.83333   0.28402   0.83333   0.00000  Uiso   1.00
N1324  N     0.83333   0.04931   0.83333   0.00000  Uiso   1.00
O1325  O     0.77321   0.20625   0.83333   0.00000  Uiso   1.00
O1326  O     0.96318   0.24469   0.86820   0.00000  Uiso   1.00
O1327  O     0.95386   0.10376   0.77470   0.00000  Uiso   1.00
O1328  O     0.71322   0.24007   0.87749   0.00000  Uiso   1.00
O1329  O     0.76511   0.06985   0.75436   0.00000  Uiso   1.00
O1330  O     0.81053   0.03866   0.70513   0.00000  Uiso   1.00
O1331  O     0.84642   0.29100   0.95482   0.00000  Uiso   1.00
O1332  O     0.90316   0.26450   0.92150   0.00000  Uiso   1.00
O1333  O     0.91124   0.06731   0.90496   0.00000  Uiso   1.00
O1334  O     0.86192   0.05369   0.95835   0.00000  Uiso   1.00
O1335  O     0.79803   0.27641   0.71644   0.00000  Uiso   1.00
O1336  O     0.89345   0.12709   0.83334   0.00000  Uiso   1.00
O1337  O     0.74631   0.26942   0.76814   0.00000  Uiso   1.00
O1338  O     0.89345   0.20625   0.83334   0.00000  Uiso   1.00
O1339  O     0.77321   0.12709   0.83333   0.00000  Uiso   1.00
O1340  O     0.83333   0.20625   0.76280   0.00000  Uiso   1.00
O1341  O     0.83333   0.12708   0.90387   0.00000  Uiso   1.00
O1342  O     0.83333   0.20625   0.90387   0.00000  Uiso   1.00
O1343  O     0.83333   0.12708   0.76280   0.00000  Uiso   1.00
O1344  O     0.70296   0.08542   0.80614   0.00000  Uiso   1.00
C1345  C     0.08754   0.49926   0.83477   0.00000  Uiso   1.00
C1346  C     0.02375   0.53662   0.85597   0.00000  Uiso   1.00
C1347  C     0.29050   0.50164   0.83082   0.00000  Uiso   1.00
C1348  C     0.04282   0.49775   0.83763   0.00000  Uiso   1.00
C1349  C     0.14734   0.35683   0.79509   0.00000  Uiso   1.00
C1350  C     0.18504   0.64326   0.87218   0.00000  Uiso   1.00
C1351  C     0.18644   0.35914   0.87122   0.00000  Uiso   1.00
C1352  C     0.14653   0.64088   0.79571   0.00000  Uiso   1.00
C1353  C     0.04150   0.39082   0.84844   0.00000  Uiso   1.00
C1354  C     0.29649   0.61183   0.83125   0.00000  Uiso   1.00
C1355  C     0.28230   0.39077   0.78865   0.00000  Uiso   1.00
C1356  C     0.24576   0.50065   0.83206   0.00000  Uiso   1.00
C1357  C     0.05422   0.56447   0.92818   0.00000  Uiso   1.00
C1358  C     0.12821   0.37928   0.75109   0.00000  Uiso   1.00
C1359  C     0.19982   0.62126   0.91852   0.00000  Uiso   1.00
C1360  C     0.21055   0.38432   0.91163   0.00000  Uiso   1.00
C1361  C     0.11968   0.61577   0.75781   0.00000  Uiso   1.00
C1362  C     0.16651   0.49985   0.74035   0.00000  Uiso   1.00
C1363  C     0.16677   0.50014   0.92631   0.00000  Uiso   1.00
C1364  C     0.16656   0.49980   0.68855   0.00000  Uiso   1.00
C1365  C     0.16665   0.50020   0.97810   0.00000  Uiso   1.00
C1366  C     0.01856   0.45918   0.81948   0.00000  Uiso   1.00
C1367  C     0.31450   0.53917   0.85105   0.00000  Uiso   1.00
C1368  C     0.30927   0.46330   0.81118   0.00000  Uiso   1.00
Cu1369 Cu    0.16667   0.54689   0.83333   0.00000  Uiso   1.00
Cu1370 Cu    0.16667   0.45311   0.83333   0.00000  Uiso   1.00
H1371  H     0.01166   0.38093   0.86329   0.00000  Uiso   1.00
H1372  H     0.07281   0.59372   0.94536   0.00000  Uiso   1.00
H1373  H     0.07219   0.53273   0.93415   0.00000  Uiso   1.00
H1374  H     0.02507   0.56172   0.94718   0.00000  Uiso   1.00
H1375  H     0.12781   0.38843   0.67763   0.00000  Uiso   1.00
H1376  H     0.24307   0.58449   0.95539   0.00000  Uiso   1.00
H1377  H     0.21480   0.40421   0.98321   0.00000  Uiso   1.00
H1378  H     0.06384   0.58679   0.73907   0.00000  Uiso   1.00
H1379  H     0.06153   0.40792   0.87838   0.00000  Uiso   1.00
H1380  H     0.05641   0.35862   0.83788   0.00000  Uiso   1.00
H1381  H     0.27768   0.64058   0.84302   0.00000  Uiso   1.00
H1382  H     0.28229   0.59858   0.79522   0.00000  Uiso   1.00
H1383  H     0.32807   0.62578   0.82668   0.00000  Uiso   1.00
H1384  H     0.25342   0.37642   0.76983   0.00000  Uiso   1.00
H1385  H     0.27944   0.38684   0.82880   0.00000  Uiso   1.00
H1386  H     0.30777   0.37015   0.77596   0.00000  Uiso   1.00
N1387  N     0.16667   0.61736   0.83333   0.00000  Uiso   1.00
N1388  N     0.16667   0.38264   0.83333   0.00000  Uiso   1.00
O1389  O     0.10655   0.53958   0.83333   0.00000  Uiso   1.00
O1390  O     0.29651   0.57803   0.86820   0.00000  Uiso   1.00
O1391  O     0.28719   0.43709   0.77470   0.00000  Uiso   1.00
O1392  O     0.04655   0.57341   0.87749   0.00000  Uiso   1.00
O1393  O     0.09844   0.40318   0.75436   0.00000  Uiso   1.00
O1394  O     0.14387   0.37199   0.70513   0.00000  Uiso   1.00
O1395  O     0.17976   0.62433   0.95482   0.00000  Uiso   1.00
O1396  O     0.23650   0.59783   0.92150   0.00000  Uiso   1.00
O1397  O     0.24457   0.40064   0.90496   0.00000  Uiso   1.00
O1398  O     0.19525   0.38703   0.95835   0.00000  Uiso   1.00
O1399  O     0.13136   0.60974   0.71644   0.00000  Uiso   1.00
O1400  O     0.22679   0.46042   0.83334   0.00000  Uiso   1.00
O1401  O     0.07964   0.60275   0.76814   0.00000  Uiso   1.00
O1402  O     0.22679   0.53958   0.83334   0.00000  Uiso   1.00
O1403  O     0.10655   0.46042   0.83333   0.00000  Uiso   1.00
O1404  O     0.16667   0.53959   0.76280   0.00000  Uiso   1.00
O1405  O     0.16667   0.46041   0.90387   0.00000  Uiso   1.00
O1406  O     0.16667   0.53959   0.90387   0.00000  Uiso   1.00
O1407  O     0.16667   0.46041   0.76280   0.00000  Uiso   1.00
O1408  O     0.03629   0.41876   0.80614   0.00000  Uiso   1.00
C1409  C     0.42087   0.49926   0.83477   0.00000  Uiso   1.00
C1410  C     0.35709   0.53662   0.85597   0.00000  Uiso   1.00
C1411  C     0.62383   0.50164   0.83082   0.00000  Uiso   1.00
C1412  C     0.37615   0.49775   0.83763   0.00000  Uiso   1.00
C1413  C     0.48067   0.35683   0.79509   0.00000  Uiso   1.00
C1414  C     0.51837   0.64326   0.87218   0.00000  Uiso   1.00
C1415  C     0.51978   0.35914   0.87122   0.00000  Uiso   1.00
C1416  C     0.47986   0.64088   0.79571   0.00000  Uiso   1.00
C1417  C     0.37483   0.39082   0.84844   0.00000  Uiso   1.00
C1418  C     0.62982   0.61183   0.83125   0.00000  Uiso   1.00
C1419  C     0.61564   0.39077   0.78865   0.00000  Uiso   1.00
C1420  C     0.57909   0.50065   0.83206   0.00000  Uiso   1.00
C1421  C     0.38755   0.56447   0.92818   0.00000  Uiso   1.00
C1422  C     0.46155   0.37928   0.75109   0.00000  Uiso   1.00
C1423  C     0.53315   0.62126   0.91852   0.00000  Uiso   1.00
C1424  C     0.54388   0.38432   0.91163   0.00000  Uiso   1.00
C1425  C     0.45301   0.61577   0.75781   0.00000  Uiso   1.00
C1426  C     0.49984   0.49985   0.74035   0.00000  Uiso   1.00
C1427  C     0.50010   0.50014   0.92631   0.00000  Uiso   1.00
C1428  C     0.49989   0.49980   0.68855   0.00000  Uiso   1.00
C1429  C     0.49998   0.50020   0.97810   0.00000  Uiso   1.00
C1430  C     0.35189   0.45918   0.81948   0.00000  Uiso   1.00
C1431  C     0.64784   0.53917   0.85105   0.00000  Uiso   1.00
C1432  C     0.64261   0.46330   0.81118   0.00000  Uiso   1.00
Cu1433 Cu    0.50000   0.54689   0.83333   0.00000  Uiso   1.00
Cu1434 Cu    0.50000   0.45311   0.83333   0.00000  Uiso   1.00
H1435  H     0.34500   0.38093   0.86329   0.00000  Uiso   1.00
H1436  H     0.40615   0.59372   0.94536   0.00000  Uiso   1.00
H1437  H     0.40553   0.53273   0.93415   0.00000  Uiso   1.00
H1438  H     0.35840   0.56172   0.94718   0.00000  Uiso   1.00
H1439  H     0.46115   0.38843   0.67763   0.00000  Uiso   1.00
H1440  H     0.57641   0.58449   0.95539   0.00000  Uiso   1.00
H1441  H     0.54814   0.40421   0.98321   0.00000  Uiso   1.00
H1442  H     0.39717   0.58679   0.73907   0.00000  Uiso   1.00
H1443  H     0.39486   0.40792   0.87838   0.00000  Uiso   1.00
H1444  H     0.38974   0.35862   0.83788   0.00000  Uiso   1.00
H1445  H     0.61102   0.64058   0.84302   0.00000  Uiso   1.00
H1446  H     0.61562   0.59858   0.79522   0.00000  Uiso   1.00
H1447  H     0.66141   0.62578   0.82668   0.00000  Uiso   1.00
H1448  H     0.58676   0.37642   0.76983   0.00000  Uiso   1.00
H1449  H     0.61277   0.38684   0.82880   0.00000  Uiso   1.00
H1450  H     0.64110   0.37015   0.77596   0.00000  Uiso   1.00
N1451  N     0.50000   0.61736   0.83333   0.00000  Uiso   1.00
N1452  N     0.50000   0.38264   0.83333   0.00000  Uiso   1.00
O1453  O     0.43988   0.53958   0.83333   0.00000  Uiso   1.00
O1454  O     0.62985   0.57803   0.86820   0.00000  Uiso   1.00
O1455  O     0.62053   0.43709   0.77470   0.00000  Uiso   1.00
O1456  O     0.37989   0.57341   0.87749   0.00000  Uiso   1.00
O1457  O     0.43177   0.40318   0.75436   0.00000  Uiso   1.00
O1458  O     0.47720   0.37199   0.70513   0.00000  Uiso   1.00
O1459  O     0.51309   0.62433   0.95482   0.00000  Uiso   1.00
O1460  O     0.56983   0.59783   0.92150   0.00000  Uiso   1.00
O1461  O     0.57791   0.40064   0.90496   0.00000  Uiso   1.00
O1462  O     0.52859   0.38703   0.95835   0.00000  Uiso   1.00
O1463  O     0.46470   0.60974   0.71644   0.00000  Uiso   1.00
O1464  O     0.56012   0.46042   0.83334   0.00000  Uiso   1.00
O1465  O     0.41298   0.60275   0.76814   0.00000  Uiso   1.00
O1466  O     0.56012   0.53958   0.83334   0.00000  Uiso   1.00
O1467  O     0.43988   0.46042   0.83333   0.00000  Uiso   1.00
O1468  O     0.50000   0.53959   0.76280   0.00000  Uiso   1.00
O1469  O     0.50000   0.46041   0.90387   0.00000  Uiso   1.00
O1470  O     0.50000   0.53959   0.90387   0.00000  Uiso   1.00
O1471  O     0.50000   0.46041   0.76280   0.00000  Uiso   1.00
O1472  O     0.36963   0.41876   0.80614   0.00000  Uiso   1.00
C1473  C     0.75420   0.49926   0.83477   0.00000  Uiso   1.00
C1474  C     0.69042   0.53662   0.85597   0.00000  Uiso   1.00
C1475  C     0.95717   0.50164   0.83082   0.00000  Uiso   1.00
C1476  C     0.70948   0.49775   0.83763   0.00000  Uiso   1.00
C1477  C     0.81400   0.35683   0.79509   0.00000  Uiso   1.00
C1478  C     0.85171   0.64326   0.87218   0.00000  Uiso   1.00
C1479  C     0.85311   0.35914   0.87122   0.00000  Uiso   1.00
C1480  C     0.81320   0.64088   0.79571   0.00000  Uiso   1.00
C1481  C     0.70816   0.39082   0.84844   0.00000  Uiso   1.00
C1482  C     0.96316   0.61183   0.83125   0.00000  Uiso   1.00
C1483  C     0.94897   0.39077   0.78865   0.00000  Uiso   1.00
C1484  C     0.91243   0.50065   0.83206   0.00000  Uiso   1.00
C1485  C     0.72088   0.56447   0.92818   0.00000  Uiso   1.00
C1486  C     0.79488   0.37928   0.75109   0.00000  Uiso   1.00
C1487  C     0.86649   0.62126   0.91852   0.00000  Uiso   1.00
C1488  C     0.87721   0.38432   0.91163   0.00000  Uiso   1.00
C1489  C     0.78634   0.61577   0.75781   0.00000  Uiso   1.00
C1490  C     0.83317   0.49985   0.74035   0.00000  Uiso   1.00
C1491  C     0.83344   0.50014   0.92631   0.00000  Uiso   1.00
C1492  C     0.83322   0.49980   0.68855   0.00000  Uiso   1.00
C1493  C     0.83331   0.50020   0.97810   0.00000  Uiso   1.00
C1494  C     0.68522   0.45918   0.81948   0.00000  Uiso   1.00
C1495  C     0.98117   0.53917   0.85105   0.00000  Uiso   1.00
C1496  C     0.97594   0.46330   0.81118   0.00000  Uiso   1.00
Cu1497 Cu    0.83333   0.54689   0.83333   0.00000  Uiso   1.00
Cu1498 Cu    0.83333   0.45311   0.83333   0.00000  Uiso   1.00
H1499  H     0.67833   0.38093   0.86329   0.00000  Uiso   1.00
H1500  H     0.73948   0.59372   0.94536   0.00000  Uiso   1.00
H1501  H     0.73886   0.53273   0.93415   0.00000  Uiso   1.00
H1502  H     0.69174   0.56172   0.94718   0.00000  Uiso   1.00
H1503  H     0.79448   0.38843   0.67763   0.00000  Uiso   1.00
H1504  H     0.90974   0.58449   0.95539   0.00000  Uiso   1.00
H1505  H     0.88147   0.40421   0.98321   0.00000  Uiso   1.00
H1506  H     0.73051   0.58679   0.73907   0.00000  Uiso   1.00
H1507  H     0.72820   0.40792   0.87838   0.00000  Uiso   1.00
H1508  H     0.72308   0.35862   0.83788   0.00000  Uiso   1.00
H1509  H     0.94435   0.64058   0.84302   0.00000  Uiso   1.00
H1510  H     0.94895   0.59858   0.79522   0.00000  Uiso   1.00
H1511  H     0.99474   0.62578   0.82668   0.00000  Uiso   1.00
H1512  H     0.92009   0.37642   0.76983   0.00000  Uiso   1.00
H1513  H     0.94610   0.38684   0.82880   0.00000  Uiso   1.00
H1514  H     0.97443   0.37015   0.77596   0.00000  Uiso   1.00
N1515  N     0.83333   0.61736   0.83333   0.00000  Uiso   1.00
N1516  N     0.83333   0.38264   0.83333   0.00000  Uiso   1.00
O1517  O     0.77321   0.53958   0.83333   0.00000  Uiso   1.00
O1518  O     0.96318   0.57803   0.86820   0.00000  Uiso   1.00
O1519  O     0.95386   0.43709   0.77470   0.00000  Uiso   1.00
O1520  O     0.71322   0.57341   0.87749   0.00000  Uiso   1.00
O1521  O     0.76511   0.40318   0.75436   0.00000  Uiso   1.00
O1522  O     0.81053   0.37199   0.70513   0.00000  Uiso   1.00
O1523  O     0.84642   0.62433   0.95482   0.00000  Uiso   1.00
O1524  O     0.90316   0.59783   0.92150   0.00000  Uiso   1.00
O1525  O     0.91124   0.40064   0.90496   0.00000  Uiso   1.00
O1526  O     0.86192   0.38703   0.95835   0.00000  Uiso   1.00
O1527  O     0.79803   0.60974   0.71644   0.00000  Uiso   1.00
O1528  O     0.89345   0.46042   0.83334   0.00000  Uiso   1.00
O1529  O     0.74631   0.60275   0.76814   0.00000  Uiso   1.00
O1530  O     0.89345   0.53958   0.83334   0.00000  Uiso   1.00
O1531  O     0.77321   0.46042   0.83333   0.00000  Uiso   1.00
O1532  O     0.83333   0.53959   0.76280   0.00000  Uiso   1.00
O1533  O     0.83333   0.46041   0.90387   0.00000  Uiso   1.00
O1534  O     0.83333   0.53959   0.90387   0.00000  Uiso   1.00
O1535  O     0.83333   0.46041   0.76280   0.00000  Uiso   1.00
O1536  O     0.70296   0.41876   0.80614   0.00000  Uiso   1.00
C1537  C     0.08754   0.83259   0.83477   0.00000  Uiso   1.00
C1538  C     0.02375   0.86996   0.85597   0.00000  Uiso   1.00
C1539  C     0.29050   0.83497   0.83082   0.00000  Uiso   1.00
C1540  C     0.04282   0.83109   0.83763   0.00000  Uiso   1.00
C1541  C     0.14734   0.69016   0.79509   0.00000  Uiso   1.00
C1542  C     0.18504   0.97659   0.87218   0.00000  Uiso   1.00
C1543  C     0.18644   0.69247   0.87122   0.00000  Uiso   1.00
C1544  C     0.14653   0.97422   0.79571   0.00000  Uiso   1.00
C1545  C     0.04150   0.72415   0.84844   0.00000  Uiso   1.00
C1546  C     0.29649   0.94517   0.83125   0.00000  Uiso   1.00
C1547  C     0.28230   0.72410   0.78865   0.00000  Uiso   1.00
C1548  C     0.24576   0.83399   0.83206   0.00000  Uiso   1.00
C1549  C     0.05422   0.89780   0.92818   0.00000  Uiso   1.00
C1550  C     0.12821   0.71262   0.75109   0.00000  Uiso   1.00
C1551  C     0.19982   0.95459   0.91852   0.00000  Uiso   1.00
C1552  C     0.21055   0.71765   0.91163   0.00000  Uiso   1.00
C1553  C     0.11968   0.94910   0.75781   0.00000  Uiso   1.00
C1554  C     0.16651   0.83319   0.74035   0.00000  Uiso   1.00
C1555  C     0.16677   0.83348   0.92631   0.00000  Uiso   1.00
C1556  C     0.16656   0.83314   0.68855   0.00000  Uiso   1.00
C1557  C     0.16665   0.83354   0.97810   0.00000  Uiso   1.00
C1558  C     0.01856   0.79251   0.81948   0.00000  Uiso   1.00
C1559  C     0.31450   0.87251   0.85105   0.00000  Uiso   1.00
C1560  C     0.30927   0.79663   0.81118   0.00000  Uiso   1.00
Cu1561 Cu    0.16667   0.88022   0.83333   0.00000  Uiso   1.00
Cu1562 Cu    0.16667   0.78645   0.83333   0.00000  Uiso   1.00
H1563  H     0.01166   0.71426   0.86329   0.00000  Uiso   1.00
H1564  H     0.07281   0.92705   0.94536   0.00000  Uiso   1.00
H1565  H     0.07219   0.86606   0.93415   0.00000  Uiso   1.00
H1566  H     0.02507   0.89506   0.94718   0.00000  Uiso   1.00
H1567  H     0.12781   0.72177   0.67763   0.00000  Uiso   1.00
H1568  H     0.24307   0.91782   0.95539   0.00000  Uiso   1.00
H1569  H     0.21480   0.73754   0.98321   0.00000  Uiso   1.00
H1570  H     0.06384   0.92012   0.73907   0.00000  Uiso   1.00
H1571  H     0.06153   0.74125   0.87838   0.00000  Uiso   1.00
H1572  H     0.05641   0.69195   0.83788   0.00000  Uiso   1.00
H1573  H     0.27768   0.97392   0.84302   0.00000  Uiso   1.00
H1574  H     0.28229   0.93192   0.79522   0.00000  Uiso   1.00
H1575  H     0.32807   0.95911   0.82668   0.00000  Uiso   1.00
H1576  H     0.25342   0.70975   0.76983   0.00000  Uiso   1.00
H1577  H     0.27944   0.72017   0.82880   0.00000  Uiso   1.00
H1578  H     0.30777   0.70348   0.77596   0.00000  Uiso   1.00
N1579  N     0.16667   0.95069   0.83333   0.00000  Uiso   1.00
N1580  N     0.16667   0.71598   0.83333   0.00000  Uiso   1.00
O1581  O     0.10655   0.87291   0.83333   0.00000  Uiso   1.00
O1582  O     0.29651   0.91136   0.86820   0.00000  Uiso   1.00
O1583  O     0.28719   0.77042   0.77470   0.00000  Uiso   1.00
O1584  O     0.04655   0.90674   0.87749   0.00000  Uiso   1.00
O1585  O     0.09844   0.73652   0.75436   0.00000  Uiso   1.00
O1586  O     0.14387   0.70533   0.70513   0.00000  Uiso   1.00
O1587  O     0.17976   0.95766   0.95482   0.00000  Uiso   1.00
O1588  O     0.23650   0.93117   0.92150   0.00000  Uiso   1.00
O1589  O     0.24457   0.73397   0.90496   0.00000  Uiso   1.00
O1590  O     0.19525   0.72036   0.95835   0.00000  Uiso   1.00
O1591  O     0.13136   0.94307   0.71644   0.00000  Uiso   1.00
O1592  O     0.22679   0.79375   0.83334   0.00000  Uiso   1.00
O1593  O     0.07964   0.93608   0.76814   0.00000  Uiso   1.00
O1594  O     0.22679   0.87291   0.83334   0.00000  Uiso   1.00
O1595  O     0.10655   0.79375   0.83333   0.00000  Uiso   1.00
O1596  O     0.16667   0.87292   0.76280   0.00000  Uiso   1.00
O1597  O     0.16667   0.79375   0.90387   0.00000  Uiso   1.00
O1598  O     0.16667   0.87292   0.90387   0.00000  Uiso   1.00
O1599  O     0.16667   0.79375   0.76280   0.00000  Uiso   1.00
O1600  O     0.03629   0.75209   0.80614   0.00000  Uiso   1.00
C1601  C     0.42087   0.83259   0.83477   0.00000  Uiso   1.00
C1602  C     0.35709   0.86996   0.85597   0.00000  Uiso   1.00
C1603  C     0.62383   0.83497   0.83082   0.00000  Uiso   1.00
C1604  C     0.37615   0.83109   0.83763   0.00000  Uiso   1.00
C1605  C     0.48067   0.69016   0.79509   0.00000  Uiso   1.00
C1606  C     0.51837   0.97659   0.87218   0.00000  Uiso   1.00
C1607  C     0.51978   0.69247   0.87122   0.00000  Uiso   1.00
C1608  C     0.47986   0.97422   0.79571   0.00000  Uiso   1.00
C1609  C     0.37483   0.72415   0.84844   0.00000  Uiso   1.00
C1610  C     0.62982   0.94517   0.83125   0.00000  Uiso   1.00
C1611  C     0.61564   0.72410   0.78865   0.00000  Uiso   1.00
C1612  C     0.57909   0.83399   0.83206   0.00000  Uiso   1.00
C1613  C     0.38755   0.89780   0.92818   0.00000  Uiso   1.00
C1614  C     0.46155   0.71262   0.75109   0.00000  Uiso   1.00
C1615  C     0.53315   0.95459   0.91852   0.00000  Uiso   1.00
C1616  C     0.54388   0.71765   0.91163   0.00000  Uiso   1.00
C1617  C     0.45301   0.94910   0.75781   0.00000  Uiso   1.00
C1618  C     0.49984   0.83319   0.74035   0.00000  Uiso   1.00
C1619  C     0.50010   0.83348   0.92631   0.00000  Uiso   1.00
C1620  C     0.49989   0.83314   0.68855   0.00000  Uiso   1.00
C1621  C     0.49998   0.83354   0.97810   0.00000  Uiso   1.00
C1622  C     0.35189   0.79251   0.81948   0.00000  Uiso   1.00
C1623  C     0.64784   0.87251   0.85105   0.00000  Uiso   1.00
C1624  C     0.64261   0.79663   0.81118   0.00000  Uiso   1.00
Cu1625 Cu    0.50000   0.88022   0.83333   0.00000  Uiso   1.00
Cu1626 Cu    0.50000   0.78645   0.83333   0.00000  Uiso   1.00
H1627  H     0.34500   0.71426   0.86329   0.00000  Uiso   1.00
H1628  H     0.40615   0.92705   0.94536   0.00000  Uiso   1.00
H1629  H     0.40553   0.86606   0.93415   0.00000  Uiso   1.00
H1630  H     0.35840   0.89506   0.94718   0.00000  Uiso   1.00
H1631  H     0.46115   0.72177   0.67763   0.00000  Uiso   1.00
H1632  H     0.57641   0.91782   0.95539   0.00000  Uiso   1.00
H1633  H     0.54814   0.73754   0.98321   0.00000  Uiso   1.00
H1634  H     0.39717   0.92012   0.73907   0.00000  Uiso   1.00
H1635  H     0.39486   0.74125   0.87838   0.00000  Uiso   1.00
H1636  H     0.38974   0.69195   0.83788   0.00000  Uiso   1.00
H1637  H     0.61102   0.97392   0.84302   0.00000  Uiso   1.00
H1638  H     0.61562   0.93192   0.79522   0.00000  Uiso   1.00
H1639  H     0.66141   0.95911   0.82668   0.00000  Uiso   1.00
H1640  H     0.58676   0.70975   0.76983   0.00000  Uiso   1.00
H1641  H     0.61277   0.72017   0.82880   0.00000  Uiso   1.00
H1642  H     0.64110   0.70348   0.77596   0.00000  Uiso   1.00
N1643  N     0.50000   0.95069   0.83333   0.00000  Uiso   1.00
N1644  N     0.50000   0.71598   0.83333   0.00000  Uiso   1.00
O1645  O     0.43988   0.87291   0.83333   0.00000  Uiso   1.00
O1646  O     0.62985   0.91136   0.86820   0.00000  Uiso   1.00
O1647  O     0.62053   0.77042   0.77470   0.00000  Uiso   1.00
O1648  O     0.37989   0.90674   0.87749   0.00000  Uiso   1.00
O1649  O     0.43177   0.73652   0.75436   0.00000  Uiso   1.00
O1650  O     0.47720   0.70533   0.70513   0.00000  Uiso   1.00
O1651  O     0.51309   0.95766   0.95482   0.00000  Uiso   1.00
O1652  O     0.56983   0.93117   0.92150   0.00000  Uiso   1.00
O1653  O     0.57791   0.73397   0.90496   0.00000  Uiso   1.00
O1654  O     0.52859   0.72036   0.95835   0.00000  Uiso   1.00
O1655  O     0.46470   0.94307   0.71644   0.00000  Uiso   1.00
O1656  O     0.56012   0.79375   0.83334   0.00000  Uiso   1.00
O1657  O     0.41298   0.93608   0.76814   0.00000  Uiso   1.00
O1658  O     0.56012   0.87291   0.83334   0.00000  Uiso   1.00
O1659  O     0.43988   0.79375   0.83333   0.00000  Uiso   1.00
O1660  O     0.50000   0.87292   0.76280   0.00000  Uiso   1.00
O1661  O     0.50000   0.79375   0.90387   0.00000  Uiso   1.00
O1662  O     0.50000   0.87292   0.90387   0.00000  Uiso   1.00
O1663  O     0.50000   0.79375   0.76280   0.00000  Uiso   1.00
O1664  O     0.36963   0.75209   0.80614   0.00000  Uiso   1.00
C1665  C     0.75420   0.83259   0.83477   0.00000  Uiso   1.00
C1666  C     0.69042   0.86996   0.85597   0.00000  Uiso   1.00
C1667  C     0.95717   0.83497   0.83082   0.00000  Uiso   1.00
C1668  C     0.70948   0.83109   0.83763   0.00000  Uiso   1.00
C1669  C     0.81400   0.69016   0.79509   0.00000  Uiso   1.00
C1670  C     0.85171   0.97659   0.87218   0.00000  Uiso   1.00
C1671  C     0.85311   0.69247   0.87122   0.00000  Uiso   1.00
C1672  C     0.81320   0.97422   0.79571   0.00000  Uiso   1.00
C1673  C     0.70816   0.72415   0.84844   0.00000  Uiso   1.00
C1674  C     0.96316   0.94517   0.83125   0.00000  Uiso   1.00
C1675  C     0.94897   0.72410   0.78865   0.00000  Uiso   1.00
C1676  C     0.91243   0.83399   0.83206   0.00000  Uiso   1.00
C1677  C     0.72088   0.89780   0.92818   0.00000  Uiso   1.00
C1678  C     0.79488   0.71262   0.75109   0.00000  Uiso   1.00
C1679  C     0.86649   0.95459   0.91852   0.00000  Uiso   1.00
C1680  C     0.87721   0.71765   0.91163   0.00000  Uiso   1.00
C1681  C     0.78634   0.94910   0.75781   0.00000  Uiso   1.00
C1682  C     0.83317   0.83319   0.74035   0.00000  Uiso   1.00
C1683  C     0.83344   0.83348   0.92631   0.00000  Uiso   1.00
C1684  C     0.83322   0.83314   0.68855   0.00000  Uiso   1.00
C1685  C     0.83331   0.83354   0.97810   0.00000  Uiso   1.00
C1686  C     0.68522   0.79251   0.81948   0.00000  Uiso   1.00
C1687  C     0.98117   0.87251   0.85105   0.00000  Uiso   1.00
C1688  C     0.97594   0.79663   0.81118   0.00000  Uiso   1.00
Cu1689 Cu    0.83333   0.88022   0.83333   0.00000  Uiso   1.00
Cu1690 Cu    0.83333   0.78645   0.83333   0.00000  Uiso   1.00
H1691  H     0.67833   0.71426   0.86329   0.00000  Uiso   1.00
H1692  H     0.73948   0.92705   0.94536   0.00000  Uiso   1.00
H1693  H     0.73886   0.86606   0.93415   0.00000  Uiso   1.00
H1694  H     0.69174   0.89506   0.94718   0.00000  Uiso   1.00
H1695  H     0.79448   0.72177   0.67763   0.00000  Uiso   1.00
H1696  H     0.90974   0.91782   0.95539   0.00000  Uiso   1.00
H1697  H     0.88147   0.73754   0.98321   0.00000  Uiso   1.00
H1698  H     0.73051   0.92012   0.73907   0.00000  Uiso   1.00
H1699  H     0.72820   0.74125   0.87838   0.00000  Uiso   1.00
H1700  H     0.72308   0.69195   0.83788   0.00000  Uiso   1.00
H1701  H     0.94435   0.97392   0.84302   0.00000  Uiso   1.00
H1702  H     0.94895   0.93192   0.79522   0.00000  Uiso   1.00
H1703  H     0.99474   0.95911   0.82668   0.00000  Uiso   1.00
H1704  H     0.92009   0.70975   0.76983   0.00000  Uiso   1.00
H1705  H     0.94610   0.72017   0.82880   0.00000  Uiso   1.00
H1706  H     0.97443   0.70348   0.77596   0.00000  Uiso   1.00
N1707  N     0.83333   0.95069   0.83333   0.00000  Uiso   1.00
N1708  N     0.83333   0.71598   0.83333   0.00000  Uiso   1.00
O1709  O     0.77321   0.87291   0.83333   0.00000  Uiso   1.00
O1710  O     0.96318   0.91136   0.86820   0.00000  Uiso   1.00
O1711  O     0.95386   0.77042   0.77470   0.00000  Uiso   1.00
O1712  O     0.71322   0.90674   0.87749   0.00000  Uiso   1.00
O1713  O     0.76511   0.73652   0.75436   0.00000  Uiso   1.00
O1714  O     0.81053   0.70533   0.70513   0.00000  Uiso   1.00
O1715  O     0.84642   0.95766   0.95482   0.00000  Uiso   1.00
O1716  O     0.90316   0.93117   0.92150   0.00000  Uiso   1.00
O1717  O     0.91124   0.73397   0.90496   0.00000  Uiso   1.00
O1718  O     0.86192   0.72036   0.95835   0.00000  Uiso   1.00
O1719  O     0.79803   0.94307   0.71644   0.00000  Uiso   1.00
O1720  O     0.89345   0.79375   0.83334   0.00000  Uiso   1.00
O1721  O     0.74631   0.93608   0.76814   0.00000  Uiso   1.00
O1722  O     0.89345   0.87291   0.83334   0.00000  Uiso   1.00
O1723  O     0.77321   0.79375   0.83333   0.00000  Uiso   1.00
O1724  O     0.83333   0.87292   0.76280   0.00000  Uiso   1.00
O1725  O     0.83333   0.79375   0.90387   0.00000  Uiso   1.00
O1726  O     0.83333   0.87292   0.90387   0.00000  Uiso   1.00
O1727  O     0.83333   0.79375   0.76280   0.00000  Uiso   1.00
O1728  O     0.70296   0.75209   0.80614   0.00000  Uiso   1.00
loop_
_geom_bond_atom_site_label_1
_geom_bond_atom_site_label_2
_geom_bond_distance
_geom_bond_site_symmetry_2
_ccdc_geom_bond_type
C1     C4      1.466   .     S
C1     O45     1.310   .     A
C1     O59     1.303   .     A
C2     C4      1.406   .     A
C2     O48     1.385   .     S
C2     C151    1.391   1_455 S
C3     C23     1.408   .     A
C3     C24     1.403   .     A
C3     C12     1.462   .     S
C4     C22     1.417   .     A
C5     C14     1.477   .     S
C5     N44     1.381   .     A
C5     C392    1.430   1_545 S
C6     N43     1.382   .     A
C6     C15     1.475   .     S
C6     C199    1.428   .     S
C7     C16     1.480   .     S
C7     N44     1.375   .     A
C7     C390    1.428   1_545 S
C8     C17     1.478   .     S
C8     N43     1.375   .     A
C8     C197    1.430   .     S
C9     H36     1.110   .     S
C9     O64     1.416   .     S
C9     H27     1.110   .     S
C9     H35     1.112   .     S
C10    O46     1.410   .     S
C10    H38     1.114   .     S
C10    H37     1.107   .     S
C10    H39     1.112   .     S
C11    H41     1.107   .     S
C11    H40     1.110   .     S
C11    H42     1.109   .     S
C11    O47     1.407   .     S
C12    O58     1.305   .     A
C12    O56     1.307   .     A
C13    H28     1.109   .     S
C13    H29     1.113   .     S
C13    H30     1.113   .     S
C13    O48     1.410   .     S
C14    O50     1.396   .     S
C14    O49     1.217   .     D
C15    O51     1.223   .     D
C15    O52     1.391   .     S
C16    O54     1.396   .     S
C16    O53     1.220   .     D
C17    O55     1.223   .     D
C17    O57     1.397   .     S
C18    C20     1.407   .     S
C18    O63     1.302   .     A
C18    O60     1.298   .     A
C19    O61     1.298   .     A
C19    C21     1.407   .     S
C19    O62     1.302   .     A
C20    C1173   1.189   1_554 S
C21    C596    1.189   .     S
C22    O64     1.379   .     S
C22    C152    1.402   1_455 S
C23    O46     1.377   .     S
C23    C66     1.391   .     S
C24    O47     1.391   .     S
C24    C86     1.402   .     S
Cu25   O60     1.925   .     S
Cu25   O62     1.929   .     S
Cu25   N43     2.045   .     S
Cu25   Cu26    2.721   .     S
Cu25   O58     1.979   .     S
Cu25   O45     1.967   .     S
Cu26   O63     1.929   .     S
Cu26   O59     1.979   .     S
Cu26   N44     2.045   .     S
Cu26   O61     1.925   .     S
Cu26   O56     1.967   .     S
H31    O50     1.014   .     S
H32    O52     1.014   .     S
H33    O54     1.014   .     S
H34    O57     1.014   .     S
C65    C68     1.466   .     S
C65    O109    1.310   .     A
C65    O123    1.303   .     A
C66    C68     1.406   .     A
C66    O112    1.385   .     S
C67    C87     1.408   .     A
C67    C88     1.403   .     A
C67    C76     1.462   .     S
C68    C86     1.417   .     A
C69    C78     1.477   .     S
C69    N108    1.381   .     A
C69    C456    1.430   1_545 S
C70    N107    1.382   .     A
C70    C79     1.475   .     S
C70    C263    1.428   .     S
C71    C80     1.480   .     S
C71    N108    1.375   .     A
C71    C454    1.428   1_545 S
C72    C81     1.478   .     S
C72    N107    1.375   .     A
C72    C261    1.430   .     S
C73    H100    1.110   .     S
C73    O128    1.416   .     S
C73    H91     1.110   .     S
C73    H99     1.112   .     S
C74    O110    1.410   .     S
C74    H102    1.114   .     S
C74    H101    1.107   .     S
C74    H103    1.112   .     S
C75    H105    1.107   .     S
C75    H104    1.110   .     S
C75    H106    1.109   .     S
C75    O111    1.407   .     S
C76    O122    1.305   .     A
C76    O120    1.307   .     A
C77    H92     1.109   .     S
C77    H93     1.113   .     S
C77    H94     1.113   .     S
C77    O112    1.410   .     S
C78    O114    1.396   .     S
C78    O113    1.217   .     D
C79    O115    1.223   .     D
C79    O116    1.391   .     S
C80    O118    1.396   .     S
C80    O117    1.220   .     D
C81    O119    1.223   .     D
C81    O121    1.397   .     S
C82    C84     1.407   .     S
C82    O127    1.302   .     A
C82    O124    1.298   .     A
C83    O125    1.298   .     A
C83    C85     1.407   .     S
C83    O126    1.302   .     A
C84    C1237   1.189   1_554 S
C85    C660    1.189   .     S
C86    O128    1.379   .     S
C87    O110    1.377   .     S
C87    C130    1.391   .     S
C88    O111    1.391   .     S
C88    C150    1.402   .     S
Cu89   O124    1.925   .     S
Cu89   O126    1.929   .     S
Cu89   N107    2.045   .     S
Cu89   Cu90    2.721   .     S
Cu89   O122    1.979   .     S
Cu89   O109    1.967   .     S
Cu90   O127    1.929   .     S
Cu90   O123    1.979   .     S
Cu90   N108    2.045   .     S
Cu90   O125    1.925   .     S
Cu90   O120    1.967   .     S
H95    O114    1.014   .     S
H96    O116    1.014   .     S
H97    O118    1.014   .     S
H98    O121    1.014   .     S
C129   C132    1.466   .     S
C129   O173    1.310   .     A
C129   O187    1.303   .     A
C130   C132    1.406   .     A
C130   O176    1.385   .     S
C131   C151    1.408   .     A
C131   C152    1.403   .     A
C131   C140    1.462   .     S
C132   C150    1.417   .     A
C133   C142    1.477   .     S
C133   N172    1.381   .     A
C133   C520    1.430   1_545 S
C134   N171    1.382   .     A
C134   C143    1.475   .     S
C134   C327    1.428   .     S
C135   C144    1.480   .     S
C135   N172    1.375   .     A
C135   C518    1.428   1_545 S
C136   C145    1.478   .     S
C136   N171    1.375   .     A
C136   C325    1.430   .     S
C137   H164    1.110   .     S
C137   O192    1.416   .     S
C137   H155    1.110   .     S
C137   H163    1.112   .     S
C138   O174    1.410   .     S
C138   H166    1.114   .     S
C138   H165    1.107   .     S
C138   H167    1.112   .     S
C139   H169    1.107   .     S
C139   H168    1.110   .     S
C139   H170    1.109   .     S
C139   O175    1.407   .     S
C140   O186    1.305   .     A
C140   O184    1.307   .     A
C141   H156    1.109   .     S
C141   H157    1.113   .     S
C141   H158    1.113   .     S
C141   O176    1.410   .     S
C142   O178    1.396   .     S
C142   O177    1.217   .     D
C143   O179    1.223   .     D
C143   O180    1.391   .     S
C144   O182    1.396   .     S
C144   O181    1.220   .     D
C145   O183    1.223   .     D
C145   O185    1.397   .     S
C146   C148    1.407   .     S
C146   O191    1.302   .     A
C146   O188    1.298   .     A
C147   O189    1.298   .     A
C147   C149    1.407   .     S
C147   O190    1.302   .     A
C148   C1301   1.189   1_554 S
C149   C724    1.189   .     S
C150   O192    1.379   .     S
C151   O174    1.377   .     S
C151   C2      1.391   1_655 S
C152   O175    1.391   .     S
C152   C22     1.402   1_655 S
Cu153  O188    1.925   .     S
Cu153  O190    1.929   .     S
Cu153  N171    2.045   .     S
Cu153  Cu154   2.721   .     S
Cu153  O186    1.979   .     S
Cu153  O173    1.967   .     S
Cu154  O191    1.929   .     S
Cu154  O187    1.979   .     S
Cu154  N172    2.045   .     S
Cu154  O189    1.925   .     S
Cu154  O184    1.967   .     S
H159   O178    1.014   .     S
H160   O180    1.014   .     S
H161   O182    1.014   .     S
H162   O185    1.014   .     S
C193   C196    1.466   .     S
C193   O237    1.310   .     A
C193   O251    1.303   .     A
C194   C196    1.406   .     A
C194   O240    1.385   .     S
C194   C343    1.391   1_455 S
C195   C215    1.408   .     A
C195   C216    1.403   .     A
C195   C204    1.462   .     S
C196   C214    1.417   .     A
C197   C206    1.477   .     S
C197   N236    1.381   .     A
C198   N235    1.382   .     A
C198   C207    1.475   .     S
C198   C391    1.428   .     S
C199   C208    1.480   .     S
C199   N236    1.375   .     A
C200   C209    1.478   .     S
C200   N235    1.375   .     A
C200   C389    1.430   .     S
C201   H228    1.110   .     S
C201   O256    1.416   .     S
C201   H219    1.110   .     S
C201   H227    1.112   .     S
C202   O238    1.410   .     S
C202   H230    1.114   .     S
C202   H229    1.107   .     S
C202   H231    1.112   .     S
C203   H233    1.107   .     S
C203   H232    1.110   .     S
C203   H234    1.109   .     S
C203   O239    1.407   .     S
C204   O250    1.305   .     A
C204   O248    1.307   .     A
C205   H220    1.109   .     S
C205   H221    1.113   .     S
C205   H222    1.113   .     S
C205   O240    1.410   .     S
C206   O242    1.396   .     S
C206   O241    1.217   .     D
C207   O243    1.223   .     D
C207   O244    1.391   .     S
C208   O246    1.396   .     S
C208   O245    1.220   .     D
C209   O247    1.223   .     D
C209   O249    1.397   .     S
C210   C212    1.407   .     S
C210   O255    1.302   .     A
C210   O252    1.298   .     A
C211   O253    1.298   .     A
C211   C213    1.407   .     S
C211   O254    1.302   .     A
C212   C1365   1.189   1_554 S
C213   C788    1.189   .     S
C214   O256    1.379   .     S
C214   C344    1.402   1_455 S
C215   O238    1.377   .     S
C215   C258    1.391   .     S
C216   O239    1.391   .     S
C216   C278    1.402   .     S
Cu217  O252    1.925   .     S
Cu217  O254    1.929   .     S
Cu217  N235    2.045   .     S
Cu217  Cu218   2.721   .     S
Cu217  O250    1.979   .     S
Cu217  O237    1.967   .     S
Cu218  O255    1.929   .     S
Cu218  O251    1.979   .     S
Cu218  N236    2.045   .     S
Cu218  O253    1.925   .     S
Cu218  O248    1.967   .     S
H223   O242    1.014   .     S
H224   O244    1.014   .     S
H225   O246    1.014   .     S
H226   O249    1.014   .     S
C257   C260    1.466   .     S
C257   O301    1.310   .     A
C257   O315    1.303   .     A
C258   C260    1.406   .     A
C258   O304    1.385   .     S
C259   C279    1.408   .     A
C259   C280    1.403   .     A
C259   C268    1.462   .     S
C260   C278    1.417   .     A
C261   C270    1.477   .     S
C261   N300    1.381   .     A
C262   N299    1.382   .     A
C262   C271    1.475   .     S
C262   C455    1.428   .     S
C263   C272    1.480   .     S
C263   N300    1.375   .     A
C264   C273    1.478   .     S
C264   N299    1.375   .     A
C264   C453    1.430   .     S
C265   H292    1.110   .     S
C265   O320    1.416   .     S
C265   H283    1.110   .     S
C265   H291    1.112   .     S
C266   O302    1.410   .     S
C266   H294    1.114   .     S
C266   H293    1.107   .     S
C266   H295    1.112   .     S
C267   H297    1.107   .     S
C267   H296    1.110   .     S
C267   H298    1.109   .     S
C267   O303    1.407   .     S
C268   O314    1.305   .     A
C268   O312    1.307   .     A
C269   H284    1.109   .     S
C269   H285    1.113   .     S
C269   H286    1.113   .     S
C269   O304    1.410   .     S
C270   O306    1.396   .     S
C270   O305    1.217   .     D
C271   O307    1.223   .     D
C271   O308    1.391   .     S
C272   O310    1.396   .     S
C272   O309    1.220   .     D
C273   O311    1.223   .     D
C273   O313    1.397   .     S
C274   C276    1.407   .     S
C274   O319    1.302   .     A
C274   O316    1.298   .     A
C275   O317    1.298   .     A
C275   C277    1.407   .     S
C275   O318    1.302   .     A
C276   C1429   1.189   1_554 S
C277   C852    1.189   .     S
C278   O320    1.379   .     S
C279   O302    1.377   .     S
C279   C322    1.391   .     S
C280   O303    1.391   .     S
C280   C342    1.402   .     S
Cu281  O316    1.925   .     S
Cu281  O318    1.929   .     S
Cu281  N299    2.045   .     S
Cu281  Cu282   2.721   .     S
Cu281  O314    1.979   .     S
Cu281  O301    1.967   .     S
Cu282  O319    1.929   .     S
Cu282  O315    1.979   .     S
Cu282  N300    2.045   .     S
Cu282  O317    1.925   .     S
Cu282  O312    1.967   .     S
H287   O306    1.014   .     S
H288   O308    1.014   .     S
H289   O310    1.014   .     S
H290   O313    1.014   .     S
C321   C324    1.466   .     S
C321   O365    1.310   .     A
C321   O379    1.303   .     A
C322   C324    1.406   .     A
C322   O368    1.385   .     S
C323   C343    1.408   .     A
C323   C344    1.403   .     A
C323   C332    1.462   .     S
C324   C342    1.417   .     A
C325   C334    1.477   .     S
C325   N364    1.381   .     A
C326   N363    1.382   .     A
C326   C335    1.475   .     S
C326   C519    1.428   .     S
C327   C336    1.480   .     S
C327   N364    1.375   .     A
C328   C337    1.478   .     S
C328   N363    1.375   .     A
C328   C517    1.430   .     S
C329   H356    1.110   .     S
C329   O384    1.416   .     S
C329   H347    1.110   .     S
C329   H355    1.112   .     S
C330   O366    1.410   .     S
C330   H358    1.114   .     S
C330   H357    1.107   .     S
C330   H359    1.112   .     S
C331   H361    1.107   .     S
C331   H360    1.110   .     S
C331   H362    1.109   .     S
C331   O367    1.407   .     S
C332   O378    1.305   .     A
C332   O376    1.307   .     A
C333   H348    1.109   .     S
C333   H349    1.113   .     S
C333   H350    1.113   .     S
C333   O368    1.410   .     S
C334   O370    1.396   .     S
C334   O369    1.217   .     D
C335   O371    1.223   .     D
C335   O372    1.391   .     S
C336   O374    1.396   .     S
C336   O373    1.220   .     D
C337   O375    1.223   .     D
C337   O377    1.397   .     S
C338   C340    1.407   .     S
C338   O383    1.302   .     A
C338   O380    1.298   .     A
C339   O381    1.298   .     A
C339   C341    1.407   .     S
C339   O382    1.302   .     A
C340   C1493   1.189   1_554 S
C341   C916    1.189   .     S
C342   O384    1.379   .     S
C343   O366    1.377   .     S
C343   C194    1.391   1_655 S
C344   O367    1.391   .     S
C344   C214    1.402   1_655 S
Cu345  O380    1.925   .     S
Cu345  O382    1.929   .     S
Cu345  N363    2.045   .     S
Cu345  Cu346   2.721   .     S
Cu345  O378    1.979   .     S
Cu345  O365    1.967   .     S
Cu346  O383    1.929   .     S
Cu346  O379    1.979   .     S
Cu346  N364    2.045   .     S
Cu346  O381    1.925   .     S
Cu346  O376    1.967   .     S
H351   O370    1.014   .     S
H352   O372    1.014   .     S
H353   O374    1.014   .     S
H354   O377    1.014   .     S
C385   C388    1.466   .     S
C385   O429    1.310   .     A
C385   O443    1.303   .     A
C386   C388    1.406   .     A
C386   O432    1.385   .     S
C386   C535    1.391   1_455 S
C387   C407    1.408   .     A
C387   C408    1.403   .     A
C387   C396    1.462   .     S
C388   C406    1.417   .     A
C389   C398    1.477   .     S
C389   N428    1.381   .     A
C390   N427    1.382   .     A
C390   C399    1.475   .     S
C390   C7      1.428   1_565 S
C391   C400    1.480   .     S
C391   N428    1.375   .     A
C392   C401    1.478   .     S
C392   N427    1.375   .     A
C392   C5      1.430   1_565 S
C393   H420    1.110   .     S
C393   O448    1.416   .     S
C393   H411    1.110   .     S
C393   H419    1.112   .     S
C394   O430    1.410   .     S
C394   H422    1.114   .     S
C394   H421    1.107   .     S
C394   H423    1.112   .     S
C395   H425    1.107   .     S
C395   H424    1.110   .     S
C395   H426    1.109   .     S
C395   O431    1.407   .     S
C396   O442    1.305   .     A
C396   O440    1.307   .     A
C397   H412    1.109   .     S
C397   H413    1.113   .     S
C397   H414    1.113   .     S
C397   O432    1.410   .     S
C398   O434    1.396   .     S
C398   O433    1.217   .     D
C399   O435    1.223   .     D
C399   O436    1.391   .     S
C400   O438    1.396   .     S
C400   O437    1.220   .     D
C401   O439    1.223   .     D
C401   O441    1.397   .     S
C402   C404    1.407   .     S
C402   O447    1.302   .     A
C402   O444    1.298   .     A
C403   O445    1.298   .     A
C403   C405    1.407   .     S
C403   O446    1.302   .     A
C404   C1557   1.189   1_554 S
C405   C980    1.189   .     S
C406   O448    1.379   .     S
C406   C536    1.402   1_455 S
C407   O430    1.377   .     S
C407   C450    1.391   .     S
C408   O431    1.391   .     S
C408   C470    1.402   .     S
Cu409  O444    1.925   .     S
Cu409  O446    1.929   .     S
Cu409  N427    2.045   .     S
Cu409  Cu410   2.721   .     S
Cu409  O442    1.979   .     S
Cu409  O429    1.967   .     S
Cu410  O447    1.929   .     S
Cu410  O443    1.979   .     S
Cu410  N428    2.045   .     S
Cu410  O445    1.925   .     S
Cu410  O440    1.967   .     S
H415   O434    1.014   .     S
H416   O436    1.014   .     S
H417   O438    1.014   .     S
H418   O441    1.014   .     S
C449   C452    1.466   .     S
C449   O493    1.310   .     A
C449   O507    1.303   .     A
C450   C452    1.406   .     A
C450   O496    1.385   .     S
C451   C471    1.408   .     A
C451   C472    1.403   .     A
C451   C460    1.462   .     S
C452   C470    1.417   .     A
C453   C462    1.477   .     S
C453   N492    1.381   .     A
C454   N491    1.382   .     A
C454   C463    1.475   .     S
C454   C71     1.428   1_565 S
C455   C464    1.480   .     S
C455   N492    1.375   .     A
C456   C465    1.478   .     S
C456   N491    1.375   .     A
C456   C69     1.430   1_565 S
C457   H484    1.110   .     S
C457   O512    1.416   .     S
C457   H475    1.110   .     S
C457   H483    1.112   .     S
C458   O494    1.410   .     S
C458   H486    1.114   .     S
C458   H485    1.107   .     S
C458   H487    1.112   .     S
C459   H489    1.107   .     S
C459   H488    1.110   .     S
C459   H490    1.109   .     S
C459   O495    1.407   .     S
C460   O506    1.305   .     A
C460   O504    1.307   .     A
C461   H476    1.109   .     S
C461   H477    1.113   .     S
C461   H478    1.113   .     S
C461   O496    1.410   .     S
C462   O498    1.396   .     S
C462   O497    1.217   .     D
C463   O499    1.223   .     D
C463   O500    1.391   .     S
C464   O502    1.396   .     S
C464   O501    1.220   .     D
C465   O503    1.223   .     D
C465   O505    1.397   .     S
C466   C468    1.407   .     S
C466   O511    1.302   .     A
C466   O508    1.298   .     A
C467   O509    1.298   .     A
C467   C469    1.407   .     S
C467   O510    1.302   .     A
C468   C1621   1.189   1_554 S
C469   C1044   1.189   .     S
C470   O512    1.379   .     S
C471   O494    1.377   .     S
C471   C514    1.391   .     S
C472   O495    1.391   .     S
C472   C534    1.402   .     S
Cu473  O508    1.925   .     S
Cu473  O510    1.929   .     S
Cu473  N491    2.045   .     S
Cu473  Cu474   2.721   .     S
Cu473  O506    1.979   .     S
Cu473  O493    1.967   .     S
Cu474  O511    1.929   .     S
Cu474  O507    1.979   .     S
Cu474  N492    2.045   .     S
Cu474  O509    1.925   .     S
Cu474  O504    1.967   .     S
H479   O498    1.014   .     S
H480   O500    1.014   .     S
H481   O502    1.014   .     S
H482   O505    1.014   .     S
C513   C516    1.466   .     S
C513   O557    1.310   .     A
C513   O571    1.303   .     A
C514   C516    1.406   .     A
C514   O560    1.385   .     S
C515   C535    1.408   .     A
C515   C536    1.403   .     A
C515   C524    1.462   .     S
C516   C534    1.417   .     A
C517   C526    1.477   .     S
C517   N556    1.381   .     A
C518   N555    1.382   .     A
C518   C527    1.475   .     S
C518   C135    1.428   1_565 S
C519   C528    1.480   .     S
C519   N556    1.375   .     A
C520   C529    1.478   .     S
C520   N555    1.375   .     A
C520   C133    1.430   1_565 S
C521   H548    1.110   .     S
C521   O576    1.416   .     S
C521   H539    1.110   .     S
C521   H547    1.112   .     S
C522   O558    1.410   .     S
C522   H550    1.114   .     S
C522   H549    1.107   .     S
C522   H551    1.112   .     S
C523   H553    1.107   .     S
C523   H552    1.110   .     S
C523   H554    1.109   .     S
C523   O559    1.407   .     S
C524   O570    1.305   .     A
C524   O568    1.307   .     A
C525   H540    1.109   .     S
C525   H541    1.113   .     S
C525   H542    1.113   .     S
C525   O560    1.410   .     S
C526   O562    1.396   .     S
C526   O561    1.217   .     D
C527   O563    1.223   .     D
C527   O564    1.391   .     S
C528   O566    1.396   .     S
C528   O565    1.220   .     D
C529   O567    1.223   .     D
C529   O569    1.397   .     S
C530   C532    1.407   .     S
C530   O575    1.302   .     A
C530   O572    1.298   .     A
C531   O573    1.298   .     A
C531   C533    1.407   .     S
C531   O574    1.302   .     A
C532   C1685   1.189   1_554 S
C533   C1108   1.189   .     S
C534   O576    1.379   .     S
C535   O558    1.377   .     S
C535   C386    1.391   1_655 S
C536   O559    1.391   .     S
C536   C406    1.402   1_655 S
Cu537  O572    1.925   .     S
Cu537  O574    1.929   .     S
Cu537  N555    2.045   .     S
Cu537  Cu538   2.721   .     S
Cu537  O570    1.979   .     S
Cu537  O557    1.967   .     S
Cu538  O575    1.929   .     S
Cu538  O571    1.979   .     S
Cu538  N556    2.045   .     S
Cu538  O573    1.925   .     S
Cu538  O568    1.967   .     S
H543   O562    1.014   .     S
H544   O564    1.014   .     S
H545   O566    1.014   .     S
H546   O569    1.014   .     S
C577   C580    1.466   .     S
C577   O621    1.310   .     A
C577   O635    1.303   .     A
C578   C580    1.406   .     A
C578   O624    1.385   .     S
C578   C727    1.391   1_455 S
C579   C599    1.408   .     A
C579   C600    1.403   .     A
C579   C588    1.462   .     S
C580   C598    1.417   .     A
C581   C590    1.477   .     S
C581   N620    1.381   .     A
C581   C968    1.430   1_545 S
C582   N619    1.382   .     A
C582   C591    1.475   .     S
C582   C775    1.428   .     S
C583   C592    1.480   .     S
C583   N620    1.375   .     A
C583   C966    1.428   1_545 S
C584   C593    1.478   .     S
C584   N619    1.375   .     A
C584   C773    1.430   .     S
C585   H612    1.110   .     S
C585   O640    1.416   .     S
C585   H603    1.110   .     S
C585   H611    1.112   .     S
C586   O622    1.410   .     S
C586   H614    1.114   .     S
C586   H613    1.107   .     S
C586   H615    1.112   .     S
C587   H617    1.107   .     S
C587   H616    1.110   .     S
C587   H618    1.109   .     S
C587   O623    1.407   .     S
C588   O634    1.305   .     A
C588   O632    1.307   .     A
C589   H604    1.109   .     S
C589   H605    1.113   .     S
C589   H606    1.113   .     S
C589   O624    1.410   .     S
C590   O626    1.396   .     S
C590   O625    1.217   .     D
C591   O627    1.223   .     D
C591   O628    1.391   .     S
C592   O630    1.396   .     S
C592   O629    1.220   .     D
C593   O631    1.223   .     D
C593   O633    1.397   .     S
C594   C596    1.407   .     S
C594   O639    1.302   .     A
C594   O636    1.298   .     A
C595   O637    1.298   .     A
C595   C597    1.407   .     S
C595   O638    1.302   .     A
C597   C1172   1.189   .     S
C598   O640    1.379   .     S
C598   C728    1.402   1_455 S
C599   O622    1.377   .     S
C599   C642    1.391   .     S
C600   O623    1.391   .     S
C600   C662    1.402   .     S
Cu601  O636    1.925   .     S
Cu601  O638    1.929   .     S
Cu601  N619    2.045   .     S
Cu601  Cu602   2.721   .     S
Cu601  O634    1.979   .     S
Cu601  O621    1.967   .     S
Cu602  O639    1.929   .     S
Cu602  O635    1.979   .     S
Cu602  N620    2.045   .     S
Cu602  O637    1.925   .     S
Cu602  O632    1.967   .     S
H607   O626    1.014   .     S
H608   O628    1.014   .     S
H609   O630    1.014   .     S
H610   O633    1.014   .     S
C641   C644    1.466   .     S
C641   O685    1.310   .     A
C641   O699    1.303   .     A
C642   C644    1.406   .     A
C642   O688    1.385   .     S
C643   C663    1.408   .     A
C643   C664    1.403   .     A
C643   C652    1.462   .     S
C644   C662    1.417   .     A
C645   C654    1.477   .     S
C645   N684    1.381   .     A
C645   C1032   1.430   1_545 S
C646   N683    1.382   .     A
C646   C655    1.475   .     S
C646   C839    1.428   .     S
C647   C656    1.480   .     S
C647   N684    1.375   .     A
C647   C1030   1.428   1_545 S
C648   C657    1.478   .     S
C648   N683    1.375   .     A
C648   C837    1.430   .     S
C649   H676    1.110   .     S
C649   O704    1.416   .     S
C649   H667    1.110   .     S
C649   H675    1.112   .     S
C650   O686    1.410   .     S
C650   H678    1.114   .     S
C650   H677    1.107   .     S
C650   H679    1.112   .     S
C651   H681    1.107   .     S
C651   H680    1.110   .     S
C651   H682    1.109   .     S
C651   O687    1.407   .     S
C652   O698    1.305   .     A
C652   O696    1.307   .     A
C653   H668    1.109   .     S
C653   H669    1.113   .     S
C653   H670    1.113   .     S
C653   O688    1.410   .     S
C654   O690    1.396   .     S
C654   O689    1.217   .     D
C655   O691    1.223   .     D
C655   O692    1.391   .     S
C656   O694    1.396   .     S
C656   O693    1.220   .     D
C657   O695    1.223   .     D
C657   O697    1.397   .     S
C658   C660    1.407   .     S
C658   O703    1.302   .     A
C658   O700    1.298   .     A
C659   O701    1.298   .     A
C659   C661    1.407   .     S
C659   O702    1.302   .     A
C661   C1236   1.189   .     S
C662   O704    1.379   .     S
C663   O686    1.377   .     S
C663   C706    1.391   .     S
C664   O687    1.391   .     S
C664   C726    1.402   .     S
Cu665  O700    1.925   .     S
Cu665  O702    1.929   .     S
Cu665  N683    2.045   .     S
Cu665  Cu666   2.721   .     S
Cu665  O698    1.979   .     S
Cu665  O685    1.967   .     S
Cu666  O703    1.929   .     S
Cu666  O699    1.979   .     S
Cu666  N684    2.045   .     S
Cu666  O701    1.925   .     S
Cu666  O696    1.967   .     S
H671   O690    1.014   .     S
H672   O692    1.014   .     S
H673   O694    1.014   .     S
H674   O697    1.014   .     S
C705   C708    1.466   .     S
C705   O749    1.310   .     A
C705   O763    1.303   .     A
C706   C708    1.406   .     A
C706   O752    1.385   .     S
C707   C727    1.408   .     A
C707   C728    1.403   .     A
C707   C716    1.462   .     S
C708   C726    1.417   .     A
C709   C718    1.477   .     S
C709   N748    1.381   .     A
C709   C1096   1.430   1_545 S
C710   N747    1.382   .     A
C710   C719    1.475   .     S
C710   C903    1.428   .     S
C711   C720    1.480   .     S
C711   N748    1.375   .     A
C711   C1094   1.428   1_545 S
C712   C721    1.478   .     S
C712   N747    1.375   .     A
C712   C901    1.430   .     S
C713   H740    1.110   .     S
C713   O768    1.416   .     S
C713   H731    1.110   .     S
C713   H739    1.112   .     S
C714   O750    1.410   .     S
C714   H742    1.114   .     S
C714   H741    1.107   .     S
C714   H743    1.112   .     S
C715   H745    1.107   .     S
C715   H744    1.110   .     S
C715   H746    1.109   .     S
C715   O751    1.407   .     S
C716   O762    1.305   .     A
C716   O760    1.307   .     A
C717   H732    1.109   .     S
C717   H733    1.113   .     S
C717   H734    1.113   .     S
C717   O752    1.410   .     S
C718   O754    1.396   .     S
C718   O753    1.217   .     D
C719   O755    1.223   .     D
C719   O756    1.391   .     S
C720   O758    1.396   .     S
C720   O757    1.220   .     D
C721   O759    1.223   .     D
C721   O761    1.397   .     S
C722   C724    1.407   .     S
C722   O767    1.302   .     A
C722   O764    1.298   .     A
C723   O765    1.298   .     A
C723   C725    1.407   .     S
C723   O766    1.302   .     A
C725   C1300   1.189   .     S
C726   O768    1.379   .     S
C727   O750    1.377   .     S
C727   C578    1.391   1_655 S
C728   O751    1.391   .     S
C728   C598    1.402   1_655 S
Cu729  O764    1.925   .     S
Cu729  O766    1.929   .     S
Cu729  N747    2.045   .     S
Cu729  Cu730   2.721   .     S
Cu729  O762    1.979   .     S
Cu729  O749    1.967   .     S
Cu730  O767    1.929   .     S
Cu730  O763    1.979   .     S
Cu730  N748    2.045   .     S
Cu730  O765    1.925   .     S
Cu730  O760    1.967   .     S
H735   O754    1.014   .     S
H736   O756    1.014   .     S
H737   O758    1.014   .     S
H738   O761    1.014   .     S
C769   C772    1.466   .     S
C769   O813    1.310   .     A
C769   O827    1.303   .     A
C770   C772    1.406   .     A
C770   O816    1.385   .     S
C770   C919    1.391   1_455 S
C771   C791    1.408   .     A
C771   C792    1.403   .     A
C771   C780    1.462   .     S
C772   C790    1.417   .     A
C773   C782    1.477   .     S
C773   N812    1.381   .     A
C774   N811    1.382   .     A
C774   C783    1.475   .     S
C774   C967    1.428   .     S
C775   C784    1.480   .     S
C775   N812    1.375   .     A
C776   C785    1.478   .     S
C776   N811    1.375   .     A
C776   C965    1.430   .     S
C777   H804    1.110   .     S
C777   O832    1.416   .     S
C777   H795    1.110   .     S
C777   H803    1.112   .     S
C778   O814    1.410   .     S
C778   H806    1.114   .     S
C778   H805    1.107   .     S
C778   H807    1.112   .     S
C779   H809    1.107   .     S
C779   H808    1.110   .     S
C779   H810    1.109   .     S
C779   O815    1.407   .     S
C780   O826    1.305   .     A
C780   O824    1.307   .     A
C781   H796    1.109   .     S
C781   H797    1.113   .     S
C781   H798    1.113   .     S
C781   O816    1.410   .     S
C782   O818    1.396   .     S
C782   O817    1.217   .     D
C783   O819    1.223   .     D
C783   O820    1.391   .     S
C784   O822    1.396   .     S
C784   O821    1.220   .     D
C785   O823    1.223   .     D
C785   O825    1.397   .     S
C786   C788    1.407   .     S
C786   O831    1.302   .     A
C786   O828    1.298   .     A
C787   O829    1.298   .     A
C787   C789    1.407   .     S
C787   O830    1.302   .     A
C789   C1364   1.189   .     S
C790   O832    1.379   .     S
C790   C920    1.402   1_455 S
C791   O814    1.377   .     S
C791   C834    1.391   .     S
C792   O815    1.391   .     S
C792   C854    1.402   .     S
Cu793  O828    1.925   .     S
Cu793  O830    1.929   .     S
Cu793  N811    2.045   .     S
Cu793  Cu794   2.721   .     S
Cu793  O826    1.979   .     S
Cu793  O813    1.967   .     S
Cu794  O831    1.929   .     S
Cu794  O827    1.979   .     S
Cu794  N812    2.045   .     S
Cu794  O829    1.925   .     S
Cu794  O824    1.967   .     S
H799   O818    1.014   .     S
H800   O820    1.014   .     S
H801   O822    1.014   .     S
H802   O825    1.014   .     S
C833   C836    1.466   .     S
C833   O877    1.310   .     A
C833   O891    1.303   .     A
C834   C836    1.406   .     A
C834   O880    1.385   .     S
C835   C855    1.408   .     A
C835   C856    1.403   .     A
C835   C844    1.462   .     S
C836   C854    1.417   .     A
C837   C846    1.477   .     S
C837   N876    1.381   .     A
C838   N875    1.382   .     A
C838   C847    1.475   .     S
C838   C1031   1.428   .     S
C839   C848    1.480   .     S
C839   N876    1.375   .     A
C840   C849    1.478   .     S
C840   N875    1.375   .     A
C840   C1029   1.430   .     S
C841   H868    1.110   .     S
C841   O896    1.416   .     S
C841   H859    1.110   .     S
C841   H867    1.112   .     S
C842   O878    1.410   .     S
C842   H870    1.114   .     S
C842   H869    1.107   .     S
C842   H871    1.112   .     S
C843   H873    1.107   .     S
C843   H872    1.110   .     S
C843   H874    1.109   .     S
C843   O879    1.407   .     S
C844   O890    1.305   .     A
C844   O888    1.307   .     A
C845   H860    1.109   .     S
C845   H861    1.113   .     S
C845   H862    1.113   .     S
C845   O880    1.410   .     S
C846   O882    1.396   .     S
C846   O881    1.217   .     D
C847   O883    1.223   .     D
C847   O884    1.391   .     S
C848   O886    1.396   .     S
C848   O885    1.220   .     D
C849   O887    1.223   .     D
C849   O889    1.397   .     S
C850   C852    1.407   .     S
C850   O895    1.302   .     A
C850   O892    1.298   .     A
C851   O893    1.298   .     A
C851   C853    1.407   .     S
C851   O894    1.302   .     A
C853   C1428   1.189   .     S
C854   O896    1.379   .     S
C855   O878    1.377   .     S
C855   C898    1.391   .     S
C856   O879    1.391   .     S
C856   C918    1.402   .     S
Cu857  O892    1.925   .     S
Cu857  O894    1.929   .     S
Cu857  N875    2.045   .     S
Cu857  Cu858   2.721   .     S
Cu857  O890    1.979   .     S
Cu857  O877    1.967   .     S
Cu858  O895    1.929   .     S
Cu858  O891    1.979   .     S
Cu858  N876    2.045   .     S
Cu858  O893    1.925   .     S
Cu858  O888    1.967   .     S
H863   O882    1.014   .     S
H864   O884    1.014   .     S
H865   O886    1.014   .     S
H866   O889    1.014   .     S
C897   C900    1.466   .     S
C897   O941    1.310   .     A
C897   O955    1.303   .     A
C898   C900    1.406   .     A
C898   O944    1.385   .     S
C899   C919    1.408   .     A
C899   C920    1.403   .     A
C899   C908    1.462   .     S
C900   C918    1.417   .     A
C901   C910    1.477   .     S
C901   N940    1.381   .     A
C902   N939    1.382   .     A
C902   C911    1.475   .     S
C902   C1095   1.428   .     S
C903   C912    1.480   .     S
C903   N940    1.375   .     A
C904   C913    1.478   .     S
C904   N939    1.375   .     A
C904   C1093   1.430   .     S
C905   H932    1.110   .     S
C905   O960    1.416   .     S
C905   H923    1.110   .     S
C905   H931    1.112   .     S
C906   O942    1.410   .     S
C906   H934    1.114   .     S
C906   H933    1.107   .     S
C906   H935    1.112   .     S
C907   H937    1.107   .     S
C907   H936    1.110   .     S
C907   H938    1.109   .     S
C907   O943    1.407   .     S
C908   O954    1.305   .     A
C908   O952    1.307   .     A
C909   H924    1.109   .     S
C909   H925    1.113   .     S
C909   H926    1.113   .     S
C909   O944    1.410   .     S
C910   O946    1.396   .     S
C910   O945    1.217   .     D
C911   O947    1.223   .     D
C911   O948    1.391   .     S
C912   O950    1.396   .     S
C912   O949    1.220   .     D
C913   O951    1.223   .     D
C913   O953    1.397   .     S
C914   C916    1.407   .     S
C914   O959    1.302   .     A
C914   O956    1.298   .     A
C915   O957    1.298   .     A
C915   C917    1.407   .     S
C915   O958    1.302   .     A
C917   C1492   1.189   .     S
C918   O960    1.379   .     S
C919   O942    1.377   .     S
C919   C770    1.391   1_655 S
C920   O943    1.391   .     S
C920   C790    1.402   1_655 S
Cu921  O956    1.925   .     S
Cu921  O958    1.929   .     S
Cu921  N939    2.045   .     S
Cu921  Cu922   2.721   .     S
Cu921  O954    1.979   .     S
Cu921  O941    1.967   .     S
Cu922  O959    1.929   .     S
Cu922  O955    1.979   .     S
Cu922  N940    2.045   .     S
Cu922  O957    1.925   .     S
Cu922  O952    1.967   .     S
H927   O946    1.014   .     S
H928   O948    1.014   .     S
H929   O950    1.014   .     S
H930   O953    1.014   .     S
C961   C964    1.466   .     S
C961   O1005   1.310   .     A
C961   O1019   1.303   .     A
C962   C964    1.406   .     A
C962   O1008   1.385   .     S
C962   C1111   1.391   1_455 S
C963   C983    1.408   .     A
C963   C984    1.403   .     A
C963   C972    1.462   .     S
C964   C982    1.417   .     A
C965   C974    1.477   .     S
C965   N1004   1.381   .     A
C966   N1003   1.382   .     A
C966   C975    1.475   .     S
C966   C583    1.428   1_565 S
C967   C976    1.480   .     S
C967   N1004   1.375   .     A
C968   C977    1.478   .     S
C968   N1003   1.375   .     A
C968   C581    1.430   1_565 S
C969   H996    1.110   .     S
C969   O1024   1.416   .     S
C969   H987    1.110   .     S
C969   H995    1.112   .     S
C970   O1006   1.410   .     S
C970   H998    1.114   .     S
C970   H997    1.107   .     S
C970   H999    1.112   .     S
C971   H1001   1.107   .     S
C971   H1000   1.110   .     S
C971   H1002   1.109   .     S
C971   O1007   1.407   .     S
C972   O1018   1.305   .     A
C972   O1016   1.307   .     A
C973   H988    1.109   .     S
C973   H989    1.113   .     S
C973   H990    1.113   .     S
C973   O1008   1.410   .     S
C974   O1010   1.396   .     S
C974   O1009   1.217   .     D
C975   O1011   1.223   .     D
C975   O1012   1.391   .     S
C976   O1014   1.396   .     S
C976   O1013   1.220   .     D
C977   O1015   1.223   .     D
C977   O1017   1.397   .     S
C978   C980    1.407   .     S
C978   O1023   1.302   .     A
C978   O1020   1.298   .     A
C979   O1021   1.298   .     A
C979   C981    1.407   .     S
C979   O1022   1.302   .     A
C981   C1556   1.189   .     S
C982   O1024   1.379   .     S
C982   C1112   1.402   1_455 S
C983   O1006   1.377   .     S
C983   C1026   1.391   .     S
C984   O1007   1.391   .     S
C984   C1046   1.402   .     S
Cu985  O1020   1.925   .     S
Cu985  O1022   1.929   .     S
Cu985  N1003   2.045   .     S
Cu985  Cu986   2.721   .     S
Cu985  O1018   1.979   .     S
Cu985  O1005   1.967   .     S
Cu986  O1023   1.929   .     S
Cu986  O1019   1.979   .     S
Cu986  N1004   2.045   .     S
Cu986  O1021   1.925   .     S
Cu986  O1016   1.967   .     S
H991   O1010   1.014   .     S
H992   O1012   1.014   .     S
H993   O1014   1.014   .     S
H994   O1017   1.014   .     S
C1025  C1028   1.466   .     S
C1025  O1069   1.310   .     A
C1025  O1083   1.303   .     A
C1026  C1028   1.406   .     A
C1026  O1072   1.385   .     S
C1027  C1047   1.408   .     A
C1027  C1048   1.403   .     A
C1027  C1036   1.462   .     S
C1028  C1046   1.417   .     A
C1029  C1038   1.477   .     S
C1029  N1068   1.381   .     A
C1030  N1067   1.382   .     A
C1030  C1039   1.475   .     S
C1030  C647    1.428   1_565 S
C1031  C1040   1.480   .     S
C1031  N1068   1.375   .     A
C1032  C1041   1.478   .     S
C1032  N1067   1.375   .     A
C1032  C645    1.430   1_565 S
C1033  H1060   1.110   .     S
C1033  O1088   1.416   .     S
C1033  H1051   1.110   .     S
C1033  H1059   1.112   .     S
C1034  O1070   1.410   .     S
C1034  H1062   1.114   .     S
C1034  H1061   1.107   .     S
C1034  H1063   1.112   .     S
C1035  H1065   1.107   .     S
C1035  H1064   1.110   .     S
C1035  H1066   1.109   .     S
C1035  O1071   1.407   .     S
C1036  O1082   1.305   .     A
C1036  O1080   1.307   .     A
C1037  H1052   1.109   .     S
C1037  H1053   1.113   .     S
C1037  H1054   1.113   .     S
C1037  O1072   1.410   .     S
C1038  O1074   1.396   .     S
C1038  O1073   1.217   .     D
C1039  O1075   1.223   .     D
C1039  O1076   1.391   .     S
C1040  O1078   1.396   .     S
C1040  O1077   1.220   .     D
C1041  O1079   1.223   .     D
C1041  O1081   1.397   .     S
C1042  C1044   1.407   .     S
C1042  O1087   1.302   .     A
C1042  O1084   1.298   .     A
C1043  O1085   1.298   .     A
C1043  C1045   1.407   .     S
C1043  O1086   1.302   .     A
C1045  C1620   1.189   .     S
C1046  O1088   1.379   .     S
C1047  O1070   1.377   .     S
C1047  C1090   1.391   .     S
C1048  O1071   1.391   .     S
C1048  C1110   1.402   .     S
Cu1049 O1084   1.925   .     S
Cu1049 O1086   1.929   .     S
Cu1049 N1067   2.045   .     S
Cu1049 Cu1050  2.721   .     S
Cu1049 O1082   1.979   .     S
Cu1049 O1069   1.967   .     S
Cu1050 O1087   1.929   .     S
Cu1050 O1083   1.979   .     S
Cu1050 N1068   2.045   .     S
Cu1050 O1085   1.925   .     S
Cu1050 O1080   1.967   .     S
H1055  O1074   1.014   .     S
H1056  O1076   1.014   .     S
H1057  O1078   1.014   .     S
H1058  O1081   1.014   .     S
C1089  C1092   1.466   .     S
C1089  O1133   1.310   .     A
C1089  O1147   1.303   .     A
C1090  C1092   1.406   .     A
C1090  O1136   1.385   .     S
C1091  C1111   1.408   .     A
C1091  C1112   1.403   .     A
C1091  C1100   1.462   .     S
C1092  C1110   1.417   .     A
C1093  C1102   1.477   .     S
C1093  N1132   1.381   .     A
C1094  N1131   1.382   .     A
C1094  C1103   1.475   .     S
C1094  C711    1.428   1_565 S
C1095  C1104   1.480   .     S
C1095  N1132   1.375   .     A
C1096  C1105   1.478   .     S
C1096  N1131   1.375   .     A
C1096  C709    1.430   1_565 S
C1097  H1124   1.110   .     S
C1097  O1152   1.416   .     S
C1097  H1115   1.110   .     S
C1097  H1123   1.112   .     S
C1098  O1134   1.410   .     S
C1098  H1126   1.114   .     S
C1098  H1125   1.107   .     S
C1098  H1127   1.112   .     S
C1099  H1129   1.107   .     S
C1099  H1128   1.110   .     S
C1099  H1130   1.109   .     S
C1099  O1135   1.407   .     S
C1100  O1146   1.305   .     A
C1100  O1144   1.307   .     A
C1101  H1116   1.109   .     S
C1101  H1117   1.113   .     S
C1101  H1118   1.113   .     S
C1101  O1136   1.410   .     S
C1102  O1138   1.396   .     S
C1102  O1137   1.217   .     D
C1103  O1139   1.223   .     D
C1103  O1140   1.391   .     S
C1104  O1142   1.396   .     S
C1104  O1141   1.220   .     D
C1105  O1143   1.223   .     D
C1105  O1145   1.397   .     S
C1106  C1108   1.407   .     S
C1106  O1151   1.302   .     A
C1106  O1148   1.298   .     A
C1107  O1149   1.298   .     A
C1107  C1109   1.407   .     S
C1107  O1150   1.302   .     A
C1109  C1684   1.189   .     S
C1110  O1152   1.379   .     S
C1111  O1134   1.377   .     S
C1111  C962    1.391   1_655 S
C1112  O1135   1.391   .     S
C1112  C982    1.402   1_655 S
Cu1113 O1148   1.925   .     S
Cu1113 O1150   1.929   .     S
Cu1113 N1131   2.045   .     S
Cu1113 Cu1114  2.721   .     S
Cu1113 O1146   1.979   .     S
Cu1113 O1133   1.967   .     S
Cu1114 O1151   1.929   .     S
Cu1114 O1147   1.979   .     S
Cu1114 N1132   2.045   .     S
Cu1114 O1149   1.925   .     S
Cu1114 O1144   1.967   .     S
H1119  O1138   1.014   .     S
H1120  O1140   1.014   .     S
H1121  O1142   1.014   .     S
H1122  O1145   1.014   .     S
C1153  C1156   1.466   .     S
C1153  O1197   1.310   .     A
C1153  O1211   1.303   .     A
C1154  C1156   1.406   .     A
C1154  O1200   1.385   .     S
C1154  C1303   1.391   1_455 S
C1155  C1175   1.408   .     A
C1155  C1176   1.403   .     A
C1155  C1164   1.462   .     S
C1156  C1174   1.417   .     A
C1157  C1166   1.477   .     S
C1157  N1196   1.381   .     A
C1157  C1544   1.430   1_545 S
C1158  N1195   1.382   .     A
C1158  C1167   1.475   .     S
C1158  C1351   1.428   .     S
C1159  C1168   1.480   .     S
C1159  N1196   1.375   .     A
C1159  C1542   1.428   1_545 S
C1160  C1169   1.478   .     S
C1160  N1195   1.375   .     A
C1160  C1349   1.430   .     S
C1161  H1188   1.110   .     S
C1161  O1216   1.416   .     S
C1161  H1179   1.110   .     S
C1161  H1187   1.112   .     S
C1162  O1198   1.410   .     S
C1162  H1190   1.114   .     S
C1162  H1189   1.107   .     S
C1162  H1191   1.112   .     S
C1163  H1193   1.107   .     S
C1163  H1192   1.110   .     S
C1163  H1194   1.109   .     S
C1163  O1199   1.407   .     S
C1164  O1210   1.305   .     A
C1164  O1208   1.307   .     A
C1165  H1180   1.109   .     S
C1165  H1181   1.113   .     S
C1165  H1182   1.113   .     S
C1165  O1200   1.410   .     S
C1166  O1202   1.396   .     S
C1166  O1201   1.217   .     D
C1167  O1203   1.223   .     D
C1167  O1204   1.391   .     S
C1168  O1206   1.396   .     S
C1168  O1205   1.220   .     D
C1169  O1207   1.223   .     D
C1169  O1209   1.397   .     S
C1170  C1172   1.407   .     S
C1170  O1215   1.302   .     A
C1170  O1212   1.298   .     A
C1171  O1213   1.298   .     A
C1171  C1173   1.407   .     S
C1171  O1214   1.302   .     A
C1173  C20     1.189   1_556 S
C1174  O1216   1.379   .     S
C1174  C1304   1.402   1_455 S
C1175  O1198   1.377   .     S
C1175  C1218   1.391   .     S
C1176  O1199   1.391   .     S
C1176  C1238   1.402   .     S
Cu1177 O1212   1.925   .     S
Cu1177 O1214   1.929   .     S
Cu1177 N1195   2.045   .     S
Cu1177 Cu1178  2.721   .     S
Cu1177 O1210   1.979   .     S
Cu1177 O1197   1.967   .     S
Cu1178 O1215   1.929   .     S
Cu1178 O1211   1.979   .     S
Cu1178 N1196   2.045   .     S
Cu1178 O1213   1.925   .     S
Cu1178 O1208   1.967   .     S
H1183  O1202   1.014   .     S
H1184  O1204   1.014   .     S
H1185  O1206   1.014   .     S
H1186  O1209   1.014   .     S
C1217  C1220   1.466   .     S
C1217  O1261   1.310   .     A
C1217  O1275   1.303   .     A
C1218  C1220   1.406   .     A
C1218  O1264   1.385   .     S
C1219  C1239   1.408   .     A
C1219  C1240   1.403   .     A
C1219  C1228   1.462   .     S
C1220  C1238   1.417   .     A
C1221  C1230   1.477   .     S
C1221  N1260   1.381   .     A
C1221  C1608   1.430   1_545 S
C1222  N1259   1.382   .     A
C1222  C1231   1.475   .     S
C1222  C1415   1.428   .     S
C1223  C1232   1.480   .     S
C1223  N1260   1.375   .     A
C1223  C1606   1.428   1_545 S
C1224  C1233   1.478   .     S
C1224  N1259   1.375   .     A
C1224  C1413   1.430   .     S
C1225  H1252   1.110   .     S
C1225  O1280   1.416   .     S
C1225  H1243   1.110   .     S
C1225  H1251   1.112   .     S
C1226  O1262   1.410   .     S
C1226  H1254   1.114   .     S
C1226  H1253   1.107   .     S
C1226  H1255   1.112   .     S
C1227  H1257   1.107   .     S
C1227  H1256   1.110   .     S
C1227  H1258   1.109   .     S
C1227  O1263   1.407   .     S
C1228  O1274   1.305   .     A
C1228  O1272   1.307   .     A
C1229  H1244   1.109   .     S
C1229  H1245   1.113   .     S
C1229  H1246   1.113   .     S
C1229  O1264   1.410   .     S
C1230  O1266   1.396   .     S
C1230  O1265   1.217   .     D
C1231  O1267   1.223   .     D
C1231  O1268   1.391   .     S
C1232  O1270   1.396   .     S
C1232  O1269   1.220   .     D
C1233  O1271   1.223   .     D
C1233  O1273   1.397   .     S
C1234  C1236   1.407   .     S
C1234  O1279   1.302   .     A
C1234  O1276   1.298   .     A
C1235  O1277   1.298   .     A
C1235  C1237   1.407   .     S
C1235  O1278   1.302   .     A
C1237  C84     1.189   1_556 S
C1238  O1280   1.379   .     S
C1239  O1262   1.377   .     S
C1239  C1282   1.391   .     S
C1240  O1263   1.391   .     S
C1240  C1302   1.402   .     S
Cu1241 O1276   1.925   .     S
Cu1241 O1278   1.929   .     S
Cu1241 N1259   2.045   .     S
Cu1241 Cu1242  2.721   .     S
Cu1241 O1274   1.979   .     S
Cu1241 O1261   1.967   .     S
Cu1242 O1279   1.929   .     S
Cu1242 O1275   1.979   .     S
Cu1242 N1260   2.045   .     S
Cu1242 O1277   1.925   .     S
Cu1242 O1272   1.967   .     S
H1247  O1266   1.014   .     S
H1248  O1268   1.014   .     S
H1249  O1270   1.014   .     S
H1250  O1273   1.014   .     S
C1281  C1284   1.466   .     S
C1281  O1325   1.310   .     A
C1281  O1339   1.303   .     A
C1282  C1284   1.406   .     A
C1282  O1328   1.385   .     S
C1283  C1303   1.408   .     A
C1283  C1304   1.403   .     A
C1283  C1292   1.462   .     S
C1284  C1302   1.417   .     A
C1285  C1294   1.477   .     S
C1285  N1324   1.381   .     A
C1285  C1672   1.430   1_545 S
C1286  N1323   1.382   .     A
C1286  C1295   1.475   .     S
C1286  C1479   1.428   .     S
C1287  C1296   1.480   .     S
C1287  N1324   1.375   .     A
C1287  C1670   1.428   1_545 S
C1288  C1297   1.478   .     S
C1288  N1323   1.375   .     A
C1288  C1477   1.430   .     S
C1289  H1316   1.110   .     S
C1289  O1344   1.416   .     S
C1289  H1307   1.110   .     S
C1289  H1315   1.112   .     S
C1290  O1326   1.410   .     S
C1290  H1318   1.114   .     S
C1290  H1317   1.107   .     S
C1290  H1319   1.112   .     S
C1291  H1321   1.107   .     S
C1291  H1320   1.110   .     S
C1291  H1322   1.109   .     S
C1291  O1327   1.407   .     S
C1292  O1338   1.305   .     A
C1292  O1336   1.307   .     A
C1293  H1308   1.109   .     S
C1293  H1309   1.113   .     S
C1293  H1310   1.113   .     S
C1293  O1328   1.410   .     S
C1294  O1330   1.396   .     S
C1294  O1329   1.217   .     D
C1295  O1331   1.223   .     D
C1295  O1332   1.391   .     S
C1296  O1334   1.396   .     S
C1296  O1333   1.220   .     D
C1297  O1335   1.223   .     D
C1297  O1337   1.397   .     S
C1298  C1300   1.407   .     S
C1298  O1343   1.302   .     A
C1298  O1340   1.298   .     A
C1299  O1341   1.298   .     A
C1299  C1301   1.407   .     S
C1299  O1342   1.302   .     A
C1301  C148    1.189   1_556 S
C1302  O1344   1.379   .     S
C1303  O1326   1.377   .     S
C1303  C1154   1.391   1_655 S
C1304  O1327   1.391   .     S
C1304  C1174   1.402   1_655 S
Cu1305 O1340   1.925   .     S
Cu1305 O1342   1.929   .     S
Cu1305 N1323   2.045   .     S
Cu1305 Cu1306  2.721   .     S
Cu1305 O1338   1.979   .     S
Cu1305 O1325   1.967   .     S
Cu1306 O1343   1.929   .     S
Cu1306 O1339   1.979   .     S
Cu1306 N1324   2.045   .     S
Cu1306 O1341   1.925   .     S
Cu1306 O1336   1.967   .     S
H1311  O1330   1.014   .     S
H1312  O1332   1.014   .     S
H1313  O1334   1.014   .     S
H1314  O1337   1.014   .     S
C1345  C1348   1.466   .     S
C1345  O1389   1.310   .     A
C1345  O1403   1.303   .     A
C1346  C1348   1.406   .     A
C1346  O1392   1.385   .     S
C1346  C1495   1.391   1_455 S
C1347  C1367   1.408   .     A
C1347  C1368   1.403   .     A
C1347  C1356   1.462   .     S
C1348  C1366   1.417   .     A
C1349  C1358   1.477   .     S
C1349  N1388   1.381   .     A
C1350  N1387   1.382   .     A
C1350  C1359   1.475   .     S
C1350  C1543   1.428   .     S
C1351  C1360   1.480   .     S
C1351  N1388   1.375   .     A
C1352  C1361   1.478   .     S
C1352  N1387   1.375   .     A
C1352  C1541   1.430   .     S
C1353  H1380   1.110   .     S
C1353  O1408   1.416   .     S
C1353  H1371   1.110   .     S
C1353  H1379   1.112   .     S
C1354  O1390   1.410   .     S
C1354  H1382   1.114   .     S
C1354  H1381   1.107   .     S
C1354  H1383   1.112   .     S
C1355  H1385   1.107   .     S
C1355  H1384   1.110   .     S
C1355  H1386   1.109   .     S
C1355  O1391   1.407   .     S
C1356  O1402   1.305   .     A
C1356  O1400   1.307   .     A
C1357  H1372   1.109   .     S
C1357  H1373   1.113   .     S
C1357  H1374   1.113   .     S
C1357  O1392   1.410   .     S
C1358  O1394   1.396   .     S
C1358  O1393   1.217   .     D
C1359  O1395   1.223   .     D
C1359  O1396   1.391   .     S
C1360  O1398   1.396   .     S
C1360  O1397   1.220   .     D
C1361  O1399   1.223   .     D
C1361  O1401   1.397   .     S
C1362  C1364   1.407   .     S
C1362  O1407   1.302   .     A
C1362  O1404   1.298   .     A
C1363  O1405   1.298   .     A
C1363  C1365   1.407   .     S
C1363  O1406   1.302   .     A
C1365  C212    1.189   1_556 S
C1366  O1408   1.379   .     S
C1366  C1496   1.402   1_455 S
C1367  O1390   1.377   .     S
C1367  C1410   1.391   .     S
C1368  O1391   1.391   .     S
C1368  C1430   1.402   .     S
Cu1369 O1404   1.925   .     S
Cu1369 O1406   1.929   .     S
Cu1369 N1387   2.045   .     S
Cu1369 Cu1370  2.721   .     S
Cu1369 O1402   1.979   .     S
Cu1369 O1389   1.967   .     S
Cu1370 O1407   1.929   .     S
Cu1370 O1403   1.979   .     S
Cu1370 N1388   2.045   .     S
Cu1370 O1405   1.925   .     S
Cu1370 O1400   1.967   .     S
H1375  O1394   1.014   .     S
H1376  O1396   1.014   .     S
H1377  O1398   1.014   .     S
H1378  O1401   1.014   .     S
C1409  C1412   1.466   .     S
C1409  O1453   1.310   .     A
C1409  O1467   1.303   .     A
C1410  C1412   1.406   .     A
C1410  O1456   1.385   .     S
C1411  C1431   1.408   .     A
C1411  C1432   1.403   .     A
C1411  C1420   1.462   .     S
C1412  C1430   1.417   .     A
C1413  C1422   1.477   .     S
C1413  N1452   1.381   .     A
C1414  N1451   1.382   .     A
C1414  C1423   1.475   .     S
C1414  C1607   1.428   .     S
C1415  C1424   1.480   .     S
C1415  N1452   1.375   .     A
C1416  C1425   1.478   .     S
C1416  N1451   1.375   .     A
C1416  C1605   1.430   .     S
C1417  H1444   1.110   .     S
C1417  O1472   1.416   .     S
C1417  H1435   1.110   .     S
C1417  H1443   1.112   .     S
C1418  O1454   1.410   .     S
C1418  H1446   1.114   .     S
C1418  H1445   1.107   .     S
C1418  H1447   1.112   .     S
C1419  H1449   1.107   .     S
C1419  H1448   1.110   .     S
C1419  H1450   1.109   .     S
C1419  O1455   1.407   .     S
C1420  O1466   1.305   .     A
C1420  O1464   1.307   .     A
C1421  H1436   1.109   .     S
C1421  H1437   1.113   .     S
C1421  H1438   1.113   .     S
C1421  O1456   1.410   .     S
C1422  O1458   1.396   .     S
C1422  O1457   1.217   .     D
C1423  O1459   1.223   .     D
C1423  O1460   1.391   .     S
C1424  O1462   1.396   .     S
C1424  O1461   1.220   .     D
C1425  O1463   1.223   .     D
C1425  O1465   1.397   .     S
C1426  C1428   1.407   .     S
C1426  O1471   1.302   .     A
C1426  O1468   1.298   .     A
C1427  O1469   1.298   .     A
C1427  C1429   1.407   .     S
C1427  O1470   1.302   .     A
C1429  C276    1.189   1_556 S
C1430  O1472   1.379   .     S
C1431  O1454   1.377   .     S
C1431  C1474   1.391   .     S
C1432  O1455   1.391   .     S
C1432  C1494   1.402   .     S
Cu1433 O1468   1.925   .     S
Cu1433 O1470   1.929   .     S
Cu1433 N1451   2.045   .     S
Cu1433 Cu1434  2.721   .     S
Cu1433 O1466   1.979   .     S
Cu1433 O1453   1.967   .     S
Cu1434 O1471   1.929   .     S
Cu1434 O1467   1.979   .     S
Cu1434 N1452   2.045   .     S
Cu1434 O1469   1.925   .     S
Cu1434 O1464   1.967   .     S
H1439  O1458   1.014   .     S
H1440  O1460   1.014   .     S
H1441  O1462   1.014   .     S
H1442  O1465   1.014   .     S
C1473  C1476   1.466   .     S
C1473  O1517   1.310   .     A
C1473  O1531   1.303   .     A
C1474  C1476   1.406   .     A
C1474  O1520   1.385   .     S
C1475  C1495   1.408   .     A
C1475  C1496   1.403   .     A
C1475  C1484   1.462   .     S
C1476  C1494   1.417   .     A
C1477  C1486   1.477   .     S
C1477  N1516   1.381   .     A
C1478  N1515   1.382   .     A
C1478  C1487   1.475   .     S
C1478  C1671   1.428   .     S
C1479  C1488   1.480   .     S
C1479  N1516   1.375   .     A
C1480  C1489   1.478   .     S
C1480  N1515   1.375   .     A
C1480  C1669   1.430   .     S
C1481  H1508   1.110   .     S
C1481  O1536   1.416   .     S
C1481  H1499   1.110   .     S
C1481  H1507   1.112   .     S
C1482  O1518   1.410   .     S
C1482  H1510   1.114   .     S
C1482  H1509   1.107   .     S
C1482  H1511   1.112   .     S
C1483  H1513   1.107   .     S
C1483  H1512   1.110   .     S
C1483  H1514   1.109   .     S
C1483  O1519   1.407   .     S
C1484  O1530   1.305   .     A
C1484  O1528   1.307   .     A
C1485  H1500   1.109   .     S
C1485  H1501   1.113   .     S
C1485  H1502   1.113   .     S
C1485  O1520   1.410   .     S
C1486  O1522   1.396   .     S
C1486  O1521   1.217   .     D
C1487  O1523   1.223   .     D
C1487  O1524   1.391   .     S
C1488  O1526   1.396   .     S
C1488  O1525   1.220   .     D
C1489  O1527   1.223   .     D
C1489  O1529   1.397   .     S
C1490  C1492   1.407   .     S
C1490  O1535   1.302   .     A
C1490  O1532   1.298   .     A
C1491  O1533   1.298   .     A
C1491  C1493   1.407   .     S
C1491  O1534   1.302   .     A
C1493  C340    1.189   1_556 S
C1494  O1536   1.379   .     S
C1495  O1518   1.377   .     S
C1495  C1346   1.391   1_655 S
C1496  O1519   1.391   .     S
C1496  C1366   1.402   1_655 S
Cu1497 O1532   1.925   .     S
Cu1497 O1534   1.929   .     S
Cu1497 N1515   2.045   .     S
Cu1497 Cu1498  2.721   .     S
Cu1497 O1530   1.979   .     S
Cu1497 O1517   1.967   .     S
Cu1498 O1535   1.929   .     S
Cu1498 O1531   1.979   .     S
Cu1498 N1516   2.045   .     S
Cu1498 O1533   1.925   .     S
Cu1498 O1528   1.967   .     S
H1503  O1522   1.014   .     S
H1504  O1524   1.014   .     S
H1505  O1526   1.014   .     S
H1506  O1529   1.014   .     S
C1537  C1540   1.466   .     S
C1537  O1581   1.310   .     A
C1537  O1595   1.303   .     A
C1538  C1540   1.406   .     A
C1538  O1584   1.385   .     S
C1538  C1687   1.391   1_455 S
C1539  C1559   1.408   .     A
C1539  C1560   1.403   .     A
C1539  C1548   1.462   .     S
C1540  C1558   1.417   .     A
C1541  C1550   1.477   .     S
C1541  N1580   1.381   .     A
C1542  N1579   1.382   .     A
C1542  C1551   1.475   .     S
C1542  C1159   1.428   1_565 S
C1543  C1552   1.480   .     S
C1543  N1580   1.375   .     A
C1544  C1553   1.478   .     S
C1544  N1579   1.375   .     A
C1544  C1157   1.430   1_565 S
C1545  H1572   1.110   .     S
C1545  O1600   1.416   .     S
C1545  H1563   1.110   .     S
C1545  H1571   1.112   .     S
C1546  O1582   1.410   .     S
C1546  H1574   1.114   .     S
C1546  H1573   1.107   .     S
C1546  H1575   1.112   .     S
C1547  H1577   1.107   .     S
C1547  H1576   1.110   .     S
C1547  H1578   1.109   .     S
C1547  O1583   1.407   .     S
C1548  O1594   1.305   .     A
C1548  O1592   1.307   .     A
C1549  H1564   1.109   .     S
C1549  H1565   1.113   .     S
C1549  H1566   1.113   .     S
C1549  O1584   1.410   .     S
C1550  O1586   1.396   .     S
C1550  O1585   1.217   .     D
C1551  O1587   1.223   .     D
C1551  O1588   1.391   .     S
C1552  O1590   1.396   .     S
C1552  O1589   1.220   .     D
C1553  O1591   1.223   .     D
C1553  O1593   1.397   .     S
C1554  C1556   1.407   .     S
C1554  O1599   1.302   .     A
C1554  O1596   1.298   .     A
C1555  O1597   1.298   .     A
C1555  C1557   1.407   .     S
C1555  O1598   1.302   .     A
C1557  C404    1.189   1_556 S
C1558  O1600   1.379   .     S
C1558  C1688   1.402   1_455 S
C1559  O1582   1.377   .     S
C1559  C1602   1.391   .     S
C1560  O1583   1.391   .     S
C1560  C1622   1.402   .     S
Cu1561 O1596   1.925   .     S
Cu1561 O1598   1.929   .     S
Cu1561 N1579   2.045   .     S
Cu1561 Cu1562  2.721   .     S
Cu1561 O1594   1.979   .     S
Cu1561 O1581   1.967   .     S
Cu1562 O1599   1.929   .     S
Cu1562 O1595   1.979   .     S
Cu1562 N1580   2.045   .     S
Cu1562 O1597   1.925   .     S
Cu1562 O1592   1.967   .     S
H1567  O1586   1.014   .     S
H1568  O1588   1.014   .     S
H1569  O1590   1.014   .     S
H1570  O1593   1.014   .     S
C1601  C1604   1.466   .     S
C1601  O1645   1.310   .     A
C1601  O1659   1.303   .     A
C1602  C1604   1.406   .     A
C1602  O1648   1.385   .     S
C1603  C1623   1.408   .     A
C1603  C1624   1.403   .     A
C1603  C1612   1.462   .     S
C1604  C1622   1.417   .     A
C1605  C1614   1.477   .     S
C1605  N1644   1.381   .     A
C1606  N1643   1.382   .     A
C1606  C1615   1.475   .     S
C1606  C1223   1.428   1_565 S
C1607  C1616   1.480   .     S
C1607  N1644   1.375   .     A
C1608  C1617   1.478   .     S
C1608  N1643   1.375   .     A
C1608  C1221   1.430   1_565 S
C1609  H1636   1.110   .     S
C1609  O1664   1.416   .     S
C1609  H1627   1.110   .     S
C1609  H1635   1.112   .     S
C1610  O1646   1.410   .     S
C1610  H1638   1.114   .     S
C1610  H1637   1.107   .     S
C1610  H1639   1.112   .     S
C1611  H1641   1.107   .     S
C1611  H1640   1.110   .     S
C1611  H1642   1.109   .     S
C1611  O1647   1.407   .     S
C1612  O1658   1.305   .     A
C1612  O1656   1.307   .     A
C1613  H1628   1.109   .     S
C1613  H1629   1.113   .     S
C1613  H1630   1.113   .     S
C1613  O1648   1.410   .     S
C1614  O1650   1.396   .     S
C1614  O1649   1.217   .     D
C1615  O1651   1.223   .     D
C1615  O1652   1.391   .     S
C1616  O1654   1.396   .     S
C1616  O1653   1.220   .     D
C1617  O1655   1.223   .     D
C1617  O1657   1.397   .     S
C1618  C1620   1.407   .     S
C1618  O1663   1.302   .     A
C1618  O1660   1.298   .     A
C1619  O1661   1.298   .     A
C1619  C1621   1.407   .     S
C1619  O1662   1.302   .     A
C1621  C468    1.189   1_556 S
C1622  O1664   1.379   .     S
C1623  O1646   1.377   .     S
C1623  C1666   1.391   .     S
C1624  O1647   1.391   .     S
C1624  C1686   1.402   .     S
Cu1625 O1660   1.925   .     S
Cu1625 O1662   1.929   .     S
Cu1625 N1643   2.045   .     S
Cu1625 Cu1626  2.721   .     S
Cu1625 O1658   1.979   .     S
Cu1625 O1645   1.967   .     S
Cu1626 O1663   1.929   .     S
Cu1626 O1659   1.979   .     S
Cu1626 N1644   2.045   .     S
Cu1626 O1661   1.925   .     S
Cu1626 O1656   1.967   .     S
H1631  O1650   1.014   .     S
H1632  O1652   1.014   .     S
H1633  O1654   1.014   .     S
H1634  O1657   1.014   .     S
C1665  C1668   1.466   .     S
C1665  O1709   1.310   .     A
C1665  O1723   1.303   .     A
C1666  C1668   1.406   .     A
C1666  O1712   1.385   .     S
C1667  C1687   1.408   .     A
C1667  C1688   1.403   .     A
C1667  C1676   1.462   .     S
C1668  C1686   1.417   .     A
C1669  C1678   1.477   .     S
C1669  N1708   1.381   .     A
C1670  N1707   1.382   .     A
C1670  C1679   1.475   .     S
C1670  C1287   1.428   1_565 S
C1671  C1680   1.480   .     S
C1671  N1708   1.375   .     A
C1672  C1681   1.478   .     S
C1672  N1707   1.375   .     A
C1672  C1285   1.430   1_565 S
C1673  H1700   1.110   .     S
C1673  O1728   1.416   .     S
C1673  H1691   1.110   .     S
C1673  H1699   1.112   .     S
C1674  O1710   1.410   .     S
C1674  H1702   1.114   .     S
C1674  H1701   1.107   .     S
C1674  H1703   1.112   .     S
C1675  H1705   1.107   .     S
C1675  H1704   1.110   .     S
C1675  H1706   1.109   .     S
C1675  O1711   1.407   .     S
C1676  O1722   1.305   .     A
C1676  O1720   1.307   .     A
C1677  H1692   1.109   .     S
C1677  H1693   1.113   .     S
C1677  H1694   1.113   .     S
C1677  O1712   1.410   .     S
C1678  O1714   1.396   .     S
C1678  O1713   1.217   .     D
C1679  O1715   1.223   .     D
C1679  O1716   1.391   .     S
C1680  O1718   1.396   .     S
C1680  O1717   1.220   .     D
C1681  O1719   1.223   .     D
C1681  O1721   1.397   .     S
C1682  C1684   1.407   .     S
C1682  O1727   1.302   .     A
C1682  O1724   1.298   .     A
C1683  O1725   1.298   .     A
C1683  C1685   1.407   .     S
C1683  O1726   1.302   .     A
C1685  C532    1.189   1_556 S
C1686  O1728   1.379   .     S
C1687  O1710   1.377   .     S
C1687  C1538   1.391   1_655 S
C1688  O1711   1.391   .     S
C1688  C1558   1.402   1_655 S
Cu1689 O1724   1.925   .     S
Cu1689 O1726   1.929   .     S
Cu1689 N1707   2.045   .     S
Cu1689 Cu1690  2.721   .     S
Cu1689 O1722   1.979   .     S
Cu1689 O1709   1.967   .     S
Cu1690 O1727   1.929   .     S
Cu1690 O1723   1.979   .     S
Cu1690 N1708   2.045   .     S
Cu1690 O1725   1.925   .     S
Cu1690 O1720   1.967   .     S
H1695  O1714   1.014   .     S
H1696  O1716   1.014   .     S
H1697  O1718   1.014   .     S
H1698  O1721   1.014   .     S
