data_str_m2_o2_o5_pcu_sym.60
_audit_creation_date              2020-01-03
_audit_creation_method            'Materials Studio'
_symmetry_space_group_name_H-M    'P1'
_symmetry_Int_Tables_number       1
_symmetry_cell_setting            triclinic
loop_
_symmetry_equiv_pos_as_xyz
  x,y,z
_cell_length_a                    30.2506
_cell_length_b                    27.7208
_cell_length_c                    27.2195
_cell_angle_alpha                 90.0769
_cell_angle_beta                  89.8775
_cell_angle_gamma                 90.1525
loop_
_atom_site_label
_atom_site_type_symbol
_atom_site_fract_x
_atom_site_fract_y
_atom_site_fract_z
_atom_site_U_iso_or_equiv
_atom_site_adp_type
_atom_site_occupancy
C1     C     0.16519   0.24988   0.16692   0.00000  Uiso   1.00
C2     C     0.29021   0.44651   0.16750   0.00000  Uiso   1.00
C3     C     0.25019   0.24998   0.07351   0.00000  Uiso   1.00
C4     C     0.25002   0.25001   0.25983   0.00000  Uiso   1.00
C5     C     0.25056   0.02759   0.16675   0.00000  Uiso   1.00
C6     C     0.25037   0.47299   0.16691   0.00000  Uiso   1.00
C7     C     0.25032   0.24996   0.02184   0.00000  Uiso   1.00
C8     C     0.25023   0.25000   0.31149   0.00000  Uiso   1.00
C9     C     0.04836   0.26260   0.12357   0.00000  Uiso   1.00
C10    C     0.45307   0.21385   0.19043   0.00000  Uiso   1.00
C11    C     0.45310   0.28714   0.14214   0.00000  Uiso   1.00
C12    C     0.33509   0.25007   0.16659   0.00000  Uiso   1.00
C13    C     0.04786   0.23844   0.20918   0.00000  Uiso   1.00
C14    C     0.09452   0.26197   0.12325   0.00000  Uiso   1.00
C15    C     0.40697   0.21383   0.19169   0.00000  Uiso   1.00
C16    C     0.40699   0.28686   0.14112   0.00000  Uiso   1.00
C17    C     0.09392   0.23690   0.20925   0.00000  Uiso   1.00
C18    C     0.11724   0.24936   0.16639   0.00000  Uiso   1.00
C19    C     0.38356   0.25026   0.16645   0.00000  Uiso   1.00
C20    C     0.02487   0.25075   0.16637   0.00000  Uiso   1.00
C21    C     0.47629   0.25060   0.16629   0.00000  Uiso   1.00
C22    C     0.13260   0.23203   0.05175   0.00000  Uiso   1.00
C23    C     0.27081   0.10511   0.20348   0.00000  Uiso   1.00
C24    C     0.37096   0.19258   0.26777   0.00000  Uiso   1.00
C25    C     0.37056   0.30844   0.06556   0.00000  Uiso   1.00
C26    C     0.12314   0.17345   0.25984   0.00000  Uiso   1.00
C27    C     0.32347   0.05099   0.26886   0.00000  Uiso   1.00
C28    C     0.34806   0.01442   0.30012   0.00000  Uiso   1.00
C29    C     0.15768   0.47985   0.21541   0.00000  Uiso   1.00
C30    C     0.11609   0.01053   0.21551   0.00000  Uiso   1.00
C31    C     0.23576   0.01926   0.05330   0.00000  Uiso   1.00
C32    C     0.20936   0.00120   0.00947   0.00000  Uiso   1.00
C33    C     0.34733   0.47702   0.12295   0.00000  Uiso   1.00
C34    C     0.21112   0.39572   0.16558   0.00000  Uiso   1.00
C35    C     0.39378   0.49776   0.12650   0.00000  Uiso   1.00
C36    C     0.22917   0.10455   0.13020   0.00000  Uiso   1.00
C37    C     0.28902   0.39562   0.16822   0.00000  Uiso   1.00
C38    C     0.27167   0.05369   0.20480   0.00000  Uiso   1.00
C39    C     0.21035   0.44662   0.16674   0.00000  Uiso   1.00
C40    C     0.22953   0.05378   0.12881   0.00000  Uiso   1.00
Cu41   Cu    0.25000   0.29821   0.16667   0.00000  Uiso   1.00
Cu42   Cu    0.25000   0.20178   0.16667   0.00000  Uiso   1.00
H43    H     0.28600   0.12619   0.23220   0.00000  Uiso   1.00
H44    H     0.15291   0.24419   0.02010   0.00000  Uiso   1.00
H45    H     0.15328   0.20800   0.07470   0.00000  Uiso   1.00
H46    H     0.10365   0.21137   0.03791   0.00000  Uiso   1.00
H47    H     0.40060   0.14474   0.21962   0.00000  Uiso   1.00
H48    H     0.40046   0.20053   0.29072   0.00000  Uiso   1.00
H49    H     0.35162   0.16327   0.28548   0.00000  Uiso   1.00
H50    H     0.34977   0.22517   0.26588   0.00000  Uiso   1.00
H51    H     0.40066   0.35609   0.11360   0.00000  Uiso   1.00
H52    H     0.34959   0.27555   0.06750   0.00000  Uiso   1.00
H53    H     0.35083   0.33768   0.04851   0.00000  Uiso   1.00
H54    H     0.17998   0.37672   0.16448   0.00000  Uiso   1.00
H55    H     0.39986   0.30106   0.04204   0.00000  Uiso   1.00
H56    H     0.10311   0.24063   0.28377   0.00000  Uiso   1.00
H57    H     0.09080   0.15521   0.26572   0.00000  Uiso   1.00
H58    H     0.14431   0.16726   0.29249   0.00000  Uiso   1.00
H59    H     0.13978   0.15728   0.22739   0.00000  Uiso   1.00
H60    H     0.30996   0.07904   0.29393   0.00000  Uiso   1.00
H61    H     0.34756   0.06726   0.24257   0.00000  Uiso   1.00
H62    H     0.36226   0.48576   0.27636   0.00000  Uiso   1.00
H63    H     0.32513   0.49770   0.32714   0.00000  Uiso   1.00
H64    H     0.37526   0.03263   0.32032   0.00000  Uiso   1.00
H65    H     0.21204   0.12419   0.10172   0.00000  Uiso   1.00
H66    H     0.18385   0.00032   0.23532   0.00000  Uiso   1.00
H67    H     0.15059   0.44562   0.23535   0.00000  Uiso   1.00
H68    H     0.12253   0.04520   0.19632   0.00000  Uiso   1.00
H69    H     0.10591   0.01829   0.25393   0.00000  Uiso   1.00
H70    H     0.08885   0.49108   0.19659   0.00000  Uiso   1.00
H71    H     0.25864   0.49001   0.06455   0.00000  Uiso   1.00
H72    H     0.25521   0.05147   0.04142   0.00000  Uiso   1.00
H73    H     0.18718   0.03013   0.32927   0.00000  Uiso   1.00
H74    H     0.23222   0.49049   0.31279   0.00000  Uiso   1.00
H75    H     0.18918   0.46937   0.02016   0.00000  Uiso   1.00
H76    H     0.31998   0.37655   0.16999   0.00000  Uiso   1.00
H77    H     0.32660   0.00337   0.10269   0.00000  Uiso   1.00
H78    H     0.34906   0.44249   0.10196   0.00000  Uiso   1.00
H79    H     0.40721   0.00415   0.08906   0.00000  Uiso   1.00
H80    H     0.39311   0.03253   0.14683   0.00000  Uiso   1.00
H81    H     0.41568   0.47209   0.14607   0.00000  Uiso   1.00
H82    H     0.03091   0.27122   0.09001   0.00000  Uiso   1.00
H83    H     0.47076   0.18519   0.20887   0.00000  Uiso   1.00
H84    H     0.47084   0.31589   0.12364   0.00000  Uiso   1.00
H85    H     0.03009   0.23011   0.24273   0.00000  Uiso   1.00
H86    H     0.10194   0.29832   0.05749   0.00000  Uiso   1.00
N87    N     0.25000   0.12934   0.16667   0.00000  Uiso   1.00
N88    N     0.25000   0.37065   0.16667   0.00000  Uiso   1.00
N89    N     0.11796   0.27361   0.07943   0.00000  Uiso   1.00
N90    N     0.38448   0.17749   0.21910   0.00000  Uiso   1.00
N91    N     0.38449   0.32327   0.11412   0.00000  Uiso   1.00
N92    N     0.11678   0.22473   0.25307   0.00000  Uiso   1.00
O93    O     0.18573   0.29071   0.16667   0.00000  Uiso   1.00
O94    O     0.17016   0.47016   0.16639   0.00000  Uiso   1.00
O95    O     0.20640   0.03044   0.09200   0.00000  Uiso   1.00
O96    O     0.33054   0.46981   0.17077   0.00000  Uiso   1.00
O97    O     0.31427   0.20928   0.16666   0.00000  Uiso   1.00
O98    O     0.31427   0.29071   0.16666   0.00000  Uiso   1.00
O99    O     0.18573   0.20928   0.16667   0.00000  Uiso   1.00
O100   O     0.25000   0.29071   0.09613   0.00000  Uiso   1.00
O101   O     0.25000   0.20929   0.23720   0.00000  Uiso   1.00
O102   O     0.25000   0.29071   0.23720   0.00000  Uiso   1.00
O103   O     0.25000   0.20929   0.09613   0.00000  Uiso   1.00
O104   O     0.28863   0.02731   0.24410   0.00000  Uiso   1.00
C105   C     0.66519   0.24988   0.16692   0.00000  Uiso   1.00
C106   C     0.79021   0.44651   0.16750   0.00000  Uiso   1.00
C107   C     0.75019   0.24998   0.07351   0.00000  Uiso   1.00
C108   C     0.75002   0.25001   0.25983   0.00000  Uiso   1.00
C109   C     0.75056   0.02759   0.16675   0.00000  Uiso   1.00
C110   C     0.75037   0.47299   0.16691   0.00000  Uiso   1.00
C111   C     0.75032   0.24996   0.02184   0.00000  Uiso   1.00
C112   C     0.75023   0.25000   0.31149   0.00000  Uiso   1.00
C113   C     0.54836   0.26260   0.12357   0.00000  Uiso   1.00
C114   C     0.95307   0.21385   0.19043   0.00000  Uiso   1.00
C115   C     0.95310   0.28714   0.14214   0.00000  Uiso   1.00
C116   C     0.83509   0.25007   0.16659   0.00000  Uiso   1.00
C117   C     0.54786   0.23844   0.20918   0.00000  Uiso   1.00
C118   C     0.59452   0.26197   0.12325   0.00000  Uiso   1.00
C119   C     0.90697   0.21383   0.19169   0.00000  Uiso   1.00
C120   C     0.90699   0.28686   0.14112   0.00000  Uiso   1.00
C121   C     0.59392   0.23690   0.20925   0.00000  Uiso   1.00
C122   C     0.61724   0.24936   0.16639   0.00000  Uiso   1.00
C123   C     0.88356   0.25026   0.16645   0.00000  Uiso   1.00
C124   C     0.52487   0.25075   0.16637   0.00000  Uiso   1.00
C125   C     0.97629   0.25060   0.16629   0.00000  Uiso   1.00
C126   C     0.63260   0.23203   0.05175   0.00000  Uiso   1.00
C127   C     0.77081   0.10511   0.20348   0.00000  Uiso   1.00
C128   C     0.87096   0.19258   0.26777   0.00000  Uiso   1.00
C129   C     0.87056   0.30844   0.06556   0.00000  Uiso   1.00
C130   C     0.62314   0.17345   0.25984   0.00000  Uiso   1.00
C131   C     0.82347   0.05099   0.26886   0.00000  Uiso   1.00
C132   C     0.84806   0.01442   0.30012   0.00000  Uiso   1.00
C133   C     0.65768   0.47985   0.21541   0.00000  Uiso   1.00
C134   C     0.61609   0.01053   0.21551   0.00000  Uiso   1.00
C135   C     0.73576   0.01926   0.05330   0.00000  Uiso   1.00
C136   C     0.70936   0.00120   0.00947   0.00000  Uiso   1.00
C137   C     0.84733   0.47702   0.12295   0.00000  Uiso   1.00
C138   C     0.71112   0.39572   0.16558   0.00000  Uiso   1.00
C139   C     0.89378   0.49776   0.12650   0.00000  Uiso   1.00
C140   C     0.72917   0.10455   0.13020   0.00000  Uiso   1.00
C141   C     0.78902   0.39562   0.16822   0.00000  Uiso   1.00
C142   C     0.77167   0.05369   0.20480   0.00000  Uiso   1.00
C143   C     0.71035   0.44662   0.16674   0.00000  Uiso   1.00
C144   C     0.72953   0.05378   0.12881   0.00000  Uiso   1.00
Cu145  Cu    0.75000   0.29821   0.16667   0.00000  Uiso   1.00
Cu146  Cu    0.75000   0.20178   0.16667   0.00000  Uiso   1.00
H147   H     0.78600   0.12619   0.23220   0.00000  Uiso   1.00
H148   H     0.65291   0.24419   0.02010   0.00000  Uiso   1.00
H149   H     0.65328   0.20800   0.07470   0.00000  Uiso   1.00
H150   H     0.60365   0.21137   0.03791   0.00000  Uiso   1.00
H151   H     0.90060   0.14474   0.21962   0.00000  Uiso   1.00
H152   H     0.90046   0.20053   0.29072   0.00000  Uiso   1.00
H153   H     0.85162   0.16327   0.28548   0.00000  Uiso   1.00
H154   H     0.84977   0.22517   0.26588   0.00000  Uiso   1.00
H155   H     0.90066   0.35609   0.11360   0.00000  Uiso   1.00
H156   H     0.84959   0.27555   0.06750   0.00000  Uiso   1.00
H157   H     0.85083   0.33768   0.04851   0.00000  Uiso   1.00
H158   H     0.67998   0.37672   0.16448   0.00000  Uiso   1.00
H159   H     0.89986   0.30106   0.04204   0.00000  Uiso   1.00
H160   H     0.60311   0.24063   0.28377   0.00000  Uiso   1.00
H161   H     0.59080   0.15521   0.26572   0.00000  Uiso   1.00
H162   H     0.64431   0.16726   0.29249   0.00000  Uiso   1.00
H163   H     0.63978   0.15728   0.22739   0.00000  Uiso   1.00
H164   H     0.80996   0.07904   0.29393   0.00000  Uiso   1.00
H165   H     0.84756   0.06726   0.24257   0.00000  Uiso   1.00
H166   H     0.86226   0.48576   0.27636   0.00000  Uiso   1.00
H167   H     0.82513   0.49770   0.32714   0.00000  Uiso   1.00
H168   H     0.87526   0.03263   0.32032   0.00000  Uiso   1.00
H169   H     0.71204   0.12419   0.10172   0.00000  Uiso   1.00
H170   H     0.68385   0.00032   0.23532   0.00000  Uiso   1.00
H171   H     0.65059   0.44562   0.23535   0.00000  Uiso   1.00
H172   H     0.62253   0.04520   0.19632   0.00000  Uiso   1.00
H173   H     0.60591   0.01829   0.25393   0.00000  Uiso   1.00
H174   H     0.58885   0.49108   0.19659   0.00000  Uiso   1.00
H175   H     0.75864   0.49001   0.06455   0.00000  Uiso   1.00
H176   H     0.75521   0.05147   0.04142   0.00000  Uiso   1.00
H177   H     0.68718   0.03013   0.32927   0.00000  Uiso   1.00
H178   H     0.73222   0.49049   0.31279   0.00000  Uiso   1.00
H179   H     0.68918   0.46937   0.02016   0.00000  Uiso   1.00
H180   H     0.81998   0.37655   0.16999   0.00000  Uiso   1.00
H181   H     0.82660   0.00337   0.10269   0.00000  Uiso   1.00
H182   H     0.84906   0.44249   0.10196   0.00000  Uiso   1.00
H183   H     0.90721   0.00415   0.08906   0.00000  Uiso   1.00
H184   H     0.89311   0.03253   0.14683   0.00000  Uiso   1.00
H185   H     0.91568   0.47209   0.14607   0.00000  Uiso   1.00
H186   H     0.53091   0.27122   0.09001   0.00000  Uiso   1.00
H187   H     0.97076   0.18519   0.20887   0.00000  Uiso   1.00
H188   H     0.97084   0.31589   0.12364   0.00000  Uiso   1.00
H189   H     0.53009   0.23011   0.24273   0.00000  Uiso   1.00
H190   H     0.60194   0.29832   0.05749   0.00000  Uiso   1.00
N191   N     0.75000   0.12934   0.16667   0.00000  Uiso   1.00
N192   N     0.75000   0.37065   0.16667   0.00000  Uiso   1.00
N193   N     0.61796   0.27361   0.07943   0.00000  Uiso   1.00
N194   N     0.88448   0.17749   0.21910   0.00000  Uiso   1.00
N195   N     0.88449   0.32327   0.11412   0.00000  Uiso   1.00
N196   N     0.61678   0.22473   0.25307   0.00000  Uiso   1.00
O197   O     0.68573   0.29071   0.16667   0.00000  Uiso   1.00
O198   O     0.67016   0.47016   0.16639   0.00000  Uiso   1.00
O199   O     0.70640   0.03044   0.09200   0.00000  Uiso   1.00
O200   O     0.83054   0.46981   0.17077   0.00000  Uiso   1.00
O201   O     0.81427   0.20928   0.16666   0.00000  Uiso   1.00
O202   O     0.81427   0.29071   0.16666   0.00000  Uiso   1.00
O203   O     0.68573   0.20928   0.16667   0.00000  Uiso   1.00
O204   O     0.75000   0.29071   0.09613   0.00000  Uiso   1.00
O205   O     0.75000   0.20929   0.23720   0.00000  Uiso   1.00
O206   O     0.75000   0.29071   0.23720   0.00000  Uiso   1.00
O207   O     0.75000   0.20929   0.09613   0.00000  Uiso   1.00
O208   O     0.78863   0.02731   0.24410   0.00000  Uiso   1.00
C209   C     0.16519   0.74988   0.16692   0.00000  Uiso   1.00
C210   C     0.29021   0.94651   0.16750   0.00000  Uiso   1.00
C211   C     0.25019   0.74998   0.07351   0.00000  Uiso   1.00
C212   C     0.25002   0.75001   0.25983   0.00000  Uiso   1.00
C213   C     0.25056   0.52759   0.16675   0.00000  Uiso   1.00
C214   C     0.25037   0.97299   0.16691   0.00000  Uiso   1.00
C215   C     0.25032   0.74996   0.02184   0.00000  Uiso   1.00
C216   C     0.25023   0.75000   0.31149   0.00000  Uiso   1.00
C217   C     0.04836   0.76260   0.12357   0.00000  Uiso   1.00
C218   C     0.45307   0.71385   0.19043   0.00000  Uiso   1.00
C219   C     0.45310   0.78714   0.14214   0.00000  Uiso   1.00
C220   C     0.33509   0.75007   0.16659   0.00000  Uiso   1.00
C221   C     0.04786   0.73844   0.20918   0.00000  Uiso   1.00
C222   C     0.09452   0.76197   0.12325   0.00000  Uiso   1.00
C223   C     0.40697   0.71383   0.19169   0.00000  Uiso   1.00
C224   C     0.40699   0.78686   0.14112   0.00000  Uiso   1.00
C225   C     0.09392   0.73690   0.20925   0.00000  Uiso   1.00
C226   C     0.11724   0.74936   0.16639   0.00000  Uiso   1.00
C227   C     0.38356   0.75026   0.16645   0.00000  Uiso   1.00
C228   C     0.02487   0.75075   0.16637   0.00000  Uiso   1.00
C229   C     0.47629   0.75060   0.16629   0.00000  Uiso   1.00
C230   C     0.13260   0.73203   0.05175   0.00000  Uiso   1.00
C231   C     0.27081   0.60511   0.20348   0.00000  Uiso   1.00
C232   C     0.37096   0.69258   0.26777   0.00000  Uiso   1.00
C233   C     0.37056   0.80844   0.06556   0.00000  Uiso   1.00
C234   C     0.12314   0.67345   0.25984   0.00000  Uiso   1.00
C235   C     0.32347   0.55099   0.26886   0.00000  Uiso   1.00
C236   C     0.34806   0.51442   0.30012   0.00000  Uiso   1.00
C237   C     0.15768   0.97985   0.21541   0.00000  Uiso   1.00
C238   C     0.11609   0.51053   0.21551   0.00000  Uiso   1.00
C239   C     0.23576   0.51926   0.05330   0.00000  Uiso   1.00
C240   C     0.20936   0.50120   0.00947   0.00000  Uiso   1.00
C241   C     0.34733   0.97702   0.12295   0.00000  Uiso   1.00
C242   C     0.21112   0.89572   0.16558   0.00000  Uiso   1.00
C243   C     0.39378   0.99776   0.12650   0.00000  Uiso   1.00
C244   C     0.22917   0.60455   0.13020   0.00000  Uiso   1.00
C245   C     0.28902   0.89562   0.16822   0.00000  Uiso   1.00
C246   C     0.27167   0.55369   0.20480   0.00000  Uiso   1.00
C247   C     0.21035   0.94662   0.16674   0.00000  Uiso   1.00
C248   C     0.22953   0.55378   0.12881   0.00000  Uiso   1.00
Cu249  Cu    0.25000   0.79821   0.16667   0.00000  Uiso   1.00
Cu250  Cu    0.25000   0.70178   0.16667   0.00000  Uiso   1.00
H251   H     0.28600   0.62619   0.23220   0.00000  Uiso   1.00
H252   H     0.15291   0.74419   0.02010   0.00000  Uiso   1.00
H253   H     0.15328   0.70800   0.07470   0.00000  Uiso   1.00
H254   H     0.10365   0.71137   0.03791   0.00000  Uiso   1.00
H255   H     0.40060   0.64474   0.21962   0.00000  Uiso   1.00
H256   H     0.40046   0.70053   0.29072   0.00000  Uiso   1.00
H257   H     0.35162   0.66327   0.28548   0.00000  Uiso   1.00
H258   H     0.34977   0.72517   0.26588   0.00000  Uiso   1.00
H259   H     0.40066   0.85609   0.11360   0.00000  Uiso   1.00
H260   H     0.34959   0.77555   0.06750   0.00000  Uiso   1.00
H261   H     0.35083   0.83768   0.04851   0.00000  Uiso   1.00
H262   H     0.17998   0.87672   0.16448   0.00000  Uiso   1.00
H263   H     0.39986   0.80106   0.04204   0.00000  Uiso   1.00
H264   H     0.10311   0.74063   0.28377   0.00000  Uiso   1.00
H265   H     0.09080   0.65521   0.26572   0.00000  Uiso   1.00
H266   H     0.14431   0.66726   0.29249   0.00000  Uiso   1.00
H267   H     0.13978   0.65728   0.22739   0.00000  Uiso   1.00
H268   H     0.30996   0.57904   0.29393   0.00000  Uiso   1.00
H269   H     0.34756   0.56726   0.24257   0.00000  Uiso   1.00
H270   H     0.36226   0.98576   0.27636   0.00000  Uiso   1.00
H271   H     0.32513   0.99770   0.32714   0.00000  Uiso   1.00
H272   H     0.37526   0.53263   0.32032   0.00000  Uiso   1.00
H273   H     0.21204   0.62419   0.10172   0.00000  Uiso   1.00
H274   H     0.18385   0.50032   0.23532   0.00000  Uiso   1.00
H275   H     0.15059   0.94562   0.23535   0.00000  Uiso   1.00
H276   H     0.12253   0.54520   0.19632   0.00000  Uiso   1.00
H277   H     0.10591   0.51829   0.25393   0.00000  Uiso   1.00
H278   H     0.08885   0.99108   0.19659   0.00000  Uiso   1.00
H279   H     0.25864   0.99001   0.06455   0.00000  Uiso   1.00
H280   H     0.25521   0.55147   0.04142   0.00000  Uiso   1.00
H281   H     0.18718   0.53013   0.32927   0.00000  Uiso   1.00
H282   H     0.23222   0.99049   0.31279   0.00000  Uiso   1.00
H283   H     0.18918   0.96937   0.02016   0.00000  Uiso   1.00
H284   H     0.31998   0.87655   0.16999   0.00000  Uiso   1.00
H285   H     0.32660   0.50337   0.10269   0.00000  Uiso   1.00
H286   H     0.34906   0.94249   0.10196   0.00000  Uiso   1.00
H287   H     0.40721   0.50415   0.08906   0.00000  Uiso   1.00
H288   H     0.39311   0.53253   0.14683   0.00000  Uiso   1.00
H289   H     0.41568   0.97209   0.14607   0.00000  Uiso   1.00
H290   H     0.03091   0.77122   0.09001   0.00000  Uiso   1.00
H291   H     0.47076   0.68519   0.20887   0.00000  Uiso   1.00
H292   H     0.47084   0.81589   0.12364   0.00000  Uiso   1.00
H293   H     0.03009   0.73011   0.24273   0.00000  Uiso   1.00
H294   H     0.10194   0.79832   0.05749   0.00000  Uiso   1.00
N295   N     0.25000   0.62934   0.16667   0.00000  Uiso   1.00
N296   N     0.25000   0.87065   0.16667   0.00000  Uiso   1.00
N297   N     0.11796   0.77361   0.07943   0.00000  Uiso   1.00
N298   N     0.38448   0.67749   0.21910   0.00000  Uiso   1.00
N299   N     0.38449   0.82327   0.11412   0.00000  Uiso   1.00
N300   N     0.11678   0.72473   0.25307   0.00000  Uiso   1.00
O301   O     0.18573   0.79071   0.16667   0.00000  Uiso   1.00
O302   O     0.17016   0.97016   0.16639   0.00000  Uiso   1.00
O303   O     0.20640   0.53044   0.09200   0.00000  Uiso   1.00
O304   O     0.33054   0.96981   0.17077   0.00000  Uiso   1.00
O305   O     0.31427   0.70928   0.16666   0.00000  Uiso   1.00
O306   O     0.31427   0.79071   0.16666   0.00000  Uiso   1.00
O307   O     0.18573   0.70928   0.16667   0.00000  Uiso   1.00
O308   O     0.25000   0.79071   0.09613   0.00000  Uiso   1.00
O309   O     0.25000   0.70929   0.23720   0.00000  Uiso   1.00
O310   O     0.25000   0.79071   0.23720   0.00000  Uiso   1.00
O311   O     0.25000   0.70929   0.09613   0.00000  Uiso   1.00
O312   O     0.28863   0.52731   0.24410   0.00000  Uiso   1.00
C313   C     0.66519   0.74988   0.16692   0.00000  Uiso   1.00
C314   C     0.79021   0.94651   0.16750   0.00000  Uiso   1.00
C315   C     0.75019   0.74998   0.07351   0.00000  Uiso   1.00
C316   C     0.75002   0.75001   0.25983   0.00000  Uiso   1.00
C317   C     0.75056   0.52759   0.16675   0.00000  Uiso   1.00
C318   C     0.75037   0.97299   0.16691   0.00000  Uiso   1.00
C319   C     0.75032   0.74996   0.02184   0.00000  Uiso   1.00
C320   C     0.75023   0.75000   0.31149   0.00000  Uiso   1.00
C321   C     0.54836   0.76260   0.12357   0.00000  Uiso   1.00
C322   C     0.95307   0.71385   0.19043   0.00000  Uiso   1.00
C323   C     0.95310   0.78714   0.14214   0.00000  Uiso   1.00
C324   C     0.83509   0.75007   0.16659   0.00000  Uiso   1.00
C325   C     0.54786   0.73844   0.20918   0.00000  Uiso   1.00
C326   C     0.59452   0.76197   0.12325   0.00000  Uiso   1.00
C327   C     0.90697   0.71383   0.19169   0.00000  Uiso   1.00
C328   C     0.90699   0.78686   0.14112   0.00000  Uiso   1.00
C329   C     0.59392   0.73690   0.20925   0.00000  Uiso   1.00
C330   C     0.61724   0.74936   0.16639   0.00000  Uiso   1.00
C331   C     0.88356   0.75026   0.16645   0.00000  Uiso   1.00
C332   C     0.52487   0.75075   0.16637   0.00000  Uiso   1.00
C333   C     0.97629   0.75060   0.16629   0.00000  Uiso   1.00
C334   C     0.63260   0.73203   0.05175   0.00000  Uiso   1.00
C335   C     0.77081   0.60511   0.20348   0.00000  Uiso   1.00
C336   C     0.87096   0.69258   0.26777   0.00000  Uiso   1.00
C337   C     0.87056   0.80844   0.06556   0.00000  Uiso   1.00
C338   C     0.62314   0.67345   0.25984   0.00000  Uiso   1.00
C339   C     0.82347   0.55099   0.26886   0.00000  Uiso   1.00
C340   C     0.84806   0.51442   0.30012   0.00000  Uiso   1.00
C341   C     0.65768   0.97985   0.21541   0.00000  Uiso   1.00
C342   C     0.61609   0.51053   0.21551   0.00000  Uiso   1.00
C343   C     0.73576   0.51926   0.05330   0.00000  Uiso   1.00
C344   C     0.70936   0.50120   0.00947   0.00000  Uiso   1.00
C345   C     0.84733   0.97702   0.12295   0.00000  Uiso   1.00
C346   C     0.71112   0.89572   0.16558   0.00000  Uiso   1.00
C347   C     0.89378   0.99776   0.12650   0.00000  Uiso   1.00
C348   C     0.72917   0.60455   0.13020   0.00000  Uiso   1.00
C349   C     0.78902   0.89562   0.16822   0.00000  Uiso   1.00
C350   C     0.77167   0.55369   0.20480   0.00000  Uiso   1.00
C351   C     0.71035   0.94662   0.16674   0.00000  Uiso   1.00
C352   C     0.72953   0.55378   0.12881   0.00000  Uiso   1.00
Cu353  Cu    0.75000   0.79821   0.16667   0.00000  Uiso   1.00
Cu354  Cu    0.75000   0.70178   0.16667   0.00000  Uiso   1.00
H355   H     0.78600   0.62619   0.23220   0.00000  Uiso   1.00
H356   H     0.65291   0.74419   0.02010   0.00000  Uiso   1.00
H357   H     0.65328   0.70800   0.07470   0.00000  Uiso   1.00
H358   H     0.60365   0.71137   0.03791   0.00000  Uiso   1.00
H359   H     0.90060   0.64474   0.21962   0.00000  Uiso   1.00
H360   H     0.90046   0.70053   0.29072   0.00000  Uiso   1.00
H361   H     0.85162   0.66327   0.28548   0.00000  Uiso   1.00
H362   H     0.84977   0.72517   0.26588   0.00000  Uiso   1.00
H363   H     0.90066   0.85609   0.11360   0.00000  Uiso   1.00
H364   H     0.84959   0.77555   0.06750   0.00000  Uiso   1.00
H365   H     0.85083   0.83768   0.04851   0.00000  Uiso   1.00
H366   H     0.67998   0.87672   0.16448   0.00000  Uiso   1.00
H367   H     0.89986   0.80106   0.04204   0.00000  Uiso   1.00
H368   H     0.60311   0.74063   0.28377   0.00000  Uiso   1.00
H369   H     0.59080   0.65521   0.26572   0.00000  Uiso   1.00
H370   H     0.64431   0.66726   0.29249   0.00000  Uiso   1.00
H371   H     0.63978   0.65728   0.22739   0.00000  Uiso   1.00
H372   H     0.80996   0.57904   0.29393   0.00000  Uiso   1.00
H373   H     0.84756   0.56726   0.24257   0.00000  Uiso   1.00
H374   H     0.86226   0.98576   0.27636   0.00000  Uiso   1.00
H375   H     0.82513   0.99770   0.32714   0.00000  Uiso   1.00
H376   H     0.87526   0.53263   0.32032   0.00000  Uiso   1.00
H377   H     0.71204   0.62419   0.10172   0.00000  Uiso   1.00
H378   H     0.68385   0.50032   0.23532   0.00000  Uiso   1.00
H379   H     0.65059   0.94562   0.23535   0.00000  Uiso   1.00
H380   H     0.62253   0.54520   0.19632   0.00000  Uiso   1.00
H381   H     0.60591   0.51829   0.25393   0.00000  Uiso   1.00
H382   H     0.58885   0.99108   0.19659   0.00000  Uiso   1.00
H383   H     0.75864   0.99001   0.06455   0.00000  Uiso   1.00
H384   H     0.75521   0.55147   0.04142   0.00000  Uiso   1.00
H385   H     0.68718   0.53013   0.32927   0.00000  Uiso   1.00
H386   H     0.73222   0.99049   0.31279   0.00000  Uiso   1.00
H387   H     0.68918   0.96937   0.02016   0.00000  Uiso   1.00
H388   H     0.81998   0.87655   0.16999   0.00000  Uiso   1.00
H389   H     0.82660   0.50337   0.10269   0.00000  Uiso   1.00
H390   H     0.84906   0.94249   0.10196   0.00000  Uiso   1.00
H391   H     0.90721   0.50415   0.08906   0.00000  Uiso   1.00
H392   H     0.89311   0.53253   0.14683   0.00000  Uiso   1.00
H393   H     0.91568   0.97209   0.14607   0.00000  Uiso   1.00
H394   H     0.53091   0.77122   0.09001   0.00000  Uiso   1.00
H395   H     0.97076   0.68519   0.20887   0.00000  Uiso   1.00
H396   H     0.97084   0.81589   0.12364   0.00000  Uiso   1.00
H397   H     0.53009   0.73011   0.24273   0.00000  Uiso   1.00
H398   H     0.60194   0.79832   0.05749   0.00000  Uiso   1.00
N399   N     0.75000   0.62934   0.16667   0.00000  Uiso   1.00
N400   N     0.75000   0.87065   0.16667   0.00000  Uiso   1.00
N401   N     0.61796   0.77361   0.07943   0.00000  Uiso   1.00
N402   N     0.88448   0.67749   0.21910   0.00000  Uiso   1.00
N403   N     0.88449   0.82327   0.11412   0.00000  Uiso   1.00
N404   N     0.61678   0.72473   0.25307   0.00000  Uiso   1.00
O405   O     0.68573   0.79071   0.16667   0.00000  Uiso   1.00
O406   O     0.67016   0.97016   0.16639   0.00000  Uiso   1.00
O407   O     0.70640   0.53044   0.09200   0.00000  Uiso   1.00
O408   O     0.83054   0.96981   0.17077   0.00000  Uiso   1.00
O409   O     0.81427   0.70928   0.16666   0.00000  Uiso   1.00
O410   O     0.81427   0.79071   0.16666   0.00000  Uiso   1.00
O411   O     0.68573   0.70928   0.16667   0.00000  Uiso   1.00
O412   O     0.75000   0.79071   0.09613   0.00000  Uiso   1.00
O413   O     0.75000   0.70929   0.23720   0.00000  Uiso   1.00
O414   O     0.75000   0.79071   0.23720   0.00000  Uiso   1.00
O415   O     0.75000   0.70929   0.09613   0.00000  Uiso   1.00
O416   O     0.78863   0.52731   0.24410   0.00000  Uiso   1.00
C417   C     0.16519   0.24988   0.50025   0.00000  Uiso   1.00
C418   C     0.29021   0.44651   0.50083   0.00000  Uiso   1.00
C419   C     0.25019   0.24998   0.40684   0.00000  Uiso   1.00
C420   C     0.25002   0.25001   0.59316   0.00000  Uiso   1.00
C421   C     0.25056   0.02759   0.50008   0.00000  Uiso   1.00
C422   C     0.25037   0.47299   0.50024   0.00000  Uiso   1.00
C423   C     0.25032   0.24996   0.35517   0.00000  Uiso   1.00
C424   C     0.25023   0.25000   0.64483   0.00000  Uiso   1.00
C425   C     0.04836   0.26260   0.45690   0.00000  Uiso   1.00
C426   C     0.45307   0.21385   0.52377   0.00000  Uiso   1.00
C427   C     0.45310   0.28714   0.47547   0.00000  Uiso   1.00
C428   C     0.33509   0.25007   0.49993   0.00000  Uiso   1.00
C429   C     0.04786   0.23844   0.54251   0.00000  Uiso   1.00
C430   C     0.09452   0.26197   0.45659   0.00000  Uiso   1.00
C431   C     0.40697   0.21383   0.52502   0.00000  Uiso   1.00
C432   C     0.40699   0.28686   0.47445   0.00000  Uiso   1.00
C433   C     0.09392   0.23690   0.54258   0.00000  Uiso   1.00
C434   C     0.11724   0.24936   0.49972   0.00000  Uiso   1.00
C435   C     0.38356   0.25026   0.49979   0.00000  Uiso   1.00
C436   C     0.02487   0.25075   0.49970   0.00000  Uiso   1.00
C437   C     0.47629   0.25060   0.49962   0.00000  Uiso   1.00
C438   C     0.13260   0.23203   0.38508   0.00000  Uiso   1.00
C439   C     0.27081   0.10511   0.53681   0.00000  Uiso   1.00
C440   C     0.37096   0.19258   0.60110   0.00000  Uiso   1.00
C441   C     0.37056   0.30844   0.39889   0.00000  Uiso   1.00
C442   C     0.12314   0.17345   0.59317   0.00000  Uiso   1.00
C443   C     0.32347   0.05099   0.60219   0.00000  Uiso   1.00
C444   C     0.34806   0.01442   0.63346   0.00000  Uiso   1.00
C445   C     0.15768   0.47985   0.54874   0.00000  Uiso   1.00
C446   C     0.11609   0.01053   0.54884   0.00000  Uiso   1.00
C447   C     0.23576   0.01926   0.38663   0.00000  Uiso   1.00
C448   C     0.20936   0.00120   0.34281   0.00000  Uiso   1.00
C449   C     0.34733   0.47702   0.45629   0.00000  Uiso   1.00
C450   C     0.21112   0.39572   0.49891   0.00000  Uiso   1.00
C451   C     0.39378   0.49776   0.45983   0.00000  Uiso   1.00
C452   C     0.22917   0.10455   0.46353   0.00000  Uiso   1.00
C453   C     0.28902   0.39562   0.50156   0.00000  Uiso   1.00
C454   C     0.27167   0.05369   0.53814   0.00000  Uiso   1.00
C455   C     0.21035   0.44662   0.50008   0.00000  Uiso   1.00
C456   C     0.22953   0.05378   0.46214   0.00000  Uiso   1.00
Cu457  Cu    0.25000   0.29821   0.50000   0.00000  Uiso   1.00
Cu458  Cu    0.25000   0.20178   0.50000   0.00000  Uiso   1.00
H459   H     0.28600   0.12619   0.56553   0.00000  Uiso   1.00
H460   H     0.15291   0.24419   0.35343   0.00000  Uiso   1.00
H461   H     0.15328   0.20800   0.40804   0.00000  Uiso   1.00
H462   H     0.10365   0.21137   0.37124   0.00000  Uiso   1.00
H463   H     0.40060   0.14474   0.55295   0.00000  Uiso   1.00
H464   H     0.40046   0.20053   0.62405   0.00000  Uiso   1.00
H465   H     0.35162   0.16327   0.61882   0.00000  Uiso   1.00
H466   H     0.34977   0.22517   0.59921   0.00000  Uiso   1.00
H467   H     0.40066   0.35609   0.44693   0.00000  Uiso   1.00
H468   H     0.34959   0.27555   0.40084   0.00000  Uiso   1.00
H469   H     0.35083   0.33768   0.38185   0.00000  Uiso   1.00
H470   H     0.17998   0.37672   0.49782   0.00000  Uiso   1.00
H471   H     0.39986   0.30106   0.37537   0.00000  Uiso   1.00
H472   H     0.10311   0.24063   0.61710   0.00000  Uiso   1.00
H473   H     0.09080   0.15521   0.59906   0.00000  Uiso   1.00
H474   H     0.14431   0.16726   0.62582   0.00000  Uiso   1.00
H475   H     0.13978   0.15728   0.56072   0.00000  Uiso   1.00
H476   H     0.30996   0.07904   0.62726   0.00000  Uiso   1.00
H477   H     0.34756   0.06726   0.57590   0.00000  Uiso   1.00
H478   H     0.36226   0.48576   0.60969   0.00000  Uiso   1.00
H479   H     0.32513   0.49770   0.66048   0.00000  Uiso   1.00
H480   H     0.37526   0.03263   0.65365   0.00000  Uiso   1.00
H481   H     0.21204   0.12419   0.43506   0.00000  Uiso   1.00
H482   H     0.18385   0.00032   0.56865   0.00000  Uiso   1.00
H483   H     0.15059   0.44562   0.56869   0.00000  Uiso   1.00
H484   H     0.12253   0.04520   0.52965   0.00000  Uiso   1.00
H485   H     0.10591   0.01829   0.58727   0.00000  Uiso   1.00
H486   H     0.08885   0.49108   0.52992   0.00000  Uiso   1.00
H487   H     0.25864   0.49001   0.39788   0.00000  Uiso   1.00
H488   H     0.25521   0.05147   0.37475   0.00000  Uiso   1.00
H489   H     0.18718   0.03013   0.66261   0.00000  Uiso   1.00
H490   H     0.23222   0.49049   0.64612   0.00000  Uiso   1.00
H491   H     0.18918   0.46937   0.35350   0.00000  Uiso   1.00
H492   H     0.31998   0.37655   0.50332   0.00000  Uiso   1.00
H493   H     0.32660   0.00337   0.43602   0.00000  Uiso   1.00
H494   H     0.34906   0.44249   0.43529   0.00000  Uiso   1.00
H495   H     0.40721   0.00415   0.42239   0.00000  Uiso   1.00
H496   H     0.39311   0.03253   0.48017   0.00000  Uiso   1.00
H497   H     0.41568   0.47209   0.47940   0.00000  Uiso   1.00
H498   H     0.03091   0.27122   0.42334   0.00000  Uiso   1.00
H499   H     0.47076   0.18519   0.54221   0.00000  Uiso   1.00
H500   H     0.47084   0.31589   0.45698   0.00000  Uiso   1.00
H501   H     0.03009   0.23011   0.57607   0.00000  Uiso   1.00
H502   H     0.10194   0.29832   0.39083   0.00000  Uiso   1.00
N503   N     0.25000   0.12934   0.50000   0.00000  Uiso   1.00
N504   N     0.25000   0.37065   0.50000   0.00000  Uiso   1.00
N505   N     0.11796   0.27361   0.41277   0.00000  Uiso   1.00
N506   N     0.38448   0.17749   0.55243   0.00000  Uiso   1.00
N507   N     0.38449   0.32327   0.44745   0.00000  Uiso   1.00
N508   N     0.11678   0.22473   0.58640   0.00000  Uiso   1.00
O509   O     0.18573   0.29071   0.50000   0.00000  Uiso   1.00
O510   O     0.17016   0.47016   0.49972   0.00000  Uiso   1.00
O511   O     0.20640   0.03044   0.42534   0.00000  Uiso   1.00
O512   O     0.33054   0.46981   0.50410   0.00000  Uiso   1.00
O513   O     0.31427   0.20928   0.50000   0.00000  Uiso   1.00
O514   O     0.31427   0.29071   0.50000   0.00000  Uiso   1.00
O515   O     0.18573   0.20928   0.50000   0.00000  Uiso   1.00
O516   O     0.25000   0.29071   0.42946   0.00000  Uiso   1.00
O517   O     0.25000   0.20929   0.57054   0.00000  Uiso   1.00
O518   O     0.25000   0.29071   0.57054   0.00000  Uiso   1.00
O519   O     0.25000   0.20929   0.42946   0.00000  Uiso   1.00
O520   O     0.28863   0.02731   0.57744   0.00000  Uiso   1.00
C521   C     0.66519   0.24988   0.50025   0.00000  Uiso   1.00
C522   C     0.79021   0.44651   0.50083   0.00000  Uiso   1.00
C523   C     0.75019   0.24998   0.40684   0.00000  Uiso   1.00
C524   C     0.75002   0.25001   0.59316   0.00000  Uiso   1.00
C525   C     0.75056   0.02759   0.50008   0.00000  Uiso   1.00
C526   C     0.75037   0.47299   0.50024   0.00000  Uiso   1.00
C527   C     0.75032   0.24996   0.35517   0.00000  Uiso   1.00
C528   C     0.75023   0.25000   0.64483   0.00000  Uiso   1.00
C529   C     0.54836   0.26260   0.45690   0.00000  Uiso   1.00
C530   C     0.95307   0.21385   0.52377   0.00000  Uiso   1.00
C531   C     0.95310   0.28714   0.47547   0.00000  Uiso   1.00
C532   C     0.83509   0.25007   0.49993   0.00000  Uiso   1.00
C533   C     0.54786   0.23844   0.54251   0.00000  Uiso   1.00
C534   C     0.59452   0.26197   0.45659   0.00000  Uiso   1.00
C535   C     0.90697   0.21383   0.52502   0.00000  Uiso   1.00
C536   C     0.90699   0.28686   0.47445   0.00000  Uiso   1.00
C537   C     0.59392   0.23690   0.54258   0.00000  Uiso   1.00
C538   C     0.61724   0.24936   0.49972   0.00000  Uiso   1.00
C539   C     0.88356   0.25026   0.49979   0.00000  Uiso   1.00
C540   C     0.52487   0.25075   0.49970   0.00000  Uiso   1.00
C541   C     0.97629   0.25060   0.49962   0.00000  Uiso   1.00
C542   C     0.63260   0.23203   0.38508   0.00000  Uiso   1.00
C543   C     0.77081   0.10511   0.53681   0.00000  Uiso   1.00
C544   C     0.87096   0.19258   0.60110   0.00000  Uiso   1.00
C545   C     0.87056   0.30844   0.39889   0.00000  Uiso   1.00
C546   C     0.62314   0.17345   0.59317   0.00000  Uiso   1.00
C547   C     0.82347   0.05099   0.60219   0.00000  Uiso   1.00
C548   C     0.84806   0.01442   0.63346   0.00000  Uiso   1.00
C549   C     0.65768   0.47985   0.54874   0.00000  Uiso   1.00
C550   C     0.61609   0.01053   0.54884   0.00000  Uiso   1.00
C551   C     0.73576   0.01926   0.38663   0.00000  Uiso   1.00
C552   C     0.70936   0.00120   0.34281   0.00000  Uiso   1.00
C553   C     0.84733   0.47702   0.45629   0.00000  Uiso   1.00
C554   C     0.71112   0.39572   0.49891   0.00000  Uiso   1.00
C555   C     0.89378   0.49776   0.45983   0.00000  Uiso   1.00
C556   C     0.72917   0.10455   0.46353   0.00000  Uiso   1.00
C557   C     0.78902   0.39562   0.50156   0.00000  Uiso   1.00
C558   C     0.77167   0.05369   0.53814   0.00000  Uiso   1.00
C559   C     0.71035   0.44662   0.50008   0.00000  Uiso   1.00
C560   C     0.72953   0.05378   0.46214   0.00000  Uiso   1.00
Cu561  Cu    0.75000   0.29821   0.50000   0.00000  Uiso   1.00
Cu562  Cu    0.75000   0.20178   0.50000   0.00000  Uiso   1.00
H563   H     0.78600   0.12619   0.56553   0.00000  Uiso   1.00
H564   H     0.65291   0.24419   0.35343   0.00000  Uiso   1.00
H565   H     0.65328   0.20800   0.40804   0.00000  Uiso   1.00
H566   H     0.60365   0.21137   0.37124   0.00000  Uiso   1.00
H567   H     0.90060   0.14474   0.55295   0.00000  Uiso   1.00
H568   H     0.90046   0.20053   0.62405   0.00000  Uiso   1.00
H569   H     0.85162   0.16327   0.61882   0.00000  Uiso   1.00
H570   H     0.84977   0.22517   0.59921   0.00000  Uiso   1.00
H571   H     0.90066   0.35609   0.44693   0.00000  Uiso   1.00
H572   H     0.84959   0.27555   0.40084   0.00000  Uiso   1.00
H573   H     0.85083   0.33768   0.38185   0.00000  Uiso   1.00
H574   H     0.67998   0.37672   0.49782   0.00000  Uiso   1.00
H575   H     0.89986   0.30106   0.37537   0.00000  Uiso   1.00
H576   H     0.60311   0.24063   0.61710   0.00000  Uiso   1.00
H577   H     0.59080   0.15521   0.59906   0.00000  Uiso   1.00
H578   H     0.64431   0.16726   0.62582   0.00000  Uiso   1.00
H579   H     0.63978   0.15728   0.56072   0.00000  Uiso   1.00
H580   H     0.80996   0.07904   0.62726   0.00000  Uiso   1.00
H581   H     0.84756   0.06726   0.57590   0.00000  Uiso   1.00
H582   H     0.86226   0.48576   0.60969   0.00000  Uiso   1.00
H583   H     0.82513   0.49770   0.66048   0.00000  Uiso   1.00
H584   H     0.87526   0.03263   0.65365   0.00000  Uiso   1.00
H585   H     0.71204   0.12419   0.43506   0.00000  Uiso   1.00
H586   H     0.68385   0.00032   0.56865   0.00000  Uiso   1.00
H587   H     0.65059   0.44562   0.56869   0.00000  Uiso   1.00
H588   H     0.62253   0.04520   0.52965   0.00000  Uiso   1.00
H589   H     0.60591   0.01829   0.58727   0.00000  Uiso   1.00
H590   H     0.58885   0.49108   0.52992   0.00000  Uiso   1.00
H591   H     0.75864   0.49001   0.39788   0.00000  Uiso   1.00
H592   H     0.75521   0.05147   0.37475   0.00000  Uiso   1.00
H593   H     0.68718   0.03013   0.66261   0.00000  Uiso   1.00
H594   H     0.73222   0.49049   0.64612   0.00000  Uiso   1.00
H595   H     0.68918   0.46937   0.35350   0.00000  Uiso   1.00
H596   H     0.81998   0.37655   0.50332   0.00000  Uiso   1.00
H597   H     0.82660   0.00337   0.43602   0.00000  Uiso   1.00
H598   H     0.84906   0.44249   0.43529   0.00000  Uiso   1.00
H599   H     0.90721   0.00415   0.42239   0.00000  Uiso   1.00
H600   H     0.89311   0.03253   0.48017   0.00000  Uiso   1.00
H601   H     0.91568   0.47209   0.47940   0.00000  Uiso   1.00
H602   H     0.53091   0.27122   0.42334   0.00000  Uiso   1.00
H603   H     0.97076   0.18519   0.54221   0.00000  Uiso   1.00
H604   H     0.97084   0.31589   0.45698   0.00000  Uiso   1.00
H605   H     0.53009   0.23011   0.57607   0.00000  Uiso   1.00
H606   H     0.60194   0.29832   0.39083   0.00000  Uiso   1.00
N607   N     0.75000   0.12934   0.50000   0.00000  Uiso   1.00
N608   N     0.75000   0.37065   0.50000   0.00000  Uiso   1.00
N609   N     0.61796   0.27361   0.41277   0.00000  Uiso   1.00
N610   N     0.88448   0.17749   0.55243   0.00000  Uiso   1.00
N611   N     0.88449   0.32327   0.44745   0.00000  Uiso   1.00
N612   N     0.61678   0.22473   0.58640   0.00000  Uiso   1.00
O613   O     0.68573   0.29071   0.50000   0.00000  Uiso   1.00
O614   O     0.67016   0.47016   0.49972   0.00000  Uiso   1.00
O615   O     0.70640   0.03044   0.42534   0.00000  Uiso   1.00
O616   O     0.83054   0.46981   0.50410   0.00000  Uiso   1.00
O617   O     0.81427   0.20928   0.50000   0.00000  Uiso   1.00
O618   O     0.81427   0.29071   0.50000   0.00000  Uiso   1.00
O619   O     0.68573   0.20928   0.50000   0.00000  Uiso   1.00
O620   O     0.75000   0.29071   0.42946   0.00000  Uiso   1.00
O621   O     0.75000   0.20929   0.57054   0.00000  Uiso   1.00
O622   O     0.75000   0.29071   0.57054   0.00000  Uiso   1.00
O623   O     0.75000   0.20929   0.42946   0.00000  Uiso   1.00
O624   O     0.78863   0.02731   0.57744   0.00000  Uiso   1.00
C625   C     0.16519   0.74988   0.50025   0.00000  Uiso   1.00
C626   C     0.29021   0.94651   0.50083   0.00000  Uiso   1.00
C627   C     0.25019   0.74998   0.40684   0.00000  Uiso   1.00
C628   C     0.25002   0.75001   0.59316   0.00000  Uiso   1.00
C629   C     0.25056   0.52759   0.50008   0.00000  Uiso   1.00
C630   C     0.25037   0.97299   0.50024   0.00000  Uiso   1.00
C631   C     0.25032   0.74996   0.35517   0.00000  Uiso   1.00
C632   C     0.25023   0.75000   0.64483   0.00000  Uiso   1.00
C633   C     0.04836   0.76260   0.45690   0.00000  Uiso   1.00
C634   C     0.45307   0.71385   0.52377   0.00000  Uiso   1.00
C635   C     0.45310   0.78714   0.47547   0.00000  Uiso   1.00
C636   C     0.33509   0.75007   0.49993   0.00000  Uiso   1.00
C637   C     0.04786   0.73844   0.54251   0.00000  Uiso   1.00
C638   C     0.09452   0.76197   0.45659   0.00000  Uiso   1.00
C639   C     0.40697   0.71383   0.52502   0.00000  Uiso   1.00
C640   C     0.40699   0.78686   0.47445   0.00000  Uiso   1.00
C641   C     0.09392   0.73690   0.54258   0.00000  Uiso   1.00
C642   C     0.11724   0.74936   0.49972   0.00000  Uiso   1.00
C643   C     0.38356   0.75026   0.49979   0.00000  Uiso   1.00
C644   C     0.02487   0.75075   0.49970   0.00000  Uiso   1.00
C645   C     0.47629   0.75060   0.49962   0.00000  Uiso   1.00
C646   C     0.13260   0.73203   0.38508   0.00000  Uiso   1.00
C647   C     0.27081   0.60511   0.53681   0.00000  Uiso   1.00
C648   C     0.37096   0.69258   0.60110   0.00000  Uiso   1.00
C649   C     0.37056   0.80844   0.39889   0.00000  Uiso   1.00
C650   C     0.12314   0.67345   0.59317   0.00000  Uiso   1.00
C651   C     0.32347   0.55099   0.60219   0.00000  Uiso   1.00
C652   C     0.34806   0.51442   0.63346   0.00000  Uiso   1.00
C653   C     0.15768   0.97985   0.54874   0.00000  Uiso   1.00
C654   C     0.11609   0.51053   0.54884   0.00000  Uiso   1.00
C655   C     0.23576   0.51926   0.38663   0.00000  Uiso   1.00
C656   C     0.20936   0.50120   0.34281   0.00000  Uiso   1.00
C657   C     0.34733   0.97702   0.45629   0.00000  Uiso   1.00
C658   C     0.21112   0.89572   0.49891   0.00000  Uiso   1.00
C659   C     0.39378   0.99776   0.45983   0.00000  Uiso   1.00
C660   C     0.22917   0.60455   0.46353   0.00000  Uiso   1.00
C661   C     0.28902   0.89562   0.50156   0.00000  Uiso   1.00
C662   C     0.27167   0.55369   0.53814   0.00000  Uiso   1.00
C663   C     0.21035   0.94662   0.50008   0.00000  Uiso   1.00
C664   C     0.22953   0.55378   0.46214   0.00000  Uiso   1.00
Cu665  Cu    0.25000   0.79821   0.50000   0.00000  Uiso   1.00
Cu666  Cu    0.25000   0.70178   0.50000   0.00000  Uiso   1.00
H667   H     0.28600   0.62619   0.56553   0.00000  Uiso   1.00
H668   H     0.15291   0.74419   0.35343   0.00000  Uiso   1.00
H669   H     0.15328   0.70800   0.40804   0.00000  Uiso   1.00
H670   H     0.10365   0.71137   0.37124   0.00000  Uiso   1.00
H671   H     0.40060   0.64474   0.55295   0.00000  Uiso   1.00
H672   H     0.40046   0.70053   0.62405   0.00000  Uiso   1.00
H673   H     0.35162   0.66327   0.61882   0.00000  Uiso   1.00
H674   H     0.34977   0.72517   0.59921   0.00000  Uiso   1.00
H675   H     0.40066   0.85609   0.44693   0.00000  Uiso   1.00
H676   H     0.34959   0.77555   0.40084   0.00000  Uiso   1.00
H677   H     0.35083   0.83768   0.38185   0.00000  Uiso   1.00
H678   H     0.17998   0.87672   0.49782   0.00000  Uiso   1.00
H679   H     0.39986   0.80106   0.37537   0.00000  Uiso   1.00
H680   H     0.10311   0.74063   0.61710   0.00000  Uiso   1.00
H681   H     0.09080   0.65521   0.59906   0.00000  Uiso   1.00
H682   H     0.14431   0.66726   0.62582   0.00000  Uiso   1.00
H683   H     0.13978   0.65728   0.56072   0.00000  Uiso   1.00
H684   H     0.30996   0.57904   0.62726   0.00000  Uiso   1.00
H685   H     0.34756   0.56726   0.57590   0.00000  Uiso   1.00
H686   H     0.36226   0.98576   0.60969   0.00000  Uiso   1.00
H687   H     0.32513   0.99770   0.66048   0.00000  Uiso   1.00
H688   H     0.37526   0.53263   0.65365   0.00000  Uiso   1.00
H689   H     0.21204   0.62419   0.43506   0.00000  Uiso   1.00
H690   H     0.18385   0.50032   0.56865   0.00000  Uiso   1.00
H691   H     0.15059   0.94562   0.56869   0.00000  Uiso   1.00
H692   H     0.12253   0.54520   0.52965   0.00000  Uiso   1.00
H693   H     0.10591   0.51829   0.58727   0.00000  Uiso   1.00
H694   H     0.08885   0.99108   0.52992   0.00000  Uiso   1.00
H695   H     0.25864   0.99001   0.39788   0.00000  Uiso   1.00
H696   H     0.25521   0.55147   0.37475   0.00000  Uiso   1.00
H697   H     0.18718   0.53013   0.66261   0.00000  Uiso   1.00
H698   H     0.23222   0.99049   0.64612   0.00000  Uiso   1.00
H699   H     0.18918   0.96937   0.35350   0.00000  Uiso   1.00
H700   H     0.31998   0.87655   0.50332   0.00000  Uiso   1.00
H701   H     0.32660   0.50337   0.43602   0.00000  Uiso   1.00
H702   H     0.34906   0.94249   0.43529   0.00000  Uiso   1.00
H703   H     0.40721   0.50415   0.42239   0.00000  Uiso   1.00
H704   H     0.39311   0.53253   0.48017   0.00000  Uiso   1.00
H705   H     0.41568   0.97209   0.47940   0.00000  Uiso   1.00
H706   H     0.03091   0.77122   0.42334   0.00000  Uiso   1.00
H707   H     0.47076   0.68519   0.54221   0.00000  Uiso   1.00
H708   H     0.47084   0.81589   0.45698   0.00000  Uiso   1.00
H709   H     0.03009   0.73011   0.57607   0.00000  Uiso   1.00
H710   H     0.10194   0.79832   0.39083   0.00000  Uiso   1.00
N711   N     0.25000   0.62934   0.50000   0.00000  Uiso   1.00
N712   N     0.25000   0.87065   0.50000   0.00000  Uiso   1.00
N713   N     0.11796   0.77361   0.41277   0.00000  Uiso   1.00
N714   N     0.38448   0.67749   0.55243   0.00000  Uiso   1.00
N715   N     0.38449   0.82327   0.44745   0.00000  Uiso   1.00
N716   N     0.11678   0.72473   0.58640   0.00000  Uiso   1.00
O717   O     0.18573   0.79071   0.50000   0.00000  Uiso   1.00
O718   O     0.17016   0.97016   0.49972   0.00000  Uiso   1.00
O719   O     0.20640   0.53044   0.42534   0.00000  Uiso   1.00
O720   O     0.33054   0.96981   0.50410   0.00000  Uiso   1.00
O721   O     0.31427   0.70928   0.50000   0.00000  Uiso   1.00
O722   O     0.31427   0.79071   0.50000   0.00000  Uiso   1.00
O723   O     0.18573   0.70928   0.50000   0.00000  Uiso   1.00
O724   O     0.25000   0.79071   0.42946   0.00000  Uiso   1.00
O725   O     0.25000   0.70929   0.57054   0.00000  Uiso   1.00
O726   O     0.25000   0.79071   0.57054   0.00000  Uiso   1.00
O727   O     0.25000   0.70929   0.42946   0.00000  Uiso   1.00
O728   O     0.28863   0.52731   0.57744   0.00000  Uiso   1.00
C729   C     0.66519   0.74988   0.50025   0.00000  Uiso   1.00
C730   C     0.79021   0.94651   0.50083   0.00000  Uiso   1.00
C731   C     0.75019   0.74998   0.40684   0.00000  Uiso   1.00
C732   C     0.75002   0.75001   0.59316   0.00000  Uiso   1.00
C733   C     0.75056   0.52759   0.50008   0.00000  Uiso   1.00
C734   C     0.75037   0.97299   0.50024   0.00000  Uiso   1.00
C735   C     0.75032   0.74996   0.35517   0.00000  Uiso   1.00
C736   C     0.75023   0.75000   0.64483   0.00000  Uiso   1.00
C737   C     0.54836   0.76260   0.45690   0.00000  Uiso   1.00
C738   C     0.95307   0.71385   0.52377   0.00000  Uiso   1.00
C739   C     0.95310   0.78714   0.47547   0.00000  Uiso   1.00
C740   C     0.83509   0.75007   0.49993   0.00000  Uiso   1.00
C741   C     0.54786   0.73844   0.54251   0.00000  Uiso   1.00
C742   C     0.59452   0.76197   0.45659   0.00000  Uiso   1.00
C743   C     0.90697   0.71383   0.52502   0.00000  Uiso   1.00
C744   C     0.90699   0.78686   0.47445   0.00000  Uiso   1.00
C745   C     0.59392   0.73690   0.54258   0.00000  Uiso   1.00
C746   C     0.61724   0.74936   0.49972   0.00000  Uiso   1.00
C747   C     0.88356   0.75026   0.49979   0.00000  Uiso   1.00
C748   C     0.52487   0.75075   0.49970   0.00000  Uiso   1.00
C749   C     0.97629   0.75060   0.49962   0.00000  Uiso   1.00
C750   C     0.63260   0.73203   0.38508   0.00000  Uiso   1.00
C751   C     0.77081   0.60511   0.53681   0.00000  Uiso   1.00
C752   C     0.87096   0.69258   0.60110   0.00000  Uiso   1.00
C753   C     0.87056   0.80844   0.39889   0.00000  Uiso   1.00
C754   C     0.62314   0.67345   0.59317   0.00000  Uiso   1.00
C755   C     0.82347   0.55099   0.60219   0.00000  Uiso   1.00
C756   C     0.84806   0.51442   0.63346   0.00000  Uiso   1.00
C757   C     0.65768   0.97985   0.54874   0.00000  Uiso   1.00
C758   C     0.61609   0.51053   0.54884   0.00000  Uiso   1.00
C759   C     0.73576   0.51926   0.38663   0.00000  Uiso   1.00
C760   C     0.70936   0.50120   0.34281   0.00000  Uiso   1.00
C761   C     0.84733   0.97702   0.45629   0.00000  Uiso   1.00
C762   C     0.71112   0.89572   0.49891   0.00000  Uiso   1.00
C763   C     0.89378   0.99776   0.45983   0.00000  Uiso   1.00
C764   C     0.72917   0.60455   0.46353   0.00000  Uiso   1.00
C765   C     0.78902   0.89562   0.50156   0.00000  Uiso   1.00
C766   C     0.77167   0.55369   0.53814   0.00000  Uiso   1.00
C767   C     0.71035   0.94662   0.50008   0.00000  Uiso   1.00
C768   C     0.72953   0.55378   0.46214   0.00000  Uiso   1.00
Cu769  Cu    0.75000   0.79821   0.50000   0.00000  Uiso   1.00
Cu770  Cu    0.75000   0.70178   0.50000   0.00000  Uiso   1.00
H771   H     0.78600   0.62619   0.56553   0.00000  Uiso   1.00
H772   H     0.65291   0.74419   0.35343   0.00000  Uiso   1.00
H773   H     0.65328   0.70800   0.40804   0.00000  Uiso   1.00
H774   H     0.60365   0.71137   0.37124   0.00000  Uiso   1.00
H775   H     0.90060   0.64474   0.55295   0.00000  Uiso   1.00
H776   H     0.90046   0.70053   0.62405   0.00000  Uiso   1.00
H777   H     0.85162   0.66327   0.61882   0.00000  Uiso   1.00
H778   H     0.84977   0.72517   0.59921   0.00000  Uiso   1.00
H779   H     0.90066   0.85609   0.44693   0.00000  Uiso   1.00
H780   H     0.84959   0.77555   0.40084   0.00000  Uiso   1.00
H781   H     0.85083   0.83768   0.38185   0.00000  Uiso   1.00
H782   H     0.67998   0.87672   0.49782   0.00000  Uiso   1.00
H783   H     0.89986   0.80106   0.37537   0.00000  Uiso   1.00
H784   H     0.60311   0.74063   0.61710   0.00000  Uiso   1.00
H785   H     0.59080   0.65521   0.59906   0.00000  Uiso   1.00
H786   H     0.64431   0.66726   0.62582   0.00000  Uiso   1.00
H787   H     0.63978   0.65728   0.56072   0.00000  Uiso   1.00
H788   H     0.80996   0.57904   0.62726   0.00000  Uiso   1.00
H789   H     0.84756   0.56726   0.57590   0.00000  Uiso   1.00
H790   H     0.86226   0.98576   0.60969   0.00000  Uiso   1.00
H791   H     0.82513   0.99770   0.66048   0.00000  Uiso   1.00
H792   H     0.87526   0.53263   0.65365   0.00000  Uiso   1.00
H793   H     0.71204   0.62419   0.43506   0.00000  Uiso   1.00
H794   H     0.68385   0.50032   0.56865   0.00000  Uiso   1.00
H795   H     0.65059   0.94562   0.56869   0.00000  Uiso   1.00
H796   H     0.62253   0.54520   0.52965   0.00000  Uiso   1.00
H797   H     0.60591   0.51829   0.58727   0.00000  Uiso   1.00
H798   H     0.58885   0.99108   0.52992   0.00000  Uiso   1.00
H799   H     0.75864   0.99001   0.39788   0.00000  Uiso   1.00
H800   H     0.75521   0.55147   0.37475   0.00000  Uiso   1.00
H801   H     0.68718   0.53013   0.66261   0.00000  Uiso   1.00
H802   H     0.73222   0.99049   0.64612   0.00000  Uiso   1.00
H803   H     0.68918   0.96937   0.35350   0.00000  Uiso   1.00
H804   H     0.81998   0.87655   0.50332   0.00000  Uiso   1.00
H805   H     0.82660   0.50337   0.43602   0.00000  Uiso   1.00
H806   H     0.84906   0.94249   0.43529   0.00000  Uiso   1.00
H807   H     0.90721   0.50415   0.42239   0.00000  Uiso   1.00
H808   H     0.89311   0.53253   0.48017   0.00000  Uiso   1.00
H809   H     0.91568   0.97209   0.47940   0.00000  Uiso   1.00
H810   H     0.53091   0.77122   0.42334   0.00000  Uiso   1.00
H811   H     0.97076   0.68519   0.54221   0.00000  Uiso   1.00
H812   H     0.97084   0.81589   0.45698   0.00000  Uiso   1.00
H813   H     0.53009   0.73011   0.57607   0.00000  Uiso   1.00
H814   H     0.60194   0.79832   0.39083   0.00000  Uiso   1.00
N815   N     0.75000   0.62934   0.50000   0.00000  Uiso   1.00
N816   N     0.75000   0.87065   0.50000   0.00000  Uiso   1.00
N817   N     0.61796   0.77361   0.41277   0.00000  Uiso   1.00
N818   N     0.88448   0.67749   0.55243   0.00000  Uiso   1.00
N819   N     0.88449   0.82327   0.44745   0.00000  Uiso   1.00
N820   N     0.61678   0.72473   0.58640   0.00000  Uiso   1.00
O821   O     0.68573   0.79071   0.50000   0.00000  Uiso   1.00
O822   O     0.67016   0.97016   0.49972   0.00000  Uiso   1.00
O823   O     0.70640   0.53044   0.42534   0.00000  Uiso   1.00
O824   O     0.83054   0.96981   0.50410   0.00000  Uiso   1.00
O825   O     0.81427   0.70928   0.50000   0.00000  Uiso   1.00
O826   O     0.81427   0.79071   0.50000   0.00000  Uiso   1.00
O827   O     0.68573   0.70928   0.50000   0.00000  Uiso   1.00
O828   O     0.75000   0.79071   0.42946   0.00000  Uiso   1.00
O829   O     0.75000   0.70929   0.57054   0.00000  Uiso   1.00
O830   O     0.75000   0.79071   0.57054   0.00000  Uiso   1.00
O831   O     0.75000   0.70929   0.42946   0.00000  Uiso   1.00
O832   O     0.78863   0.52731   0.57744   0.00000  Uiso   1.00
C833   C     0.16519   0.24988   0.83359   0.00000  Uiso   1.00
C834   C     0.29021   0.44651   0.83416   0.00000  Uiso   1.00
C835   C     0.25019   0.24998   0.74018   0.00000  Uiso   1.00
C836   C     0.25002   0.25001   0.92649   0.00000  Uiso   1.00
C837   C     0.25056   0.02759   0.83341   0.00000  Uiso   1.00
C838   C     0.25037   0.47299   0.83357   0.00000  Uiso   1.00
C839   C     0.25032   0.24996   0.68851   0.00000  Uiso   1.00
C840   C     0.25023   0.25000   0.97816   0.00000  Uiso   1.00
C841   C     0.04836   0.26260   0.79024   0.00000  Uiso   1.00
C842   C     0.45307   0.21385   0.85710   0.00000  Uiso   1.00
C843   C     0.45310   0.28714   0.80881   0.00000  Uiso   1.00
C844   C     0.33509   0.25007   0.83326   0.00000  Uiso   1.00
C845   C     0.04786   0.23844   0.87585   0.00000  Uiso   1.00
C846   C     0.09452   0.26197   0.78992   0.00000  Uiso   1.00
C847   C     0.40697   0.21383   0.85836   0.00000  Uiso   1.00
C848   C     0.40699   0.28686   0.80779   0.00000  Uiso   1.00
C849   C     0.09392   0.23690   0.87591   0.00000  Uiso   1.00
C850   C     0.11724   0.24936   0.83306   0.00000  Uiso   1.00
C851   C     0.38356   0.25026   0.83312   0.00000  Uiso   1.00
C852   C     0.02487   0.25075   0.83303   0.00000  Uiso   1.00
C853   C     0.47629   0.25060   0.83295   0.00000  Uiso   1.00
C854   C     0.13260   0.23203   0.71841   0.00000  Uiso   1.00
C855   C     0.27081   0.10511   0.87014   0.00000  Uiso   1.00
C856   C     0.37096   0.19258   0.93444   0.00000  Uiso   1.00
C857   C     0.37056   0.30844   0.73223   0.00000  Uiso   1.00
C858   C     0.12314   0.17345   0.92650   0.00000  Uiso   1.00
C859   C     0.32347   0.05099   0.93552   0.00000  Uiso   1.00
C860   C     0.34806   0.01442   0.96679   0.00000  Uiso   1.00
C861   C     0.15768   0.47985   0.88208   0.00000  Uiso   1.00
C862   C     0.11609   0.01053   0.88218   0.00000  Uiso   1.00
C863   C     0.23576   0.01926   0.71997   0.00000  Uiso   1.00
C864   C     0.20936   0.00120   0.67614   0.00000  Uiso   1.00
C865   C     0.34733   0.47702   0.78962   0.00000  Uiso   1.00
C866   C     0.21112   0.39572   0.83225   0.00000  Uiso   1.00
C867   C     0.39378   0.49776   0.79317   0.00000  Uiso   1.00
C868   C     0.22917   0.10455   0.79687   0.00000  Uiso   1.00
C869   C     0.28902   0.39562   0.83489   0.00000  Uiso   1.00
C870   C     0.27167   0.05369   0.87147   0.00000  Uiso   1.00
C871   C     0.21035   0.44662   0.83341   0.00000  Uiso   1.00
C872   C     0.22953   0.05378   0.79547   0.00000  Uiso   1.00
Cu873  Cu    0.25000   0.29821   0.83333   0.00000  Uiso   1.00
Cu874  Cu    0.25000   0.20178   0.83333   0.00000  Uiso   1.00
H875   H     0.28600   0.12619   0.89886   0.00000  Uiso   1.00
H876   H     0.15291   0.24419   0.68677   0.00000  Uiso   1.00
H877   H     0.15328   0.20800   0.74137   0.00000  Uiso   1.00
H878   H     0.10365   0.21137   0.70458   0.00000  Uiso   1.00
H879   H     0.40060   0.14474   0.88629   0.00000  Uiso   1.00
H880   H     0.40046   0.20053   0.95738   0.00000  Uiso   1.00
H881   H     0.35162   0.16327   0.95215   0.00000  Uiso   1.00
H882   H     0.34977   0.22517   0.93255   0.00000  Uiso   1.00
H883   H     0.40066   0.35609   0.78027   0.00000  Uiso   1.00
H884   H     0.34959   0.27555   0.73417   0.00000  Uiso   1.00
H885   H     0.35083   0.33768   0.71518   0.00000  Uiso   1.00
H886   H     0.17998   0.37672   0.83115   0.00000  Uiso   1.00
H887   H     0.39986   0.30106   0.70870   0.00000  Uiso   1.00
H888   H     0.10311   0.24063   0.95044   0.00000  Uiso   1.00
H889   H     0.09080   0.15521   0.93239   0.00000  Uiso   1.00
H890   H     0.14431   0.16726   0.95915   0.00000  Uiso   1.00
H891   H     0.13978   0.15728   0.89405   0.00000  Uiso   1.00
H892   H     0.30996   0.07904   0.96060   0.00000  Uiso   1.00
H893   H     0.34756   0.06726   0.90924   0.00000  Uiso   1.00
H894   H     0.36226   0.48576   0.94302   0.00000  Uiso   1.00
H895   H     0.32513   0.49770   0.99381   0.00000  Uiso   1.00
H896   H     0.37526   0.03263   0.98699   0.00000  Uiso   1.00
H897   H     0.21204   0.12419   0.76839   0.00000  Uiso   1.00
H898   H     0.18385   0.00032   0.90198   0.00000  Uiso   1.00
H899   H     0.15059   0.44562   0.90202   0.00000  Uiso   1.00
H900   H     0.12253   0.04520   0.86299   0.00000  Uiso   1.00
H901   H     0.10591   0.01829   0.92060   0.00000  Uiso   1.00
H902   H     0.08885   0.49108   0.86325   0.00000  Uiso   1.00
H903   H     0.25864   0.49001   0.73122   0.00000  Uiso   1.00
H904   H     0.25521   0.05147   0.70808   0.00000  Uiso   1.00
H905   H     0.18718   0.03013   0.99594   0.00000  Uiso   1.00
H906   H     0.23222   0.49049   0.97946   0.00000  Uiso   1.00
H907   H     0.18918   0.46937   0.68683   0.00000  Uiso   1.00
H908   H     0.31998   0.37655   0.83665   0.00000  Uiso   1.00
H909   H     0.32660   0.00337   0.76935   0.00000  Uiso   1.00
H910   H     0.34906   0.44249   0.76862   0.00000  Uiso   1.00
H911   H     0.40721   0.00415   0.75572   0.00000  Uiso   1.00
H912   H     0.39311   0.03253   0.81350   0.00000  Uiso   1.00
H913   H     0.41568   0.47209   0.81273   0.00000  Uiso   1.00
H914   H     0.03091   0.27122   0.75668   0.00000  Uiso   1.00
H915   H     0.47076   0.18519   0.87554   0.00000  Uiso   1.00
H916   H     0.47084   0.31589   0.79031   0.00000  Uiso   1.00
H917   H     0.03009   0.23011   0.90940   0.00000  Uiso   1.00
H918   H     0.10194   0.29832   0.72416   0.00000  Uiso   1.00
N919   N     0.25000   0.12934   0.83333   0.00000  Uiso   1.00
N920   N     0.25000   0.37065   0.83333   0.00000  Uiso   1.00
N921   N     0.11796   0.27361   0.74610   0.00000  Uiso   1.00
N922   N     0.38448   0.17749   0.88576   0.00000  Uiso   1.00
N923   N     0.38449   0.32327   0.78078   0.00000  Uiso   1.00
N924   N     0.11678   0.22473   0.91973   0.00000  Uiso   1.00
O925   O     0.18573   0.29071   0.83334   0.00000  Uiso   1.00
O926   O     0.17016   0.47016   0.83306   0.00000  Uiso   1.00
O927   O     0.20640   0.03044   0.75867   0.00000  Uiso   1.00
O928   O     0.33054   0.46981   0.83744   0.00000  Uiso   1.00
O929   O     0.31427   0.20928   0.83333   0.00000  Uiso   1.00
O930   O     0.31427   0.29071   0.83333   0.00000  Uiso   1.00
O931   O     0.18573   0.20928   0.83334   0.00000  Uiso   1.00
O932   O     0.25000   0.29071   0.76280   0.00000  Uiso   1.00
O933   O     0.25000   0.20929   0.90387   0.00000  Uiso   1.00
O934   O     0.25000   0.29071   0.90387   0.00000  Uiso   1.00
O935   O     0.25000   0.20929   0.76280   0.00000  Uiso   1.00
O936   O     0.28863   0.02731   0.91077   0.00000  Uiso   1.00
C937   C     0.66519   0.24988   0.83359   0.00000  Uiso   1.00
C938   C     0.79021   0.44651   0.83416   0.00000  Uiso   1.00
C939   C     0.75019   0.24998   0.74018   0.00000  Uiso   1.00
C940   C     0.75002   0.25001   0.92649   0.00000  Uiso   1.00
C941   C     0.75056   0.02759   0.83341   0.00000  Uiso   1.00
C942   C     0.75037   0.47299   0.83357   0.00000  Uiso   1.00
C943   C     0.75032   0.24996   0.68851   0.00000  Uiso   1.00
C944   C     0.75023   0.25000   0.97816   0.00000  Uiso   1.00
C945   C     0.54836   0.26260   0.79024   0.00000  Uiso   1.00
C946   C     0.95307   0.21385   0.85710   0.00000  Uiso   1.00
C947   C     0.95310   0.28714   0.80881   0.00000  Uiso   1.00
C948   C     0.83509   0.25007   0.83326   0.00000  Uiso   1.00
C949   C     0.54786   0.23844   0.87585   0.00000  Uiso   1.00
C950   C     0.59452   0.26197   0.78992   0.00000  Uiso   1.00
C951   C     0.90697   0.21383   0.85836   0.00000  Uiso   1.00
C952   C     0.90699   0.28686   0.80779   0.00000  Uiso   1.00
C953   C     0.59392   0.23690   0.87591   0.00000  Uiso   1.00
C954   C     0.61724   0.24936   0.83306   0.00000  Uiso   1.00
C955   C     0.88356   0.25026   0.83312   0.00000  Uiso   1.00
C956   C     0.52487   0.25075   0.83303   0.00000  Uiso   1.00
C957   C     0.97629   0.25060   0.83295   0.00000  Uiso   1.00
C958   C     0.63260   0.23203   0.71841   0.00000  Uiso   1.00
C959   C     0.77081   0.10511   0.87014   0.00000  Uiso   1.00
C960   C     0.87096   0.19258   0.93444   0.00000  Uiso   1.00
C961   C     0.87056   0.30844   0.73223   0.00000  Uiso   1.00
C962   C     0.62314   0.17345   0.92650   0.00000  Uiso   1.00
C963   C     0.82347   0.05099   0.93552   0.00000  Uiso   1.00
C964   C     0.84806   0.01442   0.96679   0.00000  Uiso   1.00
C965   C     0.65768   0.47985   0.88208   0.00000  Uiso   1.00
C966   C     0.61609   0.01053   0.88218   0.00000  Uiso   1.00
C967   C     0.73576   0.01926   0.71997   0.00000  Uiso   1.00
C968   C     0.70936   0.00120   0.67614   0.00000  Uiso   1.00
C969   C     0.84733   0.47702   0.78962   0.00000  Uiso   1.00
C970   C     0.71112   0.39572   0.83225   0.00000  Uiso   1.00
C971   C     0.89378   0.49776   0.79317   0.00000  Uiso   1.00
C972   C     0.72917   0.10455   0.79687   0.00000  Uiso   1.00
C973   C     0.78902   0.39562   0.83489   0.00000  Uiso   1.00
C974   C     0.77167   0.05369   0.87147   0.00000  Uiso   1.00
C975   C     0.71035   0.44662   0.83341   0.00000  Uiso   1.00
C976   C     0.72953   0.05378   0.79547   0.00000  Uiso   1.00
Cu977  Cu    0.75000   0.29821   0.83333   0.00000  Uiso   1.00
Cu978  Cu    0.75000   0.20178   0.83333   0.00000  Uiso   1.00
H979   H     0.78600   0.12619   0.89886   0.00000  Uiso   1.00
H980   H     0.65291   0.24419   0.68677   0.00000  Uiso   1.00
H981   H     0.65328   0.20800   0.74137   0.00000  Uiso   1.00
H982   H     0.60365   0.21137   0.70458   0.00000  Uiso   1.00
H983   H     0.90060   0.14474   0.88629   0.00000  Uiso   1.00
H984   H     0.90046   0.20053   0.95738   0.00000  Uiso   1.00
H985   H     0.85162   0.16327   0.95215   0.00000  Uiso   1.00
H986   H     0.84977   0.22517   0.93255   0.00000  Uiso   1.00
H987   H     0.90066   0.35609   0.78027   0.00000  Uiso   1.00
H988   H     0.84959   0.27555   0.73417   0.00000  Uiso   1.00
H989   H     0.85083   0.33768   0.71518   0.00000  Uiso   1.00
H990   H     0.67998   0.37672   0.83115   0.00000  Uiso   1.00
H991   H     0.89986   0.30106   0.70870   0.00000  Uiso   1.00
H992   H     0.60311   0.24063   0.95044   0.00000  Uiso   1.00
H993   H     0.59080   0.15521   0.93239   0.00000  Uiso   1.00
H994   H     0.64431   0.16726   0.95915   0.00000  Uiso   1.00
H995   H     0.63978   0.15728   0.89405   0.00000  Uiso   1.00
H996   H     0.80996   0.07904   0.96060   0.00000  Uiso   1.00
H997   H     0.84756   0.06726   0.90924   0.00000  Uiso   1.00
H998   H     0.86226   0.48576   0.94302   0.00000  Uiso   1.00
H999   H     0.82513   0.49770   0.99381   0.00000  Uiso   1.00
H1000  H     0.87526   0.03263   0.98699   0.00000  Uiso   1.00
H1001  H     0.71204   0.12419   0.76839   0.00000  Uiso   1.00
H1002  H     0.68385   0.00032   0.90198   0.00000  Uiso   1.00
H1003  H     0.65059   0.44562   0.90202   0.00000  Uiso   1.00
H1004  H     0.62253   0.04520   0.86299   0.00000  Uiso   1.00
H1005  H     0.60591   0.01829   0.92060   0.00000  Uiso   1.00
H1006  H     0.58885   0.49108   0.86325   0.00000  Uiso   1.00
H1007  H     0.75864   0.49001   0.73122   0.00000  Uiso   1.00
H1008  H     0.75521   0.05147   0.70808   0.00000  Uiso   1.00
H1009  H     0.68718   0.03013   0.99594   0.00000  Uiso   1.00
H1010  H     0.73222   0.49049   0.97946   0.00000  Uiso   1.00
H1011  H     0.68918   0.46937   0.68683   0.00000  Uiso   1.00
H1012  H     0.81998   0.37655   0.83665   0.00000  Uiso   1.00
H1013  H     0.82660   0.00337   0.76935   0.00000  Uiso   1.00
H1014  H     0.84906   0.44249   0.76862   0.00000  Uiso   1.00
H1015  H     0.90721   0.00415   0.75572   0.00000  Uiso   1.00
H1016  H     0.89311   0.03253   0.81350   0.00000  Uiso   1.00
H1017  H     0.91568   0.47209   0.81273   0.00000  Uiso   1.00
H1018  H     0.53091   0.27122   0.75668   0.00000  Uiso   1.00
H1019  H     0.97076   0.18519   0.87554   0.00000  Uiso   1.00
H1020  H     0.97084   0.31589   0.79031   0.00000  Uiso   1.00
H1021  H     0.53009   0.23011   0.90940   0.00000  Uiso   1.00
H1022  H     0.60194   0.29832   0.72416   0.00000  Uiso   1.00
N1023  N     0.75000   0.12934   0.83333   0.00000  Uiso   1.00
N1024  N     0.75000   0.37065   0.83333   0.00000  Uiso   1.00
N1025  N     0.61796   0.27361   0.74610   0.00000  Uiso   1.00
N1026  N     0.88448   0.17749   0.88576   0.00000  Uiso   1.00
N1027  N     0.88449   0.32327   0.78078   0.00000  Uiso   1.00
N1028  N     0.61678   0.22473   0.91973   0.00000  Uiso   1.00
O1029  O     0.68573   0.29071   0.83334   0.00000  Uiso   1.00
O1030  O     0.67016   0.47016   0.83306   0.00000  Uiso   1.00
O1031  O     0.70640   0.03044   0.75867   0.00000  Uiso   1.00
O1032  O     0.83054   0.46981   0.83744   0.00000  Uiso   1.00
O1033  O     0.81427   0.20928   0.83333   0.00000  Uiso   1.00
O1034  O     0.81427   0.29071   0.83333   0.00000  Uiso   1.00
O1035  O     0.68573   0.20928   0.83334   0.00000  Uiso   1.00
O1036  O     0.75000   0.29071   0.76280   0.00000  Uiso   1.00
O1037  O     0.75000   0.20929   0.90387   0.00000  Uiso   1.00
O1038  O     0.75000   0.29071   0.90387   0.00000  Uiso   1.00
O1039  O     0.75000   0.20929   0.76280   0.00000  Uiso   1.00
O1040  O     0.78863   0.02731   0.91077   0.00000  Uiso   1.00
C1041  C     0.16519   0.74988   0.83359   0.00000  Uiso   1.00
C1042  C     0.29021   0.94651   0.83416   0.00000  Uiso   1.00
C1043  C     0.25019   0.74998   0.74018   0.00000  Uiso   1.00
C1044  C     0.25002   0.75001   0.92649   0.00000  Uiso   1.00
C1045  C     0.25056   0.52759   0.83341   0.00000  Uiso   1.00
C1046  C     0.25037   0.97299   0.83357   0.00000  Uiso   1.00
C1047  C     0.25032   0.74996   0.68851   0.00000  Uiso   1.00
C1048  C     0.25023   0.75000   0.97816   0.00000  Uiso   1.00
C1049  C     0.04836   0.76260   0.79024   0.00000  Uiso   1.00
C1050  C     0.45307   0.71385   0.85710   0.00000  Uiso   1.00
C1051  C     0.45310   0.78714   0.80881   0.00000  Uiso   1.00
C1052  C     0.33509   0.75007   0.83326   0.00000  Uiso   1.00
C1053  C     0.04786   0.73844   0.87585   0.00000  Uiso   1.00
C1054  C     0.09452   0.76197   0.78992   0.00000  Uiso   1.00
C1055  C     0.40697   0.71383   0.85836   0.00000  Uiso   1.00
C1056  C     0.40699   0.78686   0.80779   0.00000  Uiso   1.00
C1057  C     0.09392   0.73690   0.87591   0.00000  Uiso   1.00
C1058  C     0.11724   0.74936   0.83306   0.00000  Uiso   1.00
C1059  C     0.38356   0.75026   0.83312   0.00000  Uiso   1.00
C1060  C     0.02487   0.75075   0.83303   0.00000  Uiso   1.00
C1061  C     0.47629   0.75060   0.83295   0.00000  Uiso   1.00
C1062  C     0.13260   0.73203   0.71841   0.00000  Uiso   1.00
C1063  C     0.27081   0.60511   0.87014   0.00000  Uiso   1.00
C1064  C     0.37096   0.69258   0.93444   0.00000  Uiso   1.00
C1065  C     0.37056   0.80844   0.73223   0.00000  Uiso   1.00
C1066  C     0.12314   0.67345   0.92650   0.00000  Uiso   1.00
C1067  C     0.32347   0.55099   0.93552   0.00000  Uiso   1.00
C1068  C     0.34806   0.51442   0.96679   0.00000  Uiso   1.00
C1069  C     0.15768   0.97985   0.88208   0.00000  Uiso   1.00
C1070  C     0.11609   0.51053   0.88218   0.00000  Uiso   1.00
C1071  C     0.23576   0.51926   0.71997   0.00000  Uiso   1.00
C1072  C     0.20936   0.50120   0.67614   0.00000  Uiso   1.00
C1073  C     0.34733   0.97702   0.78962   0.00000  Uiso   1.00
C1074  C     0.21112   0.89572   0.83225   0.00000  Uiso   1.00
C1075  C     0.39378   0.99776   0.79317   0.00000  Uiso   1.00
C1076  C     0.22917   0.60455   0.79687   0.00000  Uiso   1.00
C1077  C     0.28902   0.89562   0.83489   0.00000  Uiso   1.00
C1078  C     0.27167   0.55369   0.87147   0.00000  Uiso   1.00
C1079  C     0.21035   0.94662   0.83341   0.00000  Uiso   1.00
C1080  C     0.22953   0.55378   0.79547   0.00000  Uiso   1.00
Cu1081 Cu    0.25000   0.79821   0.83333   0.00000  Uiso   1.00
Cu1082 Cu    0.25000   0.70178   0.83333   0.00000  Uiso   1.00
H1083  H     0.28600   0.62619   0.89886   0.00000  Uiso   1.00
H1084  H     0.15291   0.74419   0.68677   0.00000  Uiso   1.00
H1085  H     0.15328   0.70800   0.74137   0.00000  Uiso   1.00
H1086  H     0.10365   0.71137   0.70458   0.00000  Uiso   1.00
H1087  H     0.40060   0.64474   0.88629   0.00000  Uiso   1.00
H1088  H     0.40046   0.70053   0.95738   0.00000  Uiso   1.00
H1089  H     0.35162   0.66327   0.95215   0.00000  Uiso   1.00
H1090  H     0.34977   0.72517   0.93255   0.00000  Uiso   1.00
H1091  H     0.40066   0.85609   0.78027   0.00000  Uiso   1.00
H1092  H     0.34959   0.77555   0.73417   0.00000  Uiso   1.00
H1093  H     0.35083   0.83768   0.71518   0.00000  Uiso   1.00
H1094  H     0.17998   0.87672   0.83115   0.00000  Uiso   1.00
H1095  H     0.39986   0.80106   0.70870   0.00000  Uiso   1.00
H1096  H     0.10311   0.74063   0.95044   0.00000  Uiso   1.00
H1097  H     0.09080   0.65521   0.93239   0.00000  Uiso   1.00
H1098  H     0.14431   0.66726   0.95915   0.00000  Uiso   1.00
H1099  H     0.13978   0.65728   0.89405   0.00000  Uiso   1.00
H1100  H     0.30996   0.57904   0.96060   0.00000  Uiso   1.00
H1101  H     0.34756   0.56726   0.90924   0.00000  Uiso   1.00
H1102  H     0.36226   0.98576   0.94302   0.00000  Uiso   1.00
H1103  H     0.32513   0.99770   0.99381   0.00000  Uiso   1.00
H1104  H     0.37526   0.53263   0.98699   0.00000  Uiso   1.00
H1105  H     0.21204   0.62419   0.76839   0.00000  Uiso   1.00
H1106  H     0.18385   0.50032   0.90198   0.00000  Uiso   1.00
H1107  H     0.15059   0.94562   0.90202   0.00000  Uiso   1.00
H1108  H     0.12253   0.54520   0.86299   0.00000  Uiso   1.00
H1109  H     0.10591   0.51829   0.92060   0.00000  Uiso   1.00
H1110  H     0.08885   0.99108   0.86325   0.00000  Uiso   1.00
H1111  H     0.25864   0.99001   0.73122   0.00000  Uiso   1.00
H1112  H     0.25521   0.55147   0.70808   0.00000  Uiso   1.00
H1113  H     0.18718   0.53013   0.99594   0.00000  Uiso   1.00
H1114  H     0.23222   0.99049   0.97946   0.00000  Uiso   1.00
H1115  H     0.18918   0.96937   0.68683   0.00000  Uiso   1.00
H1116  H     0.31998   0.87655   0.83665   0.00000  Uiso   1.00
H1117  H     0.32660   0.50337   0.76935   0.00000  Uiso   1.00
H1118  H     0.34906   0.94249   0.76862   0.00000  Uiso   1.00
H1119  H     0.40721   0.50415   0.75572   0.00000  Uiso   1.00
H1120  H     0.39311   0.53253   0.81350   0.00000  Uiso   1.00
H1121  H     0.41568   0.97209   0.81273   0.00000  Uiso   1.00
H1122  H     0.03091   0.77122   0.75668   0.00000  Uiso   1.00
H1123  H     0.47076   0.68519   0.87554   0.00000  Uiso   1.00
H1124  H     0.47084   0.81589   0.79031   0.00000  Uiso   1.00
H1125  H     0.03009   0.73011   0.90940   0.00000  Uiso   1.00
H1126  H     0.10194   0.79832   0.72416   0.00000  Uiso   1.00
N1127  N     0.25000   0.62934   0.83333   0.00000  Uiso   1.00
N1128  N     0.25000   0.87065   0.83333   0.00000  Uiso   1.00
N1129  N     0.11796   0.77361   0.74610   0.00000  Uiso   1.00
N1130  N     0.38448   0.67749   0.88576   0.00000  Uiso   1.00
N1131  N     0.38449   0.82327   0.78078   0.00000  Uiso   1.00
N1132  N     0.11678   0.72473   0.91973   0.00000  Uiso   1.00
O1133  O     0.18573   0.79071   0.83334   0.00000  Uiso   1.00
O1134  O     0.17016   0.97016   0.83306   0.00000  Uiso   1.00
O1135  O     0.20640   0.53044   0.75867   0.00000  Uiso   1.00
O1136  O     0.33054   0.96981   0.83744   0.00000  Uiso   1.00
O1137  O     0.31427   0.70928   0.83333   0.00000  Uiso   1.00
O1138  O     0.31427   0.79071   0.83333   0.00000  Uiso   1.00
O1139  O     0.18573   0.70928   0.83334   0.00000  Uiso   1.00
O1140  O     0.25000   0.79071   0.76280   0.00000  Uiso   1.00
O1141  O     0.25000   0.70929   0.90387   0.00000  Uiso   1.00
O1142  O     0.25000   0.79071   0.90387   0.00000  Uiso   1.00
O1143  O     0.25000   0.70929   0.76280   0.00000  Uiso   1.00
O1144  O     0.28863   0.52731   0.91077   0.00000  Uiso   1.00
C1145  C     0.66519   0.74988   0.83359   0.00000  Uiso   1.00
C1146  C     0.79021   0.94651   0.83416   0.00000  Uiso   1.00
C1147  C     0.75019   0.74998   0.74018   0.00000  Uiso   1.00
C1148  C     0.75002   0.75001   0.92649   0.00000  Uiso   1.00
C1149  C     0.75056   0.52759   0.83341   0.00000  Uiso   1.00
C1150  C     0.75037   0.97299   0.83357   0.00000  Uiso   1.00
C1151  C     0.75032   0.74996   0.68851   0.00000  Uiso   1.00
C1152  C     0.75023   0.75000   0.97816   0.00000  Uiso   1.00
C1153  C     0.54836   0.76260   0.79024   0.00000  Uiso   1.00
C1154  C     0.95307   0.71385   0.85710   0.00000  Uiso   1.00
C1155  C     0.95310   0.78714   0.80881   0.00000  Uiso   1.00
C1156  C     0.83509   0.75007   0.83326   0.00000  Uiso   1.00
C1157  C     0.54786   0.73844   0.87585   0.00000  Uiso   1.00
C1158  C     0.59452   0.76197   0.78992   0.00000  Uiso   1.00
C1159  C     0.90697   0.71383   0.85836   0.00000  Uiso   1.00
C1160  C     0.90699   0.78686   0.80779   0.00000  Uiso   1.00
C1161  C     0.59392   0.73690   0.87591   0.00000  Uiso   1.00
C1162  C     0.61724   0.74936   0.83306   0.00000  Uiso   1.00
C1163  C     0.88356   0.75026   0.83312   0.00000  Uiso   1.00
C1164  C     0.52487   0.75075   0.83303   0.00000  Uiso   1.00
C1165  C     0.97629   0.75060   0.83295   0.00000  Uiso   1.00
C1166  C     0.63260   0.73203   0.71841   0.00000  Uiso   1.00
C1167  C     0.77081   0.60511   0.87014   0.00000  Uiso   1.00
C1168  C     0.87096   0.69258   0.93444   0.00000  Uiso   1.00
C1169  C     0.87056   0.80844   0.73223   0.00000  Uiso   1.00
C1170  C     0.62314   0.67345   0.92650   0.00000  Uiso   1.00
C1171  C     0.82347   0.55099   0.93552   0.00000  Uiso   1.00
C1172  C     0.84806   0.51442   0.96679   0.00000  Uiso   1.00
C1173  C     0.65768   0.97985   0.88208   0.00000  Uiso   1.00
C1174  C     0.61609   0.51053   0.88218   0.00000  Uiso   1.00
C1175  C     0.73576   0.51926   0.71997   0.00000  Uiso   1.00
C1176  C     0.70936   0.50120   0.67614   0.00000  Uiso   1.00
C1177  C     0.84733   0.97702   0.78962   0.00000  Uiso   1.00
C1178  C     0.71112   0.89572   0.83225   0.00000  Uiso   1.00
C1179  C     0.89378   0.99776   0.79317   0.00000  Uiso   1.00
C1180  C     0.72917   0.60455   0.79687   0.00000  Uiso   1.00
C1181  C     0.78902   0.89562   0.83489   0.00000  Uiso   1.00
C1182  C     0.77167   0.55369   0.87147   0.00000  Uiso   1.00
C1183  C     0.71035   0.94662   0.83341   0.00000  Uiso   1.00
C1184  C     0.72953   0.55378   0.79547   0.00000  Uiso   1.00
Cu1185 Cu    0.75000   0.79821   0.83333   0.00000  Uiso   1.00
Cu1186 Cu    0.75000   0.70178   0.83333   0.00000  Uiso   1.00
H1187  H     0.78600   0.62619   0.89886   0.00000  Uiso   1.00
H1188  H     0.65291   0.74419   0.68677   0.00000  Uiso   1.00
H1189  H     0.65328   0.70800   0.74137   0.00000  Uiso   1.00
H1190  H     0.60365   0.71137   0.70458   0.00000  Uiso   1.00
H1191  H     0.90060   0.64474   0.88629   0.00000  Uiso   1.00
H1192  H     0.90046   0.70053   0.95738   0.00000  Uiso   1.00
H1193  H     0.85162   0.66327   0.95215   0.00000  Uiso   1.00
H1194  H     0.84977   0.72517   0.93255   0.00000  Uiso   1.00
H1195  H     0.90066   0.85609   0.78027   0.00000  Uiso   1.00
H1196  H     0.84959   0.77555   0.73417   0.00000  Uiso   1.00
H1197  H     0.85083   0.83768   0.71518   0.00000  Uiso   1.00
H1198  H     0.67998   0.87672   0.83115   0.00000  Uiso   1.00
H1199  H     0.89986   0.80106   0.70870   0.00000  Uiso   1.00
H1200  H     0.60311   0.74063   0.95044   0.00000  Uiso   1.00
H1201  H     0.59080   0.65521   0.93239   0.00000  Uiso   1.00
H1202  H     0.64431   0.66726   0.95915   0.00000  Uiso   1.00
H1203  H     0.63978   0.65728   0.89405   0.00000  Uiso   1.00
H1204  H     0.80996   0.57904   0.96060   0.00000  Uiso   1.00
H1205  H     0.84756   0.56726   0.90924   0.00000  Uiso   1.00
H1206  H     0.86226   0.98576   0.94302   0.00000  Uiso   1.00
H1207  H     0.82513   0.99770   0.99381   0.00000  Uiso   1.00
H1208  H     0.87526   0.53263   0.98699   0.00000  Uiso   1.00
H1209  H     0.71204   0.62419   0.76839   0.00000  Uiso   1.00
H1210  H     0.68385   0.50032   0.90198   0.00000  Uiso   1.00
H1211  H     0.65059   0.94562   0.90202   0.00000  Uiso   1.00
H1212  H     0.62253   0.54520   0.86299   0.00000  Uiso   1.00
H1213  H     0.60591   0.51829   0.92060   0.00000  Uiso   1.00
H1214  H     0.58885   0.99108   0.86325   0.00000  Uiso   1.00
H1215  H     0.75864   0.99001   0.73122   0.00000  Uiso   1.00
H1216  H     0.75521   0.55147   0.70808   0.00000  Uiso   1.00
H1217  H     0.68718   0.53013   0.99594   0.00000  Uiso   1.00
H1218  H     0.73222   0.99049   0.97946   0.00000  Uiso   1.00
H1219  H     0.68918   0.96937   0.68683   0.00000  Uiso   1.00
H1220  H     0.81998   0.87655   0.83665   0.00000  Uiso   1.00
H1221  H     0.82660   0.50337   0.76935   0.00000  Uiso   1.00
H1222  H     0.84906   0.94249   0.76862   0.00000  Uiso   1.00
H1223  H     0.90721   0.50415   0.75572   0.00000  Uiso   1.00
H1224  H     0.89311   0.53253   0.81350   0.00000  Uiso   1.00
H1225  H     0.91568   0.97209   0.81273   0.00000  Uiso   1.00
H1226  H     0.53091   0.77122   0.75668   0.00000  Uiso   1.00
H1227  H     0.97076   0.68519   0.87554   0.00000  Uiso   1.00
H1228  H     0.97084   0.81589   0.79031   0.00000  Uiso   1.00
H1229  H     0.53009   0.73011   0.90940   0.00000  Uiso   1.00
H1230  H     0.60194   0.79832   0.72416   0.00000  Uiso   1.00
N1231  N     0.75000   0.62934   0.83333   0.00000  Uiso   1.00
N1232  N     0.75000   0.87065   0.83333   0.00000  Uiso   1.00
N1233  N     0.61796   0.77361   0.74610   0.00000  Uiso   1.00
N1234  N     0.88448   0.67749   0.88576   0.00000  Uiso   1.00
N1235  N     0.88449   0.82327   0.78078   0.00000  Uiso   1.00
N1236  N     0.61678   0.72473   0.91973   0.00000  Uiso   1.00
O1237  O     0.68573   0.79071   0.83334   0.00000  Uiso   1.00
O1238  O     0.67016   0.97016   0.83306   0.00000  Uiso   1.00
O1239  O     0.70640   0.53044   0.75867   0.00000  Uiso   1.00
O1240  O     0.83054   0.96981   0.83744   0.00000  Uiso   1.00
O1241  O     0.81427   0.70928   0.83333   0.00000  Uiso   1.00
O1242  O     0.81427   0.79071   0.83333   0.00000  Uiso   1.00
O1243  O     0.68573   0.70928   0.83334   0.00000  Uiso   1.00
O1244  O     0.75000   0.79071   0.76280   0.00000  Uiso   1.00
O1245  O     0.75000   0.70929   0.90387   0.00000  Uiso   1.00
O1246  O     0.75000   0.79071   0.90387   0.00000  Uiso   1.00
O1247  O     0.75000   0.70929   0.76280   0.00000  Uiso   1.00
O1248  O     0.78863   0.52731   0.91077   0.00000  Uiso   1.00
loop_
_geom_bond_atom_site_label_1
_geom_bond_atom_site_label_2
_geom_bond_distance
_geom_bond_site_symmetry_2
_ccdc_geom_bond_type
C1     O99     1.287   .     A
C1     C18     1.451   .     S
C1     O93     1.290   .     A
C2     C6      1.413   .     A
C2     O96     1.382   .     S
C2     C37     1.411   .     A
C3     C7      1.406   .     S
C3     O100    1.285   .     A
C3     O103    1.286   .     A
C4     C8      1.406   .     S
C4     O102    1.286   .     A
C4     O101    1.285   .     A
C5     C38     1.415   .     A
C5     C40     1.416   .     A
C5     C214    1.513   1_545 S
C6     C39     1.413   .     A
C6     C213    1.513   .     S
C7     C840    1.189   1_554 S
C8     C423    1.189   .     S
C9     H82     1.083   .     S
C9     C14     1.396   .     A
C9     C20     1.402   .     A
C10    C21     1.400   .     A
C10    H83     1.084   .     S
C10    C15     1.395   .     A
C11    C21     1.399   .     A
C11    C16     1.395   .     A
C11    H84     1.083   .     S
C12    O98     1.292   .     A
C12    O97     1.293   .     A
C12    C19     1.466   .     S
C13    C20     1.401   .     A
C13    C17     1.394   .     A
C13    H85     1.084   .     S
C14    C18     1.407   .     A
C14    N89     1.423   .     S
C15    C19     1.415   .     A
C15    N90     1.425   .     S
C16    C19     1.415   .     A
C16    N91     1.425   .     S
C17    N92     1.421   .     S
C17    C18     1.405   .     A
C20    C125    1.470   1_455 S
C21    C124    1.470   .     S
C22    H44     1.109   .     S
C22    H46     1.111   .     S
C22    N89     1.446   .     S
C22    H45     1.109   .     S
C23    H43     1.078   .     S
C23    N87     1.363   .     A
C23    C38     1.426   .     A
C24    H50     1.111   .     S
C24    H48     1.112   .     S
C24    H49     1.110   .     S
C24    N90     1.447   .     S
C25    H53     1.110   .     S
C25    N91     1.447   .     S
C25    H55     1.112   .     S
C25    H52     1.111   .     S
C26    N92     1.447   .     S
C26    H59     1.110   .     S
C26    H58     1.110   .     S
C26    H57     1.112   .     S
C27    H60     1.112   .     S
C27    O104    1.412   .     S
C27    H61     1.115   .     S
C27    C28     1.521   .     S
C28    H64     1.111   .     S
C28    H270    1.111   1_545 S
C28    H271    1.111   1_545 S
C29    O94     1.412   .     S
C29    H67     1.114   .     S
C29    C238    1.520   .     S
C29    H274    1.114   .     S
C30    H69     1.111   .     S
C30    H68     1.111   .     S
C30    C237    1.520   1_545 S
C30    H278    1.111   1_545 S
C31    C32     1.520   .     S
C31    H72     1.116   .     S
C31    O95     1.411   .     S
C31    H279    1.111   1_545 S
C32    H905    1.111   1_554 S
C32    H1114   1.110   1_544 S
C32    H283    1.111   1_545 S
C33    O96     1.410   .     S
C33    H78     1.115   .     S
C33    C35     1.520   .     S
C33    H285    1.112   .     S
C34    C39     1.412   .     A
C34    N88     1.368   .     A
C34    H54     1.079   .     S
C35    H81     1.111   .     S
C35    H287    1.111   .     S
C35    H288    1.111   .     S
C36    N87     1.361   .     A
C36    C40     1.408   .     A
C36    H65     1.082   .     S
C37    N88     1.367   .     A
C37    H76     1.078   .     S
C38    O104    1.396   .     S
C39    O94     1.381   .     S
C40    O95     1.382   .     S
Cu41   Cu42    2.673   .     S
Cu41   O102    1.931   .     S
Cu41   O93     1.955   .     S
Cu41   O100    1.931   .     S
Cu41   N88     2.008   .     S
Cu41   O98     1.956   .     S
Cu42   O103    1.931   .     S
Cu42   O97     1.955   .     S
Cu42   O101    1.931   .     S
Cu42   O99     1.956   .     S
Cu42   N87     2.008   .     S
H47    N90     1.032   .     S
H51    N91     1.032   .     S
H56    N92     1.031   .     S
H62    C236    1.111   .     S
H63    C236    1.111   .     S
H66    C237    1.114   1_545 S
H70    C238    1.111   .     S
H71    C239    1.111   .     S
H73    C448    1.111   .     S
H74    C656    1.110   .     S
H75    C240    1.111   .     S
H77    C241    1.112   1_545 S
H79    C243    1.111   1_545 S
H80    C243    1.111   1_545 S
H86    N89     1.032   .     S
C105   O203    1.287   .     A
C105   C122    1.451   .     S
C105   O197    1.290   .     A
C106   C110    1.413   .     A
C106   O200    1.382   .     S
C106   C141    1.411   .     A
C107   C111    1.406   .     S
C107   O204    1.285   .     A
C107   O207    1.286   .     A
C108   C112    1.406   .     S
C108   O206    1.286   .     A
C108   O205    1.285   .     A
C109   C142    1.415   .     A
C109   C144    1.416   .     A
C109   C318    1.513   1_545 S
C110   C143    1.413   .     A
C110   C317    1.513   .     S
C111   C944    1.189   1_554 S
C112   C527    1.189   .     S
C113   H186    1.083   .     S
C113   C118    1.396   .     A
C113   C124    1.402   .     A
C114   C125    1.400   .     A
C114   H187    1.084   .     S
C114   C119    1.395   .     A
C115   C125    1.399   .     A
C115   C120    1.395   .     A
C115   H188    1.083   .     S
C116   O202    1.292   .     A
C116   O201    1.293   .     A
C116   C123    1.466   .     S
C117   C124    1.401   .     A
C117   C121    1.394   .     A
C117   H189    1.084   .     S
C118   C122    1.407   .     A
C118   N193    1.423   .     S
C119   C123    1.415   .     A
C119   N194    1.425   .     S
C120   C123    1.415   .     A
C120   N195    1.425   .     S
C121   N196    1.421   .     S
C121   C122    1.405   .     A
C125   C20     1.470   1_655 S
C126   H148    1.109   .     S
C126   H150    1.111   .     S
C126   N193    1.446   .     S
C126   H149    1.109   .     S
C127   H147    1.078   .     S
C127   N191    1.363   .     A
C127   C142    1.426   .     A
C128   H154    1.111   .     S
C128   H152    1.112   .     S
C128   H153    1.110   .     S
C128   N194    1.447   .     S
C129   H157    1.110   .     S
C129   N195    1.447   .     S
C129   H159    1.112   .     S
C129   H156    1.111   .     S
C130   N196    1.447   .     S
C130   H163    1.110   .     S
C130   H162    1.110   .     S
C130   H161    1.112   .     S
C131   H164    1.112   .     S
C131   O208    1.412   .     S
C131   H165    1.115   .     S
C131   C132    1.521   .     S
C132   H168    1.111   .     S
C132   H374    1.111   1_545 S
C132   H375    1.111   1_545 S
C133   O198    1.412   .     S
C133   H171    1.114   .     S
C133   C342    1.520   .     S
C133   H378    1.114   .     S
C134   H173    1.111   .     S
C134   H172    1.111   .     S
C134   C341    1.520   1_545 S
C134   H382    1.111   1_545 S
C135   C136    1.520   .     S
C135   H176    1.116   .     S
C135   O199    1.411   .     S
C135   H383    1.111   1_545 S
C136   H1009   1.111   1_554 S
C136   H1218   1.110   1_544 S
C136   H387    1.111   1_545 S
C137   O200    1.410   .     S
C137   H182    1.115   .     S
C137   C139    1.520   .     S
C137   H389    1.112   .     S
C138   C143    1.412   .     A
C138   N192    1.368   .     A
C138   H158    1.079   .     S
C139   H185    1.111   .     S
C139   H391    1.111   .     S
C139   H392    1.111   .     S
C140   N191    1.361   .     A
C140   C144    1.408   .     A
C140   H169    1.082   .     S
C141   N192    1.367   .     A
C141   H180    1.078   .     S
C142   O208    1.396   .     S
C143   O198    1.381   .     S
C144   O199    1.382   .     S
Cu145  Cu146   2.673   .     S
Cu145  O206    1.931   .     S
Cu145  O197    1.955   .     S
Cu145  O204    1.931   .     S
Cu145  N192    2.008   .     S
Cu145  O202    1.956   .     S
Cu146  O207    1.931   .     S
Cu146  O201    1.955   .     S
Cu146  O205    1.931   .     S
Cu146  O203    1.956   .     S
Cu146  N191    2.008   .     S
H151   N194    1.032   .     S
H155   N195    1.032   .     S
H160   N196    1.031   .     S
H166   C340    1.111   .     S
H167   C340    1.111   .     S
H170   C341    1.114   1_545 S
H174   C342    1.111   .     S
H175   C343    1.111   .     S
H177   C552    1.111   .     S
H178   C760    1.110   .     S
H179   C344    1.111   .     S
H181   C345    1.112   1_545 S
H183   C347    1.111   1_545 S
H184   C347    1.111   1_545 S
H190   N193    1.032   .     S
C209   O307    1.287   .     A
C209   C226    1.451   .     S
C209   O301    1.290   .     A
C210   C214    1.413   .     A
C210   O304    1.382   .     S
C210   C245    1.411   .     A
C211   C215    1.406   .     S
C211   O308    1.285   .     A
C211   O311    1.286   .     A
C212   C216    1.406   .     S
C212   O310    1.286   .     A
C212   O309    1.285   .     A
C213   C246    1.415   .     A
C213   C248    1.416   .     A
C214   C247    1.413   .     A
C214   C5      1.513   1_565 S
C215   C1048   1.189   1_554 S
C216   C631    1.189   .     S
C217   H290    1.083   .     S
C217   C222    1.396   .     A
C217   C228    1.402   .     A
C218   C229    1.400   .     A
C218   H291    1.084   .     S
C218   C223    1.395   .     A
C219   C229    1.399   .     A
C219   C224    1.395   .     A
C219   H292    1.083   .     S
C220   O306    1.292   .     A
C220   O305    1.293   .     A
C220   C227    1.466   .     S
C221   C228    1.401   .     A
C221   C225    1.394   .     A
C221   H293    1.084   .     S
C222   C226    1.407   .     A
C222   N297    1.423   .     S
C223   C227    1.415   .     A
C223   N298    1.425   .     S
C224   C227    1.415   .     A
C224   N299    1.425   .     S
C225   N300    1.421   .     S
C225   C226    1.405   .     A
C228   C333    1.470   1_455 S
C229   C332    1.470   .     S
C230   H252    1.109   .     S
C230   H254    1.111   .     S
C230   N297    1.446   .     S
C230   H253    1.109   .     S
C231   H251    1.078   .     S
C231   N295    1.363   .     A
C231   C246    1.426   .     A
C232   H258    1.111   .     S
C232   H256    1.112   .     S
C232   H257    1.110   .     S
C232   N298    1.447   .     S
C233   H261    1.110   .     S
C233   N299    1.447   .     S
C233   H263    1.112   .     S
C233   H260    1.111   .     S
C234   N300    1.447   .     S
C234   H267    1.110   .     S
C234   H266    1.110   .     S
C234   H265    1.112   .     S
C235   H268    1.112   .     S
C235   O312    1.412   .     S
C235   H269    1.115   .     S
C235   C236    1.521   .     S
C236   H272    1.111   .     S
C237   O302    1.412   .     S
C237   H275    1.114   .     S
C237   C30     1.520   1_565 S
C237   H66     1.114   1_565 S
C238   H277    1.111   .     S
C238   H276    1.111   .     S
C239   C240    1.520   .     S
C239   H280    1.116   .     S
C239   O303    1.411   .     S
C240   H1113   1.111   1_554 S
C240   H906    1.110   1_554 S
C241   O304    1.410   .     S
C241   H286    1.115   .     S
C241   C243    1.520   .     S
C241   H77     1.112   1_565 S
C242   C247    1.412   .     A
C242   N296    1.368   .     A
C242   H262    1.079   .     S
C243   H289    1.111   .     S
C243   H79     1.111   1_565 S
C243   H80     1.111   1_565 S
C244   N295    1.361   .     A
C244   C248    1.408   .     A
C244   H273    1.082   .     S
C245   N296    1.367   .     A
C245   H284    1.078   .     S
C246   O312    1.396   .     S
C247   O302    1.381   .     S
C248   O303    1.382   .     S
Cu249  Cu250   2.673   .     S
Cu249  O310    1.931   .     S
Cu249  O301    1.955   .     S
Cu249  O308    1.931   .     S
Cu249  N296    2.008   .     S
Cu249  O306    1.956   .     S
Cu250  O311    1.931   .     S
Cu250  O305    1.955   .     S
Cu250  O309    1.931   .     S
Cu250  O307    1.956   .     S
Cu250  N295    2.008   .     S
H255   N298    1.032   .     S
H259   N299    1.032   .     S
H264   N300    1.031   .     S
H270   C28     1.111   1_565 S
H271   C28     1.111   1_565 S
H278   C30     1.111   1_565 S
H279   C31     1.111   1_565 S
H281   C656    1.111   .     S
H282   C448    1.110   1_565 S
H283   C32     1.111   1_565 S
H294   N297    1.032   .     S
C313   O411    1.287   .     A
C313   C330    1.451   .     S
C313   O405    1.290   .     A
C314   C318    1.413   .     A
C314   O408    1.382   .     S
C314   C349    1.411   .     A
C315   C319    1.406   .     S
C315   O412    1.285   .     A
C315   O415    1.286   .     A
C316   C320    1.406   .     S
C316   O414    1.286   .     A
C316   O413    1.285   .     A
C317   C350    1.415   .     A
C317   C352    1.416   .     A
C318   C351    1.413   .     A
C318   C109    1.513   1_565 S
C319   C1152   1.189   1_554 S
C320   C735    1.189   .     S
C321   H394    1.083   .     S
C321   C326    1.396   .     A
C321   C332    1.402   .     A
C322   C333    1.400   .     A
C322   H395    1.084   .     S
C322   C327    1.395   .     A
C323   C333    1.399   .     A
C323   C328    1.395   .     A
C323   H396    1.083   .     S
C324   O410    1.292   .     A
C324   O409    1.293   .     A
C324   C331    1.466   .     S
C325   C332    1.401   .     A
C325   C329    1.394   .     A
C325   H397    1.084   .     S
C326   C330    1.407   .     A
C326   N401    1.423   .     S
C327   C331    1.415   .     A
C327   N402    1.425   .     S
C328   C331    1.415   .     A
C328   N403    1.425   .     S
C329   N404    1.421   .     S
C329   C330    1.405   .     A
C333   C228    1.470   1_655 S
C334   H356    1.109   .     S
C334   H358    1.111   .     S
C334   N401    1.446   .     S
C334   H357    1.109   .     S
C335   H355    1.078   .     S
C335   N399    1.363   .     A
C335   C350    1.426   .     A
C336   H362    1.111   .     S
C336   H360    1.112   .     S
C336   H361    1.110   .     S
C336   N402    1.447   .     S
C337   H365    1.110   .     S
C337   N403    1.447   .     S
C337   H367    1.112   .     S
C337   H364    1.111   .     S
C338   N404    1.447   .     S
C338   H371    1.110   .     S
C338   H370    1.110   .     S
C338   H369    1.112   .     S
C339   H372    1.112   .     S
C339   O416    1.412   .     S
C339   H373    1.115   .     S
C339   C340    1.521   .     S
C340   H376    1.111   .     S
C341   O406    1.412   .     S
C341   H379    1.114   .     S
C341   C134    1.520   1_565 S
C341   H170    1.114   1_565 S
C342   H381    1.111   .     S
C342   H380    1.111   .     S
C343   C344    1.520   .     S
C343   H384    1.116   .     S
C343   O407    1.411   .     S
C344   H1217   1.111   1_554 S
C344   H1010   1.110   1_554 S
C345   O408    1.410   .     S
C345   H390    1.115   .     S
C345   C347    1.520   .     S
C345   H181    1.112   1_565 S
C346   C351    1.412   .     A
C346   N400    1.368   .     A
C346   H366    1.079   .     S
C347   H393    1.111   .     S
C347   H183    1.111   1_565 S
C347   H184    1.111   1_565 S
C348   N399    1.361   .     A
C348   C352    1.408   .     A
C348   H377    1.082   .     S
C349   N400    1.367   .     A
C349   H388    1.078   .     S
C350   O416    1.396   .     S
C351   O406    1.381   .     S
C352   O407    1.382   .     S
Cu353  Cu354   2.673   .     S
Cu353  O414    1.931   .     S
Cu353  O405    1.955   .     S
Cu353  O412    1.931   .     S
Cu353  N400    2.008   .     S
Cu353  O410    1.956   .     S
Cu354  O415    1.931   .     S
Cu354  O409    1.955   .     S
Cu354  O413    1.931   .     S
Cu354  O411    1.956   .     S
Cu354  N399    2.008   .     S
H359   N402    1.032   .     S
H363   N403    1.032   .     S
H368   N404    1.031   .     S
H374   C132    1.111   1_565 S
H375   C132    1.111   1_565 S
H382   C134    1.111   1_565 S
H383   C135    1.111   1_565 S
H385   C760    1.111   .     S
H386   C552    1.110   1_565 S
H387   C136    1.111   1_565 S
H398   N401    1.032   .     S
C417   O515    1.287   .     A
C417   C434    1.451   .     S
C417   O509    1.290   .     A
C418   C422    1.413   .     A
C418   O512    1.382   .     S
C418   C453    1.411   .     A
C419   C423    1.406   .     S
C419   O516    1.285   .     A
C419   O519    1.286   .     A
C420   C424    1.406   .     S
C420   O518    1.286   .     A
C420   O517    1.285   .     A
C421   C454    1.415   .     A
C421   C456    1.416   .     A
C421   C630    1.513   1_545 S
C422   C455    1.413   .     A
C422   C629    1.513   .     S
C424   C839    1.189   .     S
C425   H498    1.083   .     S
C425   C430    1.396   .     A
C425   C436    1.402   .     A
C426   C437    1.400   .     A
C426   H499    1.084   .     S
C426   C431    1.395   .     A
C427   C437    1.399   .     A
C427   C432    1.395   .     A
C427   H500    1.083   .     S
C428   O514    1.292   .     A
C428   O513    1.293   .     A
C428   C435    1.466   .     S
C429   C436    1.401   .     A
C429   C433    1.394   .     A
C429   H501    1.084   .     S
C430   C434    1.407   .     A
C430   N505    1.423   .     S
C431   C435    1.415   .     A
C431   N506    1.425   .     S
C432   C435    1.415   .     A
C432   N507    1.425   .     S
C433   N508    1.421   .     S
C433   C434    1.405   .     A
C436   C541    1.470   1_455 S
C437   C540    1.470   .     S
C438   H460    1.109   .     S
C438   H462    1.111   .     S
C438   N505    1.446   .     S
C438   H461    1.109   .     S
C439   H459    1.078   .     S
C439   N503    1.363   .     A
C439   C454    1.426   .     A
C440   H466    1.111   .     S
C440   H464    1.112   .     S
C440   H465    1.110   .     S
C440   N506    1.447   .     S
C441   H469    1.110   .     S
C441   N507    1.447   .     S
C441   H471    1.112   .     S
C441   H468    1.111   .     S
C442   N508    1.447   .     S
C442   H475    1.110   .     S
C442   H474    1.110   .     S
C442   H473    1.112   .     S
C443   H476    1.112   .     S
C443   O520    1.412   .     S
C443   H477    1.115   .     S
C443   C444    1.521   .     S
C444   H480    1.111   .     S
C444   H686    1.111   1_545 S
C444   H687    1.111   1_545 S
C445   O510    1.412   .     S
C445   H483    1.114   .     S
C445   C654    1.520   .     S
C445   H690    1.114   .     S
C446   H485    1.111   .     S
C446   H484    1.111   .     S
C446   C653    1.520   1_545 S
C446   H694    1.111   1_545 S
C447   C448    1.520   .     S
C447   H488    1.116   .     S
C447   O511    1.411   .     S
C447   H695    1.111   1_545 S
C448   H282    1.110   1_545 S
C448   H699    1.111   1_545 S
C449   O512    1.410   .     S
C449   H494    1.115   .     S
C449   C451    1.520   .     S
C449   H701    1.112   .     S
C450   C455    1.412   .     A
C450   N504    1.368   .     A
C450   H470    1.079   .     S
C451   H497    1.111   .     S
C451   H703    1.111   .     S
C451   H704    1.111   .     S
C452   N503    1.361   .     A
C452   C456    1.408   .     A
C452   H481    1.082   .     S
C453   N504    1.367   .     A
C453   H492    1.078   .     S
C454   O520    1.396   .     S
C455   O510    1.381   .     S
C456   O511    1.382   .     S
Cu457  Cu458   2.673   .     S
Cu457  O518    1.931   .     S
Cu457  O509    1.955   .     S
Cu457  O516    1.931   .     S
Cu457  N504    2.008   .     S
Cu457  O514    1.956   .     S
Cu458  O519    1.931   .     S
Cu458  O513    1.955   .     S
Cu458  O517    1.931   .     S
Cu458  O515    1.956   .     S
Cu458  N503    2.008   .     S
H463   N506    1.032   .     S
H467   N507    1.032   .     S
H472   N508    1.031   .     S
H478   C652    1.111   .     S
H479   C652    1.111   .     S
H482   C653    1.114   1_545 S
H486   C654    1.111   .     S
H487   C655    1.111   .     S
H489   C864    1.111   .     S
H490   C1072   1.110   .     S
H491   C656    1.111   .     S
H493   C657    1.112   1_545 S
H495   C659    1.111   1_545 S
H496   C659    1.111   1_545 S
H502   N505    1.032   .     S
C521   O619    1.287   .     A
C521   C538    1.451   .     S
C521   O613    1.290   .     A
C522   C526    1.413   .     A
C522   O616    1.382   .     S
C522   C557    1.411   .     A
C523   C527    1.406   .     S
C523   O620    1.285   .     A
C523   O623    1.286   .     A
C524   C528    1.406   .     S
C524   O622    1.286   .     A
C524   O621    1.285   .     A
C525   C558    1.415   .     A
C525   C560    1.416   .     A
C525   C734    1.513   1_545 S
C526   C559    1.413   .     A
C526   C733    1.513   .     S
C528   C943    1.189   .     S
C529   H602    1.083   .     S
C529   C534    1.396   .     A
C529   C540    1.402   .     A
C530   C541    1.400   .     A
C530   H603    1.084   .     S
C530   C535    1.395   .     A
C531   C541    1.399   .     A
C531   C536    1.395   .     A
C531   H604    1.083   .     S
C532   O618    1.292   .     A
C532   O617    1.293   .     A
C532   C539    1.466   .     S
C533   C540    1.401   .     A
C533   C537    1.394   .     A
C533   H605    1.084   .     S
C534   C538    1.407   .     A
C534   N609    1.423   .     S
C535   C539    1.415   .     A
C535   N610    1.425   .     S
C536   C539    1.415   .     A
C536   N611    1.425   .     S
C537   N612    1.421   .     S
C537   C538    1.405   .     A
C541   C436    1.470   1_655 S
C542   H564    1.109   .     S
C542   H566    1.111   .     S
C542   N609    1.446   .     S
C542   H565    1.109   .     S
C543   H563    1.078   .     S
C543   N607    1.363   .     A
C543   C558    1.426   .     A
C544   H570    1.111   .     S
C544   H568    1.112   .     S
C544   H569    1.110   .     S
C544   N610    1.447   .     S
C545   H573    1.110   .     S
C545   N611    1.447   .     S
C545   H575    1.112   .     S
C545   H572    1.111   .     S
C546   N612    1.447   .     S
C546   H579    1.110   .     S
C546   H578    1.110   .     S
C546   H577    1.112   .     S
C547   H580    1.112   .     S
C547   O624    1.412   .     S
C547   H581    1.115   .     S
C547   C548    1.521   .     S
C548   H584    1.111   .     S
C548   H790    1.111   1_545 S
C548   H791    1.111   1_545 S
C549   O614    1.412   .     S
C549   H587    1.114   .     S
C549   C758    1.520   .     S
C549   H794    1.114   .     S
C550   H589    1.111   .     S
C550   H588    1.111   .     S
C550   C757    1.520   1_545 S
C550   H798    1.111   1_545 S
C551   C552    1.520   .     S
C551   H592    1.116   .     S
C551   O615    1.411   .     S
C551   H799    1.111   1_545 S
C552   H386    1.110   1_545 S
C552   H803    1.111   1_545 S
C553   O616    1.410   .     S
C553   H598    1.115   .     S
C553   C555    1.520   .     S
C553   H805    1.112   .     S
C554   C559    1.412   .     A
C554   N608    1.368   .     A
C554   H574    1.079   .     S
C555   H601    1.111   .     S
C555   H807    1.111   .     S
C555   H808    1.111   .     S
C556   N607    1.361   .     A
C556   C560    1.408   .     A
C556   H585    1.082   .     S
C557   N608    1.367   .     A
C557   H596    1.078   .     S
C558   O624    1.396   .     S
C559   O614    1.381   .     S
C560   O615    1.382   .     S
Cu561  Cu562   2.673   .     S
Cu561  O622    1.931   .     S
Cu561  O613    1.955   .     S
Cu561  O620    1.931   .     S
Cu561  N608    2.008   .     S
Cu561  O618    1.956   .     S
Cu562  O623    1.931   .     S
Cu562  O617    1.955   .     S
Cu562  O621    1.931   .     S
Cu562  O619    1.956   .     S
Cu562  N607    2.008   .     S
H567   N610    1.032   .     S
H571   N611    1.032   .     S
H576   N612    1.031   .     S
H582   C756    1.111   .     S
H583   C756    1.111   .     S
H586   C757    1.114   1_545 S
H590   C758    1.111   .     S
H591   C759    1.111   .     S
H593   C968    1.111   .     S
H594   C1176   1.110   .     S
H595   C760    1.111   .     S
H597   C761    1.112   1_545 S
H599   C763    1.111   1_545 S
H600   C763    1.111   1_545 S
H606   N609    1.032   .     S
C625   O723    1.287   .     A
C625   C642    1.451   .     S
C625   O717    1.290   .     A
C626   C630    1.413   .     A
C626   O720    1.382   .     S
C626   C661    1.411   .     A
C627   C631    1.406   .     S
C627   O724    1.285   .     A
C627   O727    1.286   .     A
C628   C632    1.406   .     S
C628   O726    1.286   .     A
C628   O725    1.285   .     A
C629   C662    1.415   .     A
C629   C664    1.416   .     A
C630   C663    1.413   .     A
C630   C421    1.513   1_565 S
C632   C1047   1.189   .     S
C633   H706    1.083   .     S
C633   C638    1.396   .     A
C633   C644    1.402   .     A
C634   C645    1.400   .     A
C634   H707    1.084   .     S
C634   C639    1.395   .     A
C635   C645    1.399   .     A
C635   C640    1.395   .     A
C635   H708    1.083   .     S
C636   O722    1.292   .     A
C636   O721    1.293   .     A
C636   C643    1.466   .     S
C637   C644    1.401   .     A
C637   C641    1.394   .     A
C637   H709    1.084   .     S
C638   C642    1.407   .     A
C638   N713    1.423   .     S
C639   C643    1.415   .     A
C639   N714    1.425   .     S
C640   C643    1.415   .     A
C640   N715    1.425   .     S
C641   N716    1.421   .     S
C641   C642    1.405   .     A
C644   C749    1.470   1_455 S
C645   C748    1.470   .     S
C646   H668    1.109   .     S
C646   H670    1.111   .     S
C646   N713    1.446   .     S
C646   H669    1.109   .     S
C647   H667    1.078   .     S
C647   N711    1.363   .     A
C647   C662    1.426   .     A
C648   H674    1.111   .     S
C648   H672    1.112   .     S
C648   H673    1.110   .     S
C648   N714    1.447   .     S
C649   H677    1.110   .     S
C649   N715    1.447   .     S
C649   H679    1.112   .     S
C649   H676    1.111   .     S
C650   N716    1.447   .     S
C650   H683    1.110   .     S
C650   H682    1.110   .     S
C650   H681    1.112   .     S
C651   H684    1.112   .     S
C651   O728    1.412   .     S
C651   H685    1.115   .     S
C651   C652    1.521   .     S
C652   H688    1.111   .     S
C653   O718    1.412   .     S
C653   H691    1.114   .     S
C653   C446    1.520   1_565 S
C653   H482    1.114   1_565 S
C654   H693    1.111   .     S
C654   H692    1.111   .     S
C655   C656    1.520   .     S
C655   H696    1.116   .     S
C655   O719    1.411   .     S
C657   O720    1.410   .     S
C657   H702    1.115   .     S
C657   C659    1.520   .     S
C657   H493    1.112   1_565 S
C658   C663    1.412   .     A
C658   N712    1.368   .     A
C658   H678    1.079   .     S
C659   H705    1.111   .     S
C659   H495    1.111   1_565 S
C659   H496    1.111   1_565 S
C660   N711    1.361   .     A
C660   C664    1.408   .     A
C660   H689    1.082   .     S
C661   N712    1.367   .     A
C661   H700    1.078   .     S
C662   O728    1.396   .     S
C663   O718    1.381   .     S
C664   O719    1.382   .     S
Cu665  Cu666   2.673   .     S
Cu665  O726    1.931   .     S
Cu665  O717    1.955   .     S
Cu665  O724    1.931   .     S
Cu665  N712    2.008   .     S
Cu665  O722    1.956   .     S
Cu666  O727    1.931   .     S
Cu666  O721    1.955   .     S
Cu666  O725    1.931   .     S
Cu666  O723    1.956   .     S
Cu666  N711    2.008   .     S
H671   N714    1.032   .     S
H675   N715    1.032   .     S
H680   N716    1.031   .     S
H686   C444    1.111   1_565 S
H687   C444    1.111   1_565 S
H694   C446    1.111   1_565 S
H695   C447    1.111   1_565 S
H697   C1072   1.111   .     S
H698   C864    1.110   1_565 S
H699   C448    1.111   1_565 S
H710   N713    1.032   .     S
C729   O827    1.287   .     A
C729   C746    1.451   .     S
C729   O821    1.290   .     A
C730   C734    1.413   .     A
C730   O824    1.382   .     S
C730   C765    1.411   .     A
C731   C735    1.406   .     S
C731   O828    1.285   .     A
C731   O831    1.286   .     A
C732   C736    1.406   .     S
C732   O830    1.286   .     A
C732   O829    1.285   .     A
C733   C766    1.415   .     A
C733   C768    1.416   .     A
C734   C767    1.413   .     A
C734   C525    1.513   1_565 S
C736   C1151   1.189   .     S
C737   H810    1.083   .     S
C737   C742    1.396   .     A
C737   C748    1.402   .     A
C738   C749    1.400   .     A
C738   H811    1.084   .     S
C738   C743    1.395   .     A
C739   C749    1.399   .     A
C739   C744    1.395   .     A
C739   H812    1.083   .     S
C740   O826    1.292   .     A
C740   O825    1.293   .     A
C740   C747    1.466   .     S
C741   C748    1.401   .     A
C741   C745    1.394   .     A
C741   H813    1.084   .     S
C742   C746    1.407   .     A
C742   N817    1.423   .     S
C743   C747    1.415   .     A
C743   N818    1.425   .     S
C744   C747    1.415   .     A
C744   N819    1.425   .     S
C745   N820    1.421   .     S
C745   C746    1.405   .     A
C749   C644    1.470   1_655 S
C750   H772    1.109   .     S
C750   H774    1.111   .     S
C750   N817    1.446   .     S
C750   H773    1.109   .     S
C751   H771    1.078   .     S
C751   N815    1.363   .     A
C751   C766    1.426   .     A
C752   H778    1.111   .     S
C752   H776    1.112   .     S
C752   H777    1.110   .     S
C752   N818    1.447   .     S
C753   H781    1.110   .     S
C753   N819    1.447   .     S
C753   H783    1.112   .     S
C753   H780    1.111   .     S
C754   N820    1.447   .     S
C754   H787    1.110   .     S
C754   H786    1.110   .     S
C754   H785    1.112   .     S
C755   H788    1.112   .     S
C755   O832    1.412   .     S
C755   H789    1.115   .     S
C755   C756    1.521   .     S
C756   H792    1.111   .     S
C757   O822    1.412   .     S
C757   H795    1.114   .     S
C757   C550    1.520   1_565 S
C757   H586    1.114   1_565 S
C758   H797    1.111   .     S
C758   H796    1.111   .     S
C759   C760    1.520   .     S
C759   H800    1.116   .     S
C759   O823    1.411   .     S
C761   O824    1.410   .     S
C761   H806    1.115   .     S
C761   C763    1.520   .     S
C761   H597    1.112   1_565 S
C762   C767    1.412   .     A
C762   N816    1.368   .     A
C762   H782    1.079   .     S
C763   H809    1.111   .     S
C763   H599    1.111   1_565 S
C763   H600    1.111   1_565 S
C764   N815    1.361   .     A
C764   C768    1.408   .     A
C764   H793    1.082   .     S
C765   N816    1.367   .     A
C765   H804    1.078   .     S
C766   O832    1.396   .     S
C767   O822    1.381   .     S
C768   O823    1.382   .     S
Cu769  Cu770   2.673   .     S
Cu769  O830    1.931   .     S
Cu769  O821    1.955   .     S
Cu769  O828    1.931   .     S
Cu769  N816    2.008   .     S
Cu769  O826    1.956   .     S
Cu770  O831    1.931   .     S
Cu770  O825    1.955   .     S
Cu770  O829    1.931   .     S
Cu770  O827    1.956   .     S
Cu770  N815    2.008   .     S
H775   N818    1.032   .     S
H779   N819    1.032   .     S
H784   N820    1.031   .     S
H790   C548    1.111   1_565 S
H791   C548    1.111   1_565 S
H798   C550    1.111   1_565 S
H799   C551    1.111   1_565 S
H801   C1176   1.111   .     S
H802   C968    1.110   1_565 S
H803   C552    1.111   1_565 S
H814   N817    1.032   .     S
C833   O931    1.287   .     A
C833   C850    1.451   .     S
C833   O925    1.290   .     A
C834   C838    1.413   .     A
C834   O928    1.382   .     S
C834   C869    1.411   .     A
C835   C839    1.406   .     S
C835   O932    1.285   .     A
C835   O935    1.286   .     A
C836   C840    1.406   .     S
C836   O934    1.286   .     A
C836   O933    1.285   .     A
C837   C870    1.415   .     A
C837   C872    1.416   .     A
C837   C1046   1.513   1_545 S
C838   C871    1.413   .     A
C838   C1045   1.513   .     S
C840   C7      1.189   1_556 S
C841   H914    1.083   .     S
C841   C846    1.396   .     A
C841   C852    1.402   .     A
C842   C853    1.400   .     A
C842   H915    1.084   .     S
C842   C847    1.395   .     A
C843   C853    1.399   .     A
C843   C848    1.395   .     A
C843   H916    1.083   .     S
C844   O930    1.292   .     A
C844   O929    1.293   .     A
C844   C851    1.466   .     S
C845   C852    1.401   .     A
C845   C849    1.394   .     A
C845   H917    1.084   .     S
C846   C850    1.407   .     A
C846   N921    1.423   .     S
C847   C851    1.415   .     A
C847   N922    1.425   .     S
C848   C851    1.415   .     A
C848   N923    1.425   .     S
C849   N924    1.421   .     S
C849   C850    1.405   .     A
C852   C957    1.470   1_455 S
C853   C956    1.470   .     S
C854   H876    1.109   .     S
C854   H878    1.111   .     S
C854   N921    1.446   .     S
C854   H877    1.109   .     S
C855   H875    1.078   .     S
C855   N919    1.363   .     A
C855   C870    1.426   .     A
C856   H882    1.111   .     S
C856   H880    1.112   .     S
C856   H881    1.110   .     S
C856   N922    1.447   .     S
C857   H885    1.110   .     S
C857   N923    1.447   .     S
C857   H887    1.112   .     S
C857   H884    1.111   .     S
C858   N924    1.447   .     S
C858   H891    1.110   .     S
C858   H890    1.110   .     S
C858   H889    1.112   .     S
C859   H892    1.112   .     S
C859   O936    1.412   .     S
C859   H893    1.115   .     S
C859   C860    1.521   .     S
C860   H896    1.111   .     S
C860   H1102   1.111   1_545 S
C860   H1103   1.111   1_545 S
C861   O926    1.412   .     S
C861   H899    1.114   .     S
C861   C1070   1.520   .     S
C861   H1106   1.114   .     S
C862   H901    1.111   .     S
C862   H900    1.111   .     S
C862   C1069   1.520   1_545 S
C862   H1110   1.111   1_545 S
C863   C864    1.520   .     S
C863   H904    1.116   .     S
C863   O927    1.411   .     S
C863   H1111   1.111   1_545 S
C864   H698    1.110   1_545 S
C864   H1115   1.111   1_545 S
C865   O928    1.410   .     S
C865   H910    1.115   .     S
C865   C867    1.520   .     S
C865   H1117   1.112   .     S
C866   C871    1.412   .     A
C866   N920    1.368   .     A
C866   H886    1.079   .     S
C867   H913    1.111   .     S
C867   H1119   1.111   .     S
C867   H1120   1.111   .     S
C868   N919    1.361   .     A
C868   C872    1.408   .     A
C868   H897    1.082   .     S
C869   N920    1.367   .     A
C869   H908    1.078   .     S
C870   O936    1.396   .     S
C871   O926    1.381   .     S
C872   O927    1.382   .     S
Cu873  Cu874   2.673   .     S
Cu873  O934    1.931   .     S
Cu873  O925    1.955   .     S
Cu873  O932    1.931   .     S
Cu873  N920    2.008   .     S
Cu873  O930    1.956   .     S
Cu874  O935    1.931   .     S
Cu874  O929    1.955   .     S
Cu874  O933    1.931   .     S
Cu874  O931    1.956   .     S
Cu874  N919    2.008   .     S
H879   N922    1.032   .     S
H883   N923    1.032   .     S
H888   N924    1.031   .     S
H894   C1068   1.111   .     S
H895   C1068   1.111   .     S
H898   C1069   1.114   1_545 S
H902   C1070   1.111   .     S
H903   C1071   1.111   .     S
H905   C32     1.111   1_556 S
H906   C240    1.110   1_556 S
H907   C1072   1.111   .     S
H909   C1073   1.112   1_545 S
H911   C1075   1.111   1_545 S
H912   C1075   1.111   1_545 S
H918   N921    1.032   .     S
C937   O1035   1.287   .     A
C937   C954    1.451   .     S
C937   O1029   1.290   .     A
C938   C942    1.413   .     A
C938   O1032   1.382   .     S
C938   C973    1.411   .     A
C939   C943    1.406   .     S
C939   O1036   1.285   .     A
C939   O1039   1.286   .     A
C940   C944    1.406   .     S
C940   O1038   1.286   .     A
C940   O1037   1.285   .     A
C941   C974    1.415   .     A
C941   C976    1.416   .     A
C941   C1150   1.513   1_545 S
C942   C975    1.413   .     A
C942   C1149   1.513   .     S
C944   C111    1.189   1_556 S
C945   H1018   1.083   .     S
C945   C950    1.396   .     A
C945   C956    1.402   .     A
C946   C957    1.400   .     A
C946   H1019   1.084   .     S
C946   C951    1.395   .     A
C947   C957    1.399   .     A
C947   C952    1.395   .     A
C947   H1020   1.083   .     S
C948   O1034   1.292   .     A
C948   O1033   1.293   .     A
C948   C955    1.466   .     S
C949   C956    1.401   .     A
C949   C953    1.394   .     A
C949   H1021   1.084   .     S
C950   C954    1.407   .     A
C950   N1025   1.423   .     S
C951   C955    1.415   .     A
C951   N1026   1.425   .     S
C952   C955    1.415   .     A
C952   N1027   1.425   .     S
C953   N1028   1.421   .     S
C953   C954    1.405   .     A
C957   C852    1.470   1_655 S
C958   H980    1.109   .     S
C958   H982    1.111   .     S
C958   N1025   1.446   .     S
C958   H981    1.109   .     S
C959   H979    1.078   .     S
C959   N1023   1.363   .     A
C959   C974    1.426   .     A
C960   H986    1.111   .     S
C960   H984    1.112   .     S
C960   H985    1.110   .     S
C960   N1026   1.447   .     S
C961   H989    1.110   .     S
C961   N1027   1.447   .     S
C961   H991    1.112   .     S
C961   H988    1.111   .     S
C962   N1028   1.447   .     S
C962   H995    1.110   .     S
C962   H994    1.110   .     S
C962   H993    1.112   .     S
C963   H996    1.112   .     S
C963   O1040   1.412   .     S
C963   H997    1.115   .     S
C963   C964    1.521   .     S
C964   H1000   1.111   .     S
C964   H1206   1.111   1_545 S
C964   H1207   1.111   1_545 S
C965   O1030   1.412   .     S
C965   H1003   1.114   .     S
C965   C1174   1.520   .     S
C965   H1210   1.114   .     S
C966   H1005   1.111   .     S
C966   H1004   1.111   .     S
C966   C1173   1.520   1_545 S
C966   H1214   1.111   1_545 S
C967   C968    1.520   .     S
C967   H1008   1.116   .     S
C967   O1031   1.411   .     S
C967   H1215   1.111   1_545 S
C968   H802    1.110   1_545 S
C968   H1219   1.111   1_545 S
C969   O1032   1.410   .     S
C969   H1014   1.115   .     S
C969   C971    1.520   .     S
C969   H1221   1.112   .     S
C970   C975    1.412   .     A
C970   N1024   1.368   .     A
C970   H990    1.079   .     S
C971   H1017   1.111   .     S
C971   H1223   1.111   .     S
C971   H1224   1.111   .     S
C972   N1023   1.361   .     A
C972   C976    1.408   .     A
C972   H1001   1.082   .     S
C973   N1024   1.367   .     A
C973   H1012   1.078   .     S
C974   O1040   1.396   .     S
C975   O1030   1.381   .     S
C976   O1031   1.382   .     S
Cu977  Cu978   2.673   .     S
Cu977  O1038   1.931   .     S
Cu977  O1029   1.955   .     S
Cu977  O1036   1.931   .     S
Cu977  N1024   2.008   .     S
Cu977  O1034   1.956   .     S
Cu978  O1039   1.931   .     S
Cu978  O1033   1.955   .     S
Cu978  O1037   1.931   .     S
Cu978  O1035   1.956   .     S
Cu978  N1023   2.008   .     S
H983   N1026   1.032   .     S
H987   N1027   1.032   .     S
H992   N1028   1.031   .     S
H998   C1172   1.111   .     S
H999   C1172   1.111   .     S
H1002  C1173   1.114   1_545 S
H1006  C1174   1.111   .     S
H1007  C1175   1.111   .     S
H1009  C136    1.111   1_556 S
H1010  C344    1.110   1_556 S
H1011  C1176   1.111   .     S
H1013  C1177   1.112   1_545 S
H1015  C1179   1.111   1_545 S
H1016  C1179   1.111   1_545 S
H1022  N1025   1.032   .     S
C1041  O1139   1.287   .     A
C1041  C1058   1.451   .     S
C1041  O1133   1.290   .     A
C1042  C1046   1.413   .     A
C1042  O1136   1.382   .     S
C1042  C1077   1.411   .     A
C1043  C1047   1.406   .     S
C1043  O1140   1.285   .     A
C1043  O1143   1.286   .     A
C1044  C1048   1.406   .     S
C1044  O1142   1.286   .     A
C1044  O1141   1.285   .     A
C1045  C1078   1.415   .     A
C1045  C1080   1.416   .     A
C1046  C1079   1.413   .     A
C1046  C837    1.513   1_565 S
C1048  C215    1.189   1_556 S
C1049  H1122   1.083   .     S
C1049  C1054   1.396   .     A
C1049  C1060   1.402   .     A
C1050  C1061   1.400   .     A
C1050  H1123   1.084   .     S
C1050  C1055   1.395   .     A
C1051  C1061   1.399   .     A
C1051  C1056   1.395   .     A
C1051  H1124   1.083   .     S
C1052  O1138   1.292   .     A
C1052  O1137   1.293   .     A
C1052  C1059   1.466   .     S
C1053  C1060   1.401   .     A
C1053  C1057   1.394   .     A
C1053  H1125   1.084   .     S
C1054  C1058   1.407   .     A
C1054  N1129   1.423   .     S
C1055  C1059   1.415   .     A
C1055  N1130   1.425   .     S
C1056  C1059   1.415   .     A
C1056  N1131   1.425   .     S
C1057  N1132   1.421   .     S
C1057  C1058   1.405   .     A
C1060  C1165   1.470   1_455 S
C1061  C1164   1.470   .     S
C1062  H1084   1.109   .     S
C1062  H1086   1.111   .     S
C1062  N1129   1.446   .     S
C1062  H1085   1.109   .     S
C1063  H1083   1.078   .     S
C1063  N1127   1.363   .     A
C1063  C1078   1.426   .     A
C1064  H1090   1.111   .     S
C1064  H1088   1.112   .     S
C1064  H1089   1.110   .     S
C1064  N1130   1.447   .     S
C1065  H1093   1.110   .     S
C1065  N1131   1.447   .     S
C1065  H1095   1.112   .     S
C1065  H1092   1.111   .     S
C1066  N1132   1.447   .     S
C1066  H1099   1.110   .     S
C1066  H1098   1.110   .     S
C1066  H1097   1.112   .     S
C1067  H1100   1.112   .     S
C1067  O1144   1.412   .     S
C1067  H1101   1.115   .     S
C1067  C1068   1.521   .     S
C1068  H1104   1.111   .     S
C1069  O1134   1.412   .     S
C1069  H1107   1.114   .     S
C1069  C862    1.520   1_565 S
C1069  H898    1.114   1_565 S
C1070  H1109   1.111   .     S
C1070  H1108   1.111   .     S
C1071  C1072   1.520   .     S
C1071  H1112   1.116   .     S
C1071  O1135   1.411   .     S
C1073  O1136   1.410   .     S
C1073  H1118   1.115   .     S
C1073  C1075   1.520   .     S
C1073  H909    1.112   1_565 S
C1074  C1079   1.412   .     A
C1074  N1128   1.368   .     A
C1074  H1094   1.079   .     S
C1075  H1121   1.111   .     S
C1075  H911    1.111   1_565 S
C1075  H912    1.111   1_565 S
C1076  N1127   1.361   .     A
C1076  C1080   1.408   .     A
C1076  H1105   1.082   .     S
C1077  N1128   1.367   .     A
C1077  H1116   1.078   .     S
C1078  O1144   1.396   .     S
C1079  O1134   1.381   .     S
C1080  O1135   1.382   .     S
Cu1081 Cu1082  2.673   .     S
Cu1081 O1142   1.931   .     S
Cu1081 O1133   1.955   .     S
Cu1081 O1140   1.931   .     S
Cu1081 N1128   2.008   .     S
Cu1081 O1138   1.956   .     S
Cu1082 O1143   1.931   .     S
Cu1082 O1137   1.955   .     S
Cu1082 O1141   1.931   .     S
Cu1082 O1139   1.956   .     S
Cu1082 N1127   2.008   .     S
H1087  N1130   1.032   .     S
H1091  N1131   1.032   .     S
H1096  N1132   1.031   .     S
H1102  C860    1.111   1_565 S
H1103  C860    1.111   1_565 S
H1110  C862    1.111   1_565 S
H1111  C863    1.111   1_565 S
H1113  C240    1.111   1_556 S
H1114  C32     1.110   1_566 S
H1115  C864    1.111   1_565 S
H1126  N1129   1.032   .     S
C1145  O1243   1.287   .     A
C1145  C1162   1.451   .     S
C1145  O1237   1.290   .     A
C1146  C1150   1.413   .     A
C1146  O1240   1.382   .     S
C1146  C1181   1.411   .     A
C1147  C1151   1.406   .     S
C1147  O1244   1.285   .     A
C1147  O1247   1.286   .     A
C1148  C1152   1.406   .     S
C1148  O1246   1.286   .     A
C1148  O1245   1.285   .     A
C1149  C1182   1.415   .     A
C1149  C1184   1.416   .     A
C1150  C1183   1.413   .     A
C1150  C941    1.513   1_565 S
C1152  C319    1.189   1_556 S
C1153  H1226   1.083   .     S
C1153  C1158   1.396   .     A
C1153  C1164   1.402   .     A
C1154  C1165   1.400   .     A
C1154  H1227   1.084   .     S
C1154  C1159   1.395   .     A
C1155  C1165   1.399   .     A
C1155  C1160   1.395   .     A
C1155  H1228   1.083   .     S
C1156  O1242   1.292   .     A
C1156  O1241   1.293   .     A
C1156  C1163   1.466   .     S
C1157  C1164   1.401   .     A
C1157  C1161   1.394   .     A
C1157  H1229   1.084   .     S
C1158  C1162   1.407   .     A
C1158  N1233   1.423   .     S
C1159  C1163   1.415   .     A
C1159  N1234   1.425   .     S
C1160  C1163   1.415   .     A
C1160  N1235   1.425   .     S
C1161  N1236   1.421   .     S
C1161  C1162   1.405   .     A
C1165  C1060   1.470   1_655 S
C1166  H1188   1.109   .     S
C1166  H1190   1.111   .     S
C1166  N1233   1.446   .     S
C1166  H1189   1.109   .     S
C1167  H1187   1.078   .     S
C1167  N1231   1.363   .     A
C1167  C1182   1.426   .     A
C1168  H1194   1.111   .     S
C1168  H1192   1.112   .     S
C1168  H1193   1.110   .     S
C1168  N1234   1.447   .     S
C1169  H1197   1.110   .     S
C1169  N1235   1.447   .     S
C1169  H1199   1.112   .     S
C1169  H1196   1.111   .     S
C1170  N1236   1.447   .     S
C1170  H1203   1.110   .     S
C1170  H1202   1.110   .     S
C1170  H1201   1.112   .     S
C1171  H1204   1.112   .     S
C1171  O1248   1.412   .     S
C1171  H1205   1.115   .     S
C1171  C1172   1.521   .     S
C1172  H1208   1.111   .     S
C1173  O1238   1.412   .     S
C1173  H1211   1.114   .     S
C1173  C966    1.520   1_565 S
C1173  H1002   1.114   1_565 S
C1174  H1213   1.111   .     S
C1174  H1212   1.111   .     S
C1175  C1176   1.520   .     S
C1175  H1216   1.116   .     S
C1175  O1239   1.411   .     S
C1177  O1240   1.410   .     S
C1177  H1222   1.115   .     S
C1177  C1179   1.520   .     S
C1177  H1013   1.112   1_565 S
C1178  C1183   1.412   .     A
C1178  N1232   1.368   .     A
C1178  H1198   1.079   .     S
C1179  H1225   1.111   .     S
C1179  H1015   1.111   1_565 S
C1179  H1016   1.111   1_565 S
C1180  N1231   1.361   .     A
C1180  C1184   1.408   .     A
C1180  H1209   1.082   .     S
C1181  N1232   1.367   .     A
C1181  H1220   1.078   .     S
C1182  O1248   1.396   .     S
C1183  O1238   1.381   .     S
C1184  O1239   1.382   .     S
Cu1185 Cu1186  2.673   .     S
Cu1185 O1246   1.931   .     S
Cu1185 O1237   1.955   .     S
Cu1185 O1244   1.931   .     S
Cu1185 N1232   2.008   .     S
Cu1185 O1242   1.956   .     S
Cu1186 O1247   1.931   .     S
Cu1186 O1241   1.955   .     S
Cu1186 O1245   1.931   .     S
Cu1186 O1243   1.956   .     S
Cu1186 N1231   2.008   .     S
H1191  N1234   1.032   .     S
H1195  N1235   1.032   .     S
H1200  N1236   1.031   .     S
H1206  C964    1.111   1_565 S
H1207  C964    1.111   1_565 S
H1214  C966    1.111   1_565 S
H1215  C967    1.111   1_565 S
H1217  C344    1.111   1_556 S
H1218  C136    1.110   1_566 S
H1219  C968    1.111   1_565 S
H1230  N1233   1.032   .     S
