data_str_m2_o10_o17_pcu_sym.228
_audit_creation_date              2020-01-03
_audit_creation_method            'Materials Studio'
_symmetry_space_group_name_H-M    'P1'
_symmetry_Int_Tables_number       1
_symmetry_cell_setting            triclinic
loop_
_symmetry_equiv_pos_as_xyz
  x,y,z
_cell_length_a                    29.9742
_cell_length_b                    26.2529
_cell_length_c                    22.3086
_cell_angle_alpha                 102.8116
_cell_angle_beta                  93.9594
_cell_angle_gamma                 92.5894
loop_
_atom_site_label
_atom_site_type_symbol
_atom_site_fract_x
_atom_site_fract_y
_atom_site_fract_z
_atom_site_U_iso_or_equiv
_atom_site_adp_type
_atom_site_occupancy
C1     C     0.24817   0.06679   0.15135   0.00000  Uiso   1.00
C2     C     0.25182   0.26654   0.18198   0.00000  Uiso   1.00
C3     C     0.01373   0.07180   0.11570   0.00000  Uiso   1.00
C4     C     0.48623   0.26165   0.21604   0.00000  Uiso   1.00
C5     C     0.24312   0.01115   0.14343   0.00000  Uiso   1.00
C6     C     0.25684   0.32218   0.18992   0.00000  Uiso   1.00
C7     C     0.16454   0.16531   0.16741   0.00000  Uiso   1.00
C8     C     0.33547   0.16800   0.16591   0.00000  Uiso   1.00
C9     C     0.41023   0.21539   0.19421   0.00000  Uiso   1.00
C10    C     0.08988   0.11770   0.13942   0.00000  Uiso   1.00
C11    C     0.38363   0.17016   0.16399   0.00000  Uiso   1.00
C12    C     0.11637   0.16316   0.16918   0.00000  Uiso   1.00
C13    C     0.40274   0.12564   0.13320   0.00000  Uiso   1.00
C14    C     0.09718   0.20802   0.19883   0.00000  Uiso   1.00
C15    C     0.44896   0.12371   0.13525   0.00000  Uiso   1.00
C16    C     0.05097   0.20996   0.19637   0.00000  Uiso   1.00
C17    C     0.47657   0.16842   0.16450   0.00000  Uiso   1.00
C18    C     0.02339   0.16515   0.16720   0.00000  Uiso   1.00
C19    C     0.45731   0.21615   0.19115   0.00000  Uiso   1.00
C20    C     0.04265   0.11725   0.14108   0.00000  Uiso   1.00
C21    C     0.46747   0.07653   0.11081   0.00000  Uiso   1.00
C22    C     0.03242   0.25720   0.22055   0.00000  Uiso   1.00
Cu23   Cu    0.25501   0.17246   0.22813   0.00000  Uiso   1.00
Cu24   Cu    0.24500   0.16087   0.10521   0.00000  Uiso   1.00
H25    H     0.38136   0.09125   0.11078   0.00000  Uiso   1.00
H26    H     0.11852   0.24253   0.22096   0.00000  Uiso   1.00
H27    H     0.44534   0.04219   0.09084   0.00000  Uiso   1.00
H28    H     0.05436   0.29175   0.24045   0.00000  Uiso   1.00
H29    H     0.21520   0.12594   0.31614   0.00000  Uiso   1.00
H30    H     0.28480   0.20739   0.01719   0.00000  Uiso   1.00
N31    N     0.23745   0.15214   0.01284   0.00000  Uiso   1.00
N32    N     0.26256   0.18119   0.32049   0.00000  Uiso   1.00
O33    O     0.25326   0.09538   0.20659   0.00000  Uiso   1.00
O34    O     0.24675   0.23796   0.12674   0.00000  Uiso   1.00
O35    O     0.24480   0.08559   0.10279   0.00000  Uiso   1.00
O36    O     0.25520   0.24774   0.23055   0.00000  Uiso   1.00
O37    O     0.18936   0.17155   0.21857   0.00000  Uiso   1.00
O38    O     0.31065   0.16179   0.11476   0.00000  Uiso   1.00
O39    O     0.18090   0.16176   0.11477   0.00000  Uiso   1.00
O40    O     0.31910   0.17157   0.21857   0.00000  Uiso   1.00
N41    N     0.38968   0.25886   0.23059   0.00000  Uiso   1.00
H42    H     0.36445   0.27079   0.20293   0.00000  Uiso   1.00
H43    H     0.37539   0.24693   0.26704   0.00000  Uiso   1.00
N44    N     0.11085   0.07350   0.10525   0.00000  Uiso   1.00
H45    H     0.12612   0.08433   0.06885   0.00000  Uiso   1.00
H46    H     0.13530   0.06206   0.13448   0.00000  Uiso   1.00
C47    C     0.02949   0.01796   0.09951   0.00000  Uiso   1.00
H48    H     0.05822   0.00720   0.12515   0.00000  Uiso   1.00
O49    O     0.00940   0.31764   0.05868   0.00000  Uiso   1.00
C50    C     0.47121   0.31559   0.23333   0.00000  Uiso   1.00
H51    H     0.48742   0.00961   0.27352   0.00000  Uiso   1.00
O52    O     0.44333   0.33122   0.20028   0.00000  Uiso   1.00
N53    N     0.22105   0.31444   0.08623   0.00000  Uiso   1.00
H54    H     0.24000   0.31961   0.05016   0.00000  Uiso   1.00
H55    H     0.18962   0.32898   0.07964   0.00000  Uiso   1.00
N56    N     0.27887   0.01890   0.24714   0.00000  Uiso   1.00
H57    H     0.25991   0.01370   0.28319   0.00000  Uiso   1.00
H58    H     0.31031   0.00440   0.25376   0.00000  Uiso   1.00
C59    C     0.74817   0.06679   0.15135   0.00000  Uiso   1.00
C60    C     0.75182   0.26654   0.18198   0.00000  Uiso   1.00
C61    C     0.51373   0.07180   0.11570   0.00000  Uiso   1.00
C62    C     0.98623   0.26165   0.21604   0.00000  Uiso   1.00
C63    C     0.74312   0.01115   0.14343   0.00000  Uiso   1.00
C64    C     0.75684   0.32218   0.18992   0.00000  Uiso   1.00
C65    C     0.66454   0.16531   0.16741   0.00000  Uiso   1.00
C66    C     0.83547   0.16800   0.16591   0.00000  Uiso   1.00
C67    C     0.91023   0.21539   0.19421   0.00000  Uiso   1.00
C68    C     0.58988   0.11770   0.13942   0.00000  Uiso   1.00
C69    C     0.88363   0.17016   0.16399   0.00000  Uiso   1.00
C70    C     0.61637   0.16316   0.16918   0.00000  Uiso   1.00
C71    C     0.90274   0.12564   0.13320   0.00000  Uiso   1.00
C72    C     0.59718   0.20802   0.19883   0.00000  Uiso   1.00
C73    C     0.94896   0.12371   0.13525   0.00000  Uiso   1.00
C74    C     0.55097   0.20996   0.19637   0.00000  Uiso   1.00
C75    C     0.97657   0.16842   0.16450   0.00000  Uiso   1.00
C76    C     0.52339   0.16515   0.16720   0.00000  Uiso   1.00
C77    C     0.95731   0.21615   0.19115   0.00000  Uiso   1.00
C78    C     0.54265   0.11725   0.14108   0.00000  Uiso   1.00
C79    C     0.96747   0.07653   0.11081   0.00000  Uiso   1.00
C80    C     0.53242   0.25720   0.22055   0.00000  Uiso   1.00
Cu81   Cu    0.75501   0.17246   0.22813   0.00000  Uiso   1.00
Cu82   Cu    0.74500   0.16087   0.10521   0.00000  Uiso   1.00
H83    H     0.88136   0.09125   0.11078   0.00000  Uiso   1.00
H84    H     0.61852   0.24253   0.22096   0.00000  Uiso   1.00
H85    H     0.94534   0.04219   0.09084   0.00000  Uiso   1.00
H86    H     0.55436   0.29175   0.24045   0.00000  Uiso   1.00
H87    H     0.71520   0.12594   0.31614   0.00000  Uiso   1.00
H88    H     0.78480   0.20739   0.01719   0.00000  Uiso   1.00
N89    N     0.73745   0.15214   0.01284   0.00000  Uiso   1.00
N90    N     0.76256   0.18119   0.32049   0.00000  Uiso   1.00
O91    O     0.75326   0.09538   0.20659   0.00000  Uiso   1.00
O92    O     0.74675   0.23796   0.12674   0.00000  Uiso   1.00
O93    O     0.74480   0.08559   0.10279   0.00000  Uiso   1.00
O94    O     0.75520   0.24774   0.23055   0.00000  Uiso   1.00
O95    O     0.68936   0.17155   0.21857   0.00000  Uiso   1.00
O96    O     0.81065   0.16179   0.11476   0.00000  Uiso   1.00
O97    O     0.68090   0.16176   0.11477   0.00000  Uiso   1.00
O98    O     0.81910   0.17157   0.21857   0.00000  Uiso   1.00
N99    N     0.88968   0.25886   0.23059   0.00000  Uiso   1.00
H100   H     0.86445   0.27079   0.20293   0.00000  Uiso   1.00
H101   H     0.87539   0.24693   0.26704   0.00000  Uiso   1.00
N102   N     0.61085   0.07350   0.10525   0.00000  Uiso   1.00
H103   H     0.62612   0.08433   0.06885   0.00000  Uiso   1.00
H104   H     0.63530   0.06206   0.13448   0.00000  Uiso   1.00
C105   C     0.52949   0.01796   0.09951   0.00000  Uiso   1.00
H106   H     0.55822   0.00720   0.12515   0.00000  Uiso   1.00
O107   O     0.50940   0.31764   0.05868   0.00000  Uiso   1.00
C108   C     0.97121   0.31559   0.23333   0.00000  Uiso   1.00
H109   H     0.98742   0.00961   0.27352   0.00000  Uiso   1.00
O110   O     0.94333   0.33122   0.20028   0.00000  Uiso   1.00
N111   N     0.72105   0.31444   0.08623   0.00000  Uiso   1.00
H112   H     0.74000   0.31961   0.05016   0.00000  Uiso   1.00
H113   H     0.68962   0.32898   0.07964   0.00000  Uiso   1.00
N114   N     0.77887   0.01890   0.24714   0.00000  Uiso   1.00
H115   H     0.75991   0.01370   0.28319   0.00000  Uiso   1.00
H116   H     0.81031   0.00440   0.25376   0.00000  Uiso   1.00
C117   C     0.24817   0.40012   0.15135   0.00000  Uiso   1.00
C118   C     0.25182   0.59988   0.18198   0.00000  Uiso   1.00
C119   C     0.01373   0.40514   0.11570   0.00000  Uiso   1.00
C120   C     0.48623   0.59498   0.21604   0.00000  Uiso   1.00
C121   C     0.24312   0.34448   0.14343   0.00000  Uiso   1.00
C122   C     0.25684   0.65552   0.18992   0.00000  Uiso   1.00
C123   C     0.16454   0.49864   0.16741   0.00000  Uiso   1.00
C124   C     0.33547   0.50133   0.16591   0.00000  Uiso   1.00
C125   C     0.41023   0.54872   0.19421   0.00000  Uiso   1.00
C126   C     0.08988   0.45104   0.13942   0.00000  Uiso   1.00
C127   C     0.38363   0.50350   0.16399   0.00000  Uiso   1.00
C128   C     0.11637   0.49649   0.16918   0.00000  Uiso   1.00
C129   C     0.40274   0.45897   0.13320   0.00000  Uiso   1.00
C130   C     0.09718   0.54135   0.19883   0.00000  Uiso   1.00
C131   C     0.44896   0.45704   0.13525   0.00000  Uiso   1.00
C132   C     0.05097   0.54330   0.19637   0.00000  Uiso   1.00
C133   C     0.47657   0.50175   0.16450   0.00000  Uiso   1.00
C134   C     0.02339   0.49848   0.16720   0.00000  Uiso   1.00
C135   C     0.45731   0.54948   0.19115   0.00000  Uiso   1.00
C136   C     0.04265   0.45058   0.14108   0.00000  Uiso   1.00
C137   C     0.46747   0.40986   0.11081   0.00000  Uiso   1.00
C138   C     0.03242   0.59053   0.22055   0.00000  Uiso   1.00
Cu139  Cu    0.25501   0.50579   0.22813   0.00000  Uiso   1.00
Cu140  Cu    0.24500   0.49421   0.10521   0.00000  Uiso   1.00
H141   H     0.38136   0.42458   0.11078   0.00000  Uiso   1.00
H142   H     0.11852   0.57586   0.22096   0.00000  Uiso   1.00
H143   H     0.44534   0.37552   0.09084   0.00000  Uiso   1.00
H144   H     0.05436   0.62508   0.24045   0.00000  Uiso   1.00
H145   H     0.21520   0.45927   0.31614   0.00000  Uiso   1.00
H146   H     0.28480   0.54073   0.01719   0.00000  Uiso   1.00
N147   N     0.23745   0.48547   0.01284   0.00000  Uiso   1.00
N148   N     0.26256   0.51453   0.32049   0.00000  Uiso   1.00
O149   O     0.25326   0.42871   0.20659   0.00000  Uiso   1.00
O150   O     0.24675   0.57129   0.12674   0.00000  Uiso   1.00
O151   O     0.24480   0.41892   0.10279   0.00000  Uiso   1.00
O152   O     0.25520   0.58108   0.23055   0.00000  Uiso   1.00
O153   O     0.18936   0.50488   0.21857   0.00000  Uiso   1.00
O154   O     0.31065   0.49512   0.11476   0.00000  Uiso   1.00
O155   O     0.18090   0.49510   0.11477   0.00000  Uiso   1.00
O156   O     0.31910   0.50490   0.21857   0.00000  Uiso   1.00
N157   N     0.38968   0.59219   0.23059   0.00000  Uiso   1.00
H158   H     0.36445   0.60413   0.20293   0.00000  Uiso   1.00
H159   H     0.37539   0.58026   0.26704   0.00000  Uiso   1.00
N160   N     0.11085   0.40684   0.10525   0.00000  Uiso   1.00
H161   H     0.12612   0.41766   0.06885   0.00000  Uiso   1.00
H162   H     0.13530   0.39539   0.13448   0.00000  Uiso   1.00
C163   C     0.02949   0.35129   0.09951   0.00000  Uiso   1.00
H164   H     0.05822   0.34053   0.12515   0.00000  Uiso   1.00
O165   O     0.00940   0.65098   0.05868   0.00000  Uiso   1.00
C166   C     0.47121   0.64892   0.23333   0.00000  Uiso   1.00
H167   H     0.48742   0.34294   0.27352   0.00000  Uiso   1.00
O168   O     0.44333   0.66456   0.20028   0.00000  Uiso   1.00
N169   N     0.22105   0.64777   0.08623   0.00000  Uiso   1.00
H170   H     0.24000   0.65294   0.05016   0.00000  Uiso   1.00
H171   H     0.18962   0.66232   0.07964   0.00000  Uiso   1.00
N172   N     0.27887   0.35224   0.24714   0.00000  Uiso   1.00
H173   H     0.25991   0.34704   0.28319   0.00000  Uiso   1.00
H174   H     0.31031   0.33773   0.25376   0.00000  Uiso   1.00
C175   C     0.74817   0.40012   0.15135   0.00000  Uiso   1.00
C176   C     0.75182   0.59988   0.18198   0.00000  Uiso   1.00
C177   C     0.51373   0.40514   0.11570   0.00000  Uiso   1.00
C178   C     0.98623   0.59498   0.21604   0.00000  Uiso   1.00
C179   C     0.74312   0.34448   0.14343   0.00000  Uiso   1.00
C180   C     0.75684   0.65552   0.18992   0.00000  Uiso   1.00
C181   C     0.66454   0.49864   0.16741   0.00000  Uiso   1.00
C182   C     0.83547   0.50133   0.16591   0.00000  Uiso   1.00
C183   C     0.91023   0.54872   0.19421   0.00000  Uiso   1.00
C184   C     0.58988   0.45104   0.13942   0.00000  Uiso   1.00
C185   C     0.88363   0.50350   0.16399   0.00000  Uiso   1.00
C186   C     0.61637   0.49649   0.16918   0.00000  Uiso   1.00
C187   C     0.90274   0.45897   0.13320   0.00000  Uiso   1.00
C188   C     0.59718   0.54135   0.19883   0.00000  Uiso   1.00
C189   C     0.94896   0.45704   0.13525   0.00000  Uiso   1.00
C190   C     0.55097   0.54330   0.19637   0.00000  Uiso   1.00
C191   C     0.97657   0.50175   0.16450   0.00000  Uiso   1.00
C192   C     0.52339   0.49848   0.16720   0.00000  Uiso   1.00
C193   C     0.95731   0.54948   0.19115   0.00000  Uiso   1.00
C194   C     0.54265   0.45058   0.14108   0.00000  Uiso   1.00
C195   C     0.96747   0.40986   0.11081   0.00000  Uiso   1.00
C196   C     0.53242   0.59053   0.22055   0.00000  Uiso   1.00
Cu197  Cu    0.75501   0.50579   0.22813   0.00000  Uiso   1.00
Cu198  Cu    0.74500   0.49421   0.10521   0.00000  Uiso   1.00
H199   H     0.88136   0.42458   0.11078   0.00000  Uiso   1.00
H200   H     0.61852   0.57586   0.22096   0.00000  Uiso   1.00
H201   H     0.94534   0.37552   0.09084   0.00000  Uiso   1.00
H202   H     0.55436   0.62508   0.24045   0.00000  Uiso   1.00
H203   H     0.71520   0.45927   0.31614   0.00000  Uiso   1.00
H204   H     0.78480   0.54073   0.01719   0.00000  Uiso   1.00
N205   N     0.73745   0.48547   0.01284   0.00000  Uiso   1.00
N206   N     0.76256   0.51453   0.32049   0.00000  Uiso   1.00
O207   O     0.75326   0.42871   0.20659   0.00000  Uiso   1.00
O208   O     0.74675   0.57129   0.12674   0.00000  Uiso   1.00
O209   O     0.74480   0.41892   0.10279   0.00000  Uiso   1.00
O210   O     0.75520   0.58108   0.23055   0.00000  Uiso   1.00
O211   O     0.68936   0.50488   0.21857   0.00000  Uiso   1.00
O212   O     0.81065   0.49512   0.11476   0.00000  Uiso   1.00
O213   O     0.68090   0.49510   0.11477   0.00000  Uiso   1.00
O214   O     0.81910   0.50490   0.21857   0.00000  Uiso   1.00
N215   N     0.88968   0.59219   0.23059   0.00000  Uiso   1.00
H216   H     0.86445   0.60413   0.20293   0.00000  Uiso   1.00
H217   H     0.87539   0.58026   0.26704   0.00000  Uiso   1.00
N218   N     0.61085   0.40684   0.10525   0.00000  Uiso   1.00
H219   H     0.62612   0.41766   0.06885   0.00000  Uiso   1.00
H220   H     0.63530   0.39539   0.13448   0.00000  Uiso   1.00
C221   C     0.52949   0.35129   0.09951   0.00000  Uiso   1.00
H222   H     0.55822   0.34053   0.12515   0.00000  Uiso   1.00
O223   O     0.50940   0.65098   0.05868   0.00000  Uiso   1.00
C224   C     0.97121   0.64892   0.23333   0.00000  Uiso   1.00
H225   H     0.98742   0.34294   0.27352   0.00000  Uiso   1.00
O226   O     0.94333   0.66456   0.20028   0.00000  Uiso   1.00
N227   N     0.72105   0.64777   0.08623   0.00000  Uiso   1.00
H228   H     0.74000   0.65294   0.05016   0.00000  Uiso   1.00
H229   H     0.68962   0.66232   0.07964   0.00000  Uiso   1.00
N230   N     0.77887   0.35224   0.24714   0.00000  Uiso   1.00
H231   H     0.75991   0.34704   0.28319   0.00000  Uiso   1.00
H232   H     0.81031   0.33773   0.25376   0.00000  Uiso   1.00
C233   C     0.24817   0.73346   0.15135   0.00000  Uiso   1.00
C234   C     0.25182   0.93321   0.18198   0.00000  Uiso   1.00
C235   C     0.01373   0.73847   0.11570   0.00000  Uiso   1.00
C236   C     0.48623   0.92831   0.21604   0.00000  Uiso   1.00
C237   C     0.24312   0.67782   0.14343   0.00000  Uiso   1.00
C238   C     0.25684   0.98885   0.18992   0.00000  Uiso   1.00
C239   C     0.16454   0.83197   0.16741   0.00000  Uiso   1.00
C240   C     0.33547   0.83467   0.16591   0.00000  Uiso   1.00
C241   C     0.41023   0.88206   0.19421   0.00000  Uiso   1.00
C242   C     0.08988   0.78437   0.13942   0.00000  Uiso   1.00
C243   C     0.38363   0.83683   0.16399   0.00000  Uiso   1.00
C244   C     0.11637   0.82982   0.16918   0.00000  Uiso   1.00
C245   C     0.40274   0.79230   0.13320   0.00000  Uiso   1.00
C246   C     0.09718   0.87468   0.19883   0.00000  Uiso   1.00
C247   C     0.44896   0.79037   0.13525   0.00000  Uiso   1.00
C248   C     0.05097   0.87663   0.19637   0.00000  Uiso   1.00
C249   C     0.47657   0.83509   0.16450   0.00000  Uiso   1.00
C250   C     0.02339   0.83181   0.16720   0.00000  Uiso   1.00
C251   C     0.45731   0.88282   0.19115   0.00000  Uiso   1.00
C252   C     0.04265   0.78392   0.14108   0.00000  Uiso   1.00
C253   C     0.46747   0.74320   0.11081   0.00000  Uiso   1.00
C254   C     0.03242   0.92386   0.22055   0.00000  Uiso   1.00
Cu255  Cu    0.25501   0.83913   0.22813   0.00000  Uiso   1.00
Cu256  Cu    0.24500   0.82754   0.10521   0.00000  Uiso   1.00
H257   H     0.38136   0.75791   0.11078   0.00000  Uiso   1.00
H258   H     0.11852   0.90920   0.22096   0.00000  Uiso   1.00
H259   H     0.44534   0.70886   0.09084   0.00000  Uiso   1.00
H260   H     0.05436   0.95841   0.24045   0.00000  Uiso   1.00
H261   H     0.21520   0.79261   0.31614   0.00000  Uiso   1.00
H262   H     0.28480   0.87406   0.01719   0.00000  Uiso   1.00
N263   N     0.23745   0.81881   0.01284   0.00000  Uiso   1.00
N264   N     0.26256   0.84786   0.32049   0.00000  Uiso   1.00
O265   O     0.25326   0.76204   0.20659   0.00000  Uiso   1.00
O266   O     0.24675   0.90462   0.12674   0.00000  Uiso   1.00
O267   O     0.24480   0.75226   0.10279   0.00000  Uiso   1.00
O268   O     0.25520   0.91441   0.23055   0.00000  Uiso   1.00
O269   O     0.18936   0.83821   0.21857   0.00000  Uiso   1.00
O270   O     0.31065   0.82845   0.11476   0.00000  Uiso   1.00
O271   O     0.18090   0.82843   0.11477   0.00000  Uiso   1.00
O272   O     0.31910   0.83824   0.21857   0.00000  Uiso   1.00
N273   N     0.38968   0.92553   0.23059   0.00000  Uiso   1.00
H274   H     0.36445   0.93746   0.20293   0.00000  Uiso   1.00
H275   H     0.37539   0.91359   0.26704   0.00000  Uiso   1.00
N276   N     0.11085   0.74017   0.10525   0.00000  Uiso   1.00
H277   H     0.12612   0.75099   0.06885   0.00000  Uiso   1.00
H278   H     0.13530   0.72872   0.13448   0.00000  Uiso   1.00
C279   C     0.02949   0.68463   0.09951   0.00000  Uiso   1.00
H280   H     0.05822   0.67386   0.12515   0.00000  Uiso   1.00
O281   O     0.00940   0.98431   0.05868   0.00000  Uiso   1.00
C282   C     0.47121   0.98226   0.23333   0.00000  Uiso   1.00
H283   H     0.48742   0.67627   0.27352   0.00000  Uiso   1.00
O284   O     0.44333   0.99789   0.20028   0.00000  Uiso   1.00
N285   N     0.22105   0.98111   0.08623   0.00000  Uiso   1.00
H286   H     0.24000   0.98628   0.05016   0.00000  Uiso   1.00
H287   H     0.18962   0.99565   0.07964   0.00000  Uiso   1.00
N288   N     0.27887   0.68557   0.24714   0.00000  Uiso   1.00
H289   H     0.25991   0.68037   0.28319   0.00000  Uiso   1.00
H290   H     0.31031   0.67107   0.25376   0.00000  Uiso   1.00
C291   C     0.74817   0.73346   0.15135   0.00000  Uiso   1.00
C292   C     0.75182   0.93321   0.18198   0.00000  Uiso   1.00
C293   C     0.51373   0.73847   0.11570   0.00000  Uiso   1.00
C294   C     0.98623   0.92831   0.21604   0.00000  Uiso   1.00
C295   C     0.74312   0.67782   0.14343   0.00000  Uiso   1.00
C296   C     0.75684   0.98885   0.18992   0.00000  Uiso   1.00
C297   C     0.66454   0.83197   0.16741   0.00000  Uiso   1.00
C298   C     0.83547   0.83467   0.16591   0.00000  Uiso   1.00
C299   C     0.91023   0.88206   0.19421   0.00000  Uiso   1.00
C300   C     0.58988   0.78437   0.13942   0.00000  Uiso   1.00
C301   C     0.88363   0.83683   0.16399   0.00000  Uiso   1.00
C302   C     0.61637   0.82982   0.16918   0.00000  Uiso   1.00
C303   C     0.90274   0.79230   0.13320   0.00000  Uiso   1.00
C304   C     0.59718   0.87468   0.19883   0.00000  Uiso   1.00
C305   C     0.94896   0.79037   0.13525   0.00000  Uiso   1.00
C306   C     0.55097   0.87663   0.19637   0.00000  Uiso   1.00
C307   C     0.97657   0.83509   0.16450   0.00000  Uiso   1.00
C308   C     0.52339   0.83181   0.16720   0.00000  Uiso   1.00
C309   C     0.95731   0.88282   0.19115   0.00000  Uiso   1.00
C310   C     0.54265   0.78392   0.14108   0.00000  Uiso   1.00
C311   C     0.96747   0.74320   0.11081   0.00000  Uiso   1.00
C312   C     0.53242   0.92386   0.22055   0.00000  Uiso   1.00
Cu313  Cu    0.75501   0.83913   0.22813   0.00000  Uiso   1.00
Cu314  Cu    0.74500   0.82754   0.10521   0.00000  Uiso   1.00
H315   H     0.88136   0.75791   0.11078   0.00000  Uiso   1.00
H316   H     0.61852   0.90920   0.22096   0.00000  Uiso   1.00
H317   H     0.94534   0.70886   0.09084   0.00000  Uiso   1.00
H318   H     0.55436   0.95841   0.24045   0.00000  Uiso   1.00
H319   H     0.71520   0.79261   0.31614   0.00000  Uiso   1.00
H320   H     0.78480   0.87406   0.01719   0.00000  Uiso   1.00
N321   N     0.73745   0.81881   0.01284   0.00000  Uiso   1.00
N322   N     0.76256   0.84786   0.32049   0.00000  Uiso   1.00
O323   O     0.75326   0.76204   0.20659   0.00000  Uiso   1.00
O324   O     0.74675   0.90462   0.12674   0.00000  Uiso   1.00
O325   O     0.74480   0.75226   0.10279   0.00000  Uiso   1.00
O326   O     0.75520   0.91441   0.23055   0.00000  Uiso   1.00
O327   O     0.68936   0.83821   0.21857   0.00000  Uiso   1.00
O328   O     0.81065   0.82845   0.11476   0.00000  Uiso   1.00
O329   O     0.68090   0.82843   0.11477   0.00000  Uiso   1.00
O330   O     0.81910   0.83824   0.21857   0.00000  Uiso   1.00
N331   N     0.88968   0.92553   0.23059   0.00000  Uiso   1.00
H332   H     0.86445   0.93746   0.20293   0.00000  Uiso   1.00
H333   H     0.87539   0.91359   0.26704   0.00000  Uiso   1.00
N334   N     0.61085   0.74017   0.10525   0.00000  Uiso   1.00
H335   H     0.62612   0.75099   0.06885   0.00000  Uiso   1.00
H336   H     0.63530   0.72872   0.13448   0.00000  Uiso   1.00
C337   C     0.52949   0.68463   0.09951   0.00000  Uiso   1.00
H338   H     0.55822   0.67386   0.12515   0.00000  Uiso   1.00
O339   O     0.50940   0.98431   0.05868   0.00000  Uiso   1.00
C340   C     0.97121   0.98226   0.23333   0.00000  Uiso   1.00
H341   H     0.98742   0.67627   0.27352   0.00000  Uiso   1.00
O342   O     0.94333   0.99789   0.20028   0.00000  Uiso   1.00
N343   N     0.72105   0.98111   0.08623   0.00000  Uiso   1.00
H344   H     0.74000   0.98628   0.05016   0.00000  Uiso   1.00
H345   H     0.68962   0.99565   0.07964   0.00000  Uiso   1.00
N346   N     0.77887   0.68557   0.24714   0.00000  Uiso   1.00
H347   H     0.75991   0.68037   0.28319   0.00000  Uiso   1.00
H348   H     0.81031   0.67107   0.25376   0.00000  Uiso   1.00
C349   C     0.24817   0.06679   0.48469   0.00000  Uiso   1.00
C350   C     0.25182   0.26654   0.51532   0.00000  Uiso   1.00
C351   C     0.01373   0.07180   0.44903   0.00000  Uiso   1.00
C352   C     0.48623   0.26165   0.54937   0.00000  Uiso   1.00
C353   C     0.24312   0.01115   0.47676   0.00000  Uiso   1.00
C354   C     0.25684   0.32218   0.52325   0.00000  Uiso   1.00
C355   C     0.16454   0.16531   0.50074   0.00000  Uiso   1.00
C356   C     0.33547   0.16800   0.49925   0.00000  Uiso   1.00
C357   C     0.41023   0.21539   0.52754   0.00000  Uiso   1.00
C358   C     0.08988   0.11770   0.47276   0.00000  Uiso   1.00
C359   C     0.38363   0.17016   0.49733   0.00000  Uiso   1.00
C360   C     0.11637   0.16316   0.50251   0.00000  Uiso   1.00
C361   C     0.40274   0.12564   0.46653   0.00000  Uiso   1.00
C362   C     0.09718   0.20802   0.53217   0.00000  Uiso   1.00
C363   C     0.44896   0.12371   0.46859   0.00000  Uiso   1.00
C364   C     0.05097   0.20996   0.52970   0.00000  Uiso   1.00
C365   C     0.47657   0.16842   0.49783   0.00000  Uiso   1.00
C366   C     0.02339   0.16515   0.50053   0.00000  Uiso   1.00
C367   C     0.45731   0.21615   0.52449   0.00000  Uiso   1.00
C368   C     0.04265   0.11725   0.47442   0.00000  Uiso   1.00
C369   C     0.46747   0.07653   0.44414   0.00000  Uiso   1.00
C370   C     0.03242   0.25720   0.55389   0.00000  Uiso   1.00
Cu371  Cu    0.25501   0.17246   0.56146   0.00000  Uiso   1.00
Cu372  Cu    0.24500   0.16087   0.43854   0.00000  Uiso   1.00
H373   H     0.38136   0.09125   0.44411   0.00000  Uiso   1.00
H374   H     0.11852   0.24253   0.55429   0.00000  Uiso   1.00
H375   H     0.44534   0.04219   0.42417   0.00000  Uiso   1.00
H376   H     0.05436   0.29175   0.57378   0.00000  Uiso   1.00
H377   H     0.21520   0.12594   0.64947   0.00000  Uiso   1.00
H378   H     0.28480   0.20739   0.35053   0.00000  Uiso   1.00
N379   N     0.23745   0.15214   0.34617   0.00000  Uiso   1.00
N380   N     0.26256   0.18119   0.65383   0.00000  Uiso   1.00
O381   O     0.25326   0.09538   0.53992   0.00000  Uiso   1.00
O382   O     0.24675   0.23796   0.46008   0.00000  Uiso   1.00
O383   O     0.24480   0.08559   0.43612   0.00000  Uiso   1.00
O384   O     0.25520   0.24774   0.56388   0.00000  Uiso   1.00
O385   O     0.18936   0.17155   0.55191   0.00000  Uiso   1.00
O386   O     0.31065   0.16179   0.44809   0.00000  Uiso   1.00
O387   O     0.18090   0.16176   0.44810   0.00000  Uiso   1.00
O388   O     0.31910   0.17157   0.55190   0.00000  Uiso   1.00
N389   N     0.38968   0.25886   0.56393   0.00000  Uiso   1.00
H390   H     0.36445   0.27079   0.53626   0.00000  Uiso   1.00
H391   H     0.37539   0.24693   0.60037   0.00000  Uiso   1.00
N392   N     0.11085   0.07350   0.43858   0.00000  Uiso   1.00
H393   H     0.12612   0.08433   0.40218   0.00000  Uiso   1.00
H394   H     0.13530   0.06206   0.46781   0.00000  Uiso   1.00
C395   C     0.02949   0.01796   0.43284   0.00000  Uiso   1.00
H396   H     0.05822   0.00720   0.45849   0.00000  Uiso   1.00
O397   O     0.00940   0.31764   0.39201   0.00000  Uiso   1.00
C398   C     0.47121   0.31559   0.56666   0.00000  Uiso   1.00
H399   H     0.48742   0.00961   0.60686   0.00000  Uiso   1.00
O400   O     0.44333   0.33122   0.53361   0.00000  Uiso   1.00
N401   N     0.22105   0.31444   0.41956   0.00000  Uiso   1.00
H402   H     0.24000   0.31961   0.38350   0.00000  Uiso   1.00
H403   H     0.18962   0.32898   0.41297   0.00000  Uiso   1.00
N404   N     0.27887   0.01890   0.58048   0.00000  Uiso   1.00
H405   H     0.25991   0.01370   0.61652   0.00000  Uiso   1.00
H406   H     0.31031   0.00440   0.58710   0.00000  Uiso   1.00
C407   C     0.74817   0.06679   0.48469   0.00000  Uiso   1.00
C408   C     0.75182   0.26654   0.51532   0.00000  Uiso   1.00
C409   C     0.51373   0.07180   0.44903   0.00000  Uiso   1.00
C410   C     0.98623   0.26165   0.54937   0.00000  Uiso   1.00
C411   C     0.74312   0.01115   0.47676   0.00000  Uiso   1.00
C412   C     0.75684   0.32218   0.52325   0.00000  Uiso   1.00
C413   C     0.66454   0.16531   0.50074   0.00000  Uiso   1.00
C414   C     0.83547   0.16800   0.49925   0.00000  Uiso   1.00
C415   C     0.91023   0.21539   0.52754   0.00000  Uiso   1.00
C416   C     0.58988   0.11770   0.47276   0.00000  Uiso   1.00
C417   C     0.88363   0.17016   0.49733   0.00000  Uiso   1.00
C418   C     0.61637   0.16316   0.50251   0.00000  Uiso   1.00
C419   C     0.90274   0.12564   0.46653   0.00000  Uiso   1.00
C420   C     0.59718   0.20802   0.53217   0.00000  Uiso   1.00
C421   C     0.94896   0.12371   0.46859   0.00000  Uiso   1.00
C422   C     0.55097   0.20996   0.52970   0.00000  Uiso   1.00
C423   C     0.97657   0.16842   0.49783   0.00000  Uiso   1.00
C424   C     0.52339   0.16515   0.50053   0.00000  Uiso   1.00
C425   C     0.95731   0.21615   0.52449   0.00000  Uiso   1.00
C426   C     0.54265   0.11725   0.47442   0.00000  Uiso   1.00
C427   C     0.96747   0.07653   0.44414   0.00000  Uiso   1.00
C428   C     0.53242   0.25720   0.55389   0.00000  Uiso   1.00
Cu429  Cu    0.75501   0.17246   0.56146   0.00000  Uiso   1.00
Cu430  Cu    0.74500   0.16087   0.43854   0.00000  Uiso   1.00
H431   H     0.88136   0.09125   0.44411   0.00000  Uiso   1.00
H432   H     0.61852   0.24253   0.55429   0.00000  Uiso   1.00
H433   H     0.94534   0.04219   0.42417   0.00000  Uiso   1.00
H434   H     0.55436   0.29175   0.57378   0.00000  Uiso   1.00
H435   H     0.71520   0.12594   0.64947   0.00000  Uiso   1.00
H436   H     0.78480   0.20739   0.35053   0.00000  Uiso   1.00
N437   N     0.73745   0.15214   0.34617   0.00000  Uiso   1.00
N438   N     0.76256   0.18119   0.65383   0.00000  Uiso   1.00
O439   O     0.75326   0.09538   0.53992   0.00000  Uiso   1.00
O440   O     0.74675   0.23796   0.46008   0.00000  Uiso   1.00
O441   O     0.74480   0.08559   0.43612   0.00000  Uiso   1.00
O442   O     0.75520   0.24774   0.56388   0.00000  Uiso   1.00
O443   O     0.68936   0.17155   0.55191   0.00000  Uiso   1.00
O444   O     0.81065   0.16179   0.44809   0.00000  Uiso   1.00
O445   O     0.68090   0.16176   0.44810   0.00000  Uiso   1.00
O446   O     0.81910   0.17157   0.55190   0.00000  Uiso   1.00
N447   N     0.88968   0.25886   0.56393   0.00000  Uiso   1.00
H448   H     0.86445   0.27079   0.53626   0.00000  Uiso   1.00
H449   H     0.87539   0.24693   0.60037   0.00000  Uiso   1.00
N450   N     0.61085   0.07350   0.43858   0.00000  Uiso   1.00
H451   H     0.62612   0.08433   0.40218   0.00000  Uiso   1.00
H452   H     0.63530   0.06206   0.46781   0.00000  Uiso   1.00
C453   C     0.52949   0.01796   0.43284   0.00000  Uiso   1.00
H454   H     0.55822   0.00720   0.45849   0.00000  Uiso   1.00
O455   O     0.50940   0.31764   0.39201   0.00000  Uiso   1.00
C456   C     0.97121   0.31559   0.56666   0.00000  Uiso   1.00
H457   H     0.98742   0.00961   0.60686   0.00000  Uiso   1.00
O458   O     0.94333   0.33122   0.53361   0.00000  Uiso   1.00
N459   N     0.72105   0.31444   0.41956   0.00000  Uiso   1.00
H460   H     0.74000   0.31961   0.38350   0.00000  Uiso   1.00
H461   H     0.68962   0.32898   0.41297   0.00000  Uiso   1.00
N462   N     0.77887   0.01890   0.58048   0.00000  Uiso   1.00
H463   H     0.75991   0.01370   0.61652   0.00000  Uiso   1.00
H464   H     0.81031   0.00440   0.58710   0.00000  Uiso   1.00
C465   C     0.24817   0.40012   0.48469   0.00000  Uiso   1.00
C466   C     0.25182   0.59988   0.51532   0.00000  Uiso   1.00
C467   C     0.01373   0.40514   0.44903   0.00000  Uiso   1.00
C468   C     0.48623   0.59498   0.54937   0.00000  Uiso   1.00
C469   C     0.24312   0.34448   0.47676   0.00000  Uiso   1.00
C470   C     0.25684   0.65552   0.52325   0.00000  Uiso   1.00
C471   C     0.16454   0.49864   0.50074   0.00000  Uiso   1.00
C472   C     0.33547   0.50133   0.49925   0.00000  Uiso   1.00
C473   C     0.41023   0.54872   0.52754   0.00000  Uiso   1.00
C474   C     0.08988   0.45104   0.47276   0.00000  Uiso   1.00
C475   C     0.38363   0.50350   0.49733   0.00000  Uiso   1.00
C476   C     0.11637   0.49649   0.50251   0.00000  Uiso   1.00
C477   C     0.40274   0.45897   0.46653   0.00000  Uiso   1.00
C478   C     0.09718   0.54135   0.53217   0.00000  Uiso   1.00
C479   C     0.44896   0.45704   0.46859   0.00000  Uiso   1.00
C480   C     0.05097   0.54330   0.52970   0.00000  Uiso   1.00
C481   C     0.47657   0.50175   0.49783   0.00000  Uiso   1.00
C482   C     0.02339   0.49848   0.50053   0.00000  Uiso   1.00
C483   C     0.45731   0.54948   0.52449   0.00000  Uiso   1.00
C484   C     0.04265   0.45058   0.47442   0.00000  Uiso   1.00
C485   C     0.46747   0.40986   0.44414   0.00000  Uiso   1.00
C486   C     0.03242   0.59053   0.55389   0.00000  Uiso   1.00
Cu487  Cu    0.25501   0.50579   0.56146   0.00000  Uiso   1.00
Cu488  Cu    0.24500   0.49421   0.43854   0.00000  Uiso   1.00
H489   H     0.38136   0.42458   0.44411   0.00000  Uiso   1.00
H490   H     0.11852   0.57586   0.55429   0.00000  Uiso   1.00
H491   H     0.44534   0.37552   0.42417   0.00000  Uiso   1.00
H492   H     0.05436   0.62508   0.57378   0.00000  Uiso   1.00
H493   H     0.21520   0.45927   0.64947   0.00000  Uiso   1.00
H494   H     0.28480   0.54073   0.35053   0.00000  Uiso   1.00
N495   N     0.23745   0.48547   0.34617   0.00000  Uiso   1.00
N496   N     0.26256   0.51453   0.65383   0.00000  Uiso   1.00
O497   O     0.25326   0.42871   0.53992   0.00000  Uiso   1.00
O498   O     0.24675   0.57129   0.46008   0.00000  Uiso   1.00
O499   O     0.24480   0.41892   0.43612   0.00000  Uiso   1.00
O500   O     0.25520   0.58108   0.56388   0.00000  Uiso   1.00
O501   O     0.18936   0.50488   0.55191   0.00000  Uiso   1.00
O502   O     0.31065   0.49512   0.44809   0.00000  Uiso   1.00
O503   O     0.18090   0.49510   0.44810   0.00000  Uiso   1.00
O504   O     0.31910   0.50490   0.55190   0.00000  Uiso   1.00
N505   N     0.38968   0.59219   0.56393   0.00000  Uiso   1.00
H506   H     0.36445   0.60413   0.53626   0.00000  Uiso   1.00
H507   H     0.37539   0.58026   0.60037   0.00000  Uiso   1.00
N508   N     0.11085   0.40684   0.43858   0.00000  Uiso   1.00
H509   H     0.12612   0.41766   0.40218   0.00000  Uiso   1.00
H510   H     0.13530   0.39539   0.46781   0.00000  Uiso   1.00
C511   C     0.02949   0.35129   0.43284   0.00000  Uiso   1.00
H512   H     0.05822   0.34053   0.45849   0.00000  Uiso   1.00
O513   O     0.00940   0.65098   0.39201   0.00000  Uiso   1.00
C514   C     0.47121   0.64892   0.56666   0.00000  Uiso   1.00
H515   H     0.48742   0.34294   0.60686   0.00000  Uiso   1.00
O516   O     0.44333   0.66456   0.53361   0.00000  Uiso   1.00
N517   N     0.22105   0.64777   0.41956   0.00000  Uiso   1.00
H518   H     0.24000   0.65294   0.38350   0.00000  Uiso   1.00
H519   H     0.18962   0.66232   0.41297   0.00000  Uiso   1.00
N520   N     0.27887   0.35224   0.58048   0.00000  Uiso   1.00
H521   H     0.25991   0.34704   0.61652   0.00000  Uiso   1.00
H522   H     0.31031   0.33773   0.58710   0.00000  Uiso   1.00
C523   C     0.74817   0.40012   0.48469   0.00000  Uiso   1.00
C524   C     0.75182   0.59988   0.51532   0.00000  Uiso   1.00
C525   C     0.51373   0.40514   0.44903   0.00000  Uiso   1.00
C526   C     0.98623   0.59498   0.54937   0.00000  Uiso   1.00
C527   C     0.74312   0.34448   0.47676   0.00000  Uiso   1.00
C528   C     0.75684   0.65552   0.52325   0.00000  Uiso   1.00
C529   C     0.66454   0.49864   0.50074   0.00000  Uiso   1.00
C530   C     0.83547   0.50133   0.49925   0.00000  Uiso   1.00
C531   C     0.91023   0.54872   0.52754   0.00000  Uiso   1.00
C532   C     0.58988   0.45104   0.47276   0.00000  Uiso   1.00
C533   C     0.88363   0.50350   0.49733   0.00000  Uiso   1.00
C534   C     0.61637   0.49649   0.50251   0.00000  Uiso   1.00
C535   C     0.90274   0.45897   0.46653   0.00000  Uiso   1.00
C536   C     0.59718   0.54135   0.53217   0.00000  Uiso   1.00
C537   C     0.94896   0.45704   0.46859   0.00000  Uiso   1.00
C538   C     0.55097   0.54330   0.52970   0.00000  Uiso   1.00
C539   C     0.97657   0.50175   0.49783   0.00000  Uiso   1.00
C540   C     0.52339   0.49848   0.50053   0.00000  Uiso   1.00
C541   C     0.95731   0.54948   0.52449   0.00000  Uiso   1.00
C542   C     0.54265   0.45058   0.47442   0.00000  Uiso   1.00
C543   C     0.96747   0.40986   0.44414   0.00000  Uiso   1.00
C544   C     0.53242   0.59053   0.55389   0.00000  Uiso   1.00
Cu545  Cu    0.75501   0.50579   0.56146   0.00000  Uiso   1.00
Cu546  Cu    0.74500   0.49421   0.43854   0.00000  Uiso   1.00
H547   H     0.88136   0.42458   0.44411   0.00000  Uiso   1.00
H548   H     0.61852   0.57586   0.55429   0.00000  Uiso   1.00
H549   H     0.94534   0.37552   0.42417   0.00000  Uiso   1.00
H550   H     0.55436   0.62508   0.57378   0.00000  Uiso   1.00
H551   H     0.71520   0.45927   0.64947   0.00000  Uiso   1.00
H552   H     0.78480   0.54073   0.35053   0.00000  Uiso   1.00
N553   N     0.73745   0.48547   0.34617   0.00000  Uiso   1.00
N554   N     0.76256   0.51453   0.65383   0.00000  Uiso   1.00
O555   O     0.75326   0.42871   0.53992   0.00000  Uiso   1.00
O556   O     0.74675   0.57129   0.46008   0.00000  Uiso   1.00
O557   O     0.74480   0.41892   0.43612   0.00000  Uiso   1.00
O558   O     0.75520   0.58108   0.56388   0.00000  Uiso   1.00
O559   O     0.68936   0.50488   0.55191   0.00000  Uiso   1.00
O560   O     0.81065   0.49512   0.44809   0.00000  Uiso   1.00
O561   O     0.68090   0.49510   0.44810   0.00000  Uiso   1.00
O562   O     0.81910   0.50490   0.55190   0.00000  Uiso   1.00
N563   N     0.88968   0.59219   0.56393   0.00000  Uiso   1.00
H564   H     0.86445   0.60413   0.53626   0.00000  Uiso   1.00
H565   H     0.87539   0.58026   0.60037   0.00000  Uiso   1.00
N566   N     0.61085   0.40684   0.43858   0.00000  Uiso   1.00
H567   H     0.62612   0.41766   0.40218   0.00000  Uiso   1.00
H568   H     0.63530   0.39539   0.46781   0.00000  Uiso   1.00
C569   C     0.52949   0.35129   0.43284   0.00000  Uiso   1.00
H570   H     0.55822   0.34053   0.45849   0.00000  Uiso   1.00
O571   O     0.50940   0.65098   0.39201   0.00000  Uiso   1.00
C572   C     0.97121   0.64892   0.56666   0.00000  Uiso   1.00
H573   H     0.98742   0.34294   0.60686   0.00000  Uiso   1.00
O574   O     0.94333   0.66456   0.53361   0.00000  Uiso   1.00
N575   N     0.72105   0.64777   0.41956   0.00000  Uiso   1.00
H576   H     0.74000   0.65294   0.38350   0.00000  Uiso   1.00
H577   H     0.68962   0.66232   0.41297   0.00000  Uiso   1.00
N578   N     0.77887   0.35224   0.58048   0.00000  Uiso   1.00
H579   H     0.75991   0.34704   0.61652   0.00000  Uiso   1.00
H580   H     0.81031   0.33773   0.58710   0.00000  Uiso   1.00
C581   C     0.24817   0.73346   0.48469   0.00000  Uiso   1.00
C582   C     0.25182   0.93321   0.51532   0.00000  Uiso   1.00
C583   C     0.01373   0.73847   0.44903   0.00000  Uiso   1.00
C584   C     0.48623   0.92831   0.54937   0.00000  Uiso   1.00
C585   C     0.24312   0.67782   0.47676   0.00000  Uiso   1.00
C586   C     0.25684   0.98885   0.52325   0.00000  Uiso   1.00
C587   C     0.16454   0.83197   0.50074   0.00000  Uiso   1.00
C588   C     0.33547   0.83467   0.49925   0.00000  Uiso   1.00
C589   C     0.41023   0.88206   0.52754   0.00000  Uiso   1.00
C590   C     0.08988   0.78437   0.47276   0.00000  Uiso   1.00
C591   C     0.38363   0.83683   0.49733   0.00000  Uiso   1.00
C592   C     0.11637   0.82982   0.50251   0.00000  Uiso   1.00
C593   C     0.40274   0.79230   0.46653   0.00000  Uiso   1.00
C594   C     0.09718   0.87468   0.53217   0.00000  Uiso   1.00
C595   C     0.44896   0.79037   0.46859   0.00000  Uiso   1.00
C596   C     0.05097   0.87663   0.52970   0.00000  Uiso   1.00
C597   C     0.47657   0.83509   0.49783   0.00000  Uiso   1.00
C598   C     0.02339   0.83181   0.50053   0.00000  Uiso   1.00
C599   C     0.45731   0.88282   0.52449   0.00000  Uiso   1.00
C600   C     0.04265   0.78392   0.47442   0.00000  Uiso   1.00
C601   C     0.46747   0.74320   0.44414   0.00000  Uiso   1.00
C602   C     0.03242   0.92386   0.55389   0.00000  Uiso   1.00
Cu603  Cu    0.25501   0.83913   0.56146   0.00000  Uiso   1.00
Cu604  Cu    0.24500   0.82754   0.43854   0.00000  Uiso   1.00
H605   H     0.38136   0.75791   0.44411   0.00000  Uiso   1.00
H606   H     0.11852   0.90920   0.55429   0.00000  Uiso   1.00
H607   H     0.44534   0.70886   0.42417   0.00000  Uiso   1.00
H608   H     0.05436   0.95841   0.57378   0.00000  Uiso   1.00
H609   H     0.21520   0.79261   0.64947   0.00000  Uiso   1.00
H610   H     0.28480   0.87406   0.35053   0.00000  Uiso   1.00
N611   N     0.23745   0.81881   0.34617   0.00000  Uiso   1.00
N612   N     0.26256   0.84786   0.65383   0.00000  Uiso   1.00
O613   O     0.25326   0.76204   0.53992   0.00000  Uiso   1.00
O614   O     0.24675   0.90462   0.46008   0.00000  Uiso   1.00
O615   O     0.24480   0.75226   0.43612   0.00000  Uiso   1.00
O616   O     0.25520   0.91441   0.56388   0.00000  Uiso   1.00
O617   O     0.18936   0.83821   0.55191   0.00000  Uiso   1.00
O618   O     0.31065   0.82845   0.44809   0.00000  Uiso   1.00
O619   O     0.18090   0.82843   0.44810   0.00000  Uiso   1.00
O620   O     0.31910   0.83824   0.55190   0.00000  Uiso   1.00
N621   N     0.38968   0.92553   0.56393   0.00000  Uiso   1.00
H622   H     0.36445   0.93746   0.53626   0.00000  Uiso   1.00
H623   H     0.37539   0.91359   0.60037   0.00000  Uiso   1.00
N624   N     0.11085   0.74017   0.43858   0.00000  Uiso   1.00
H625   H     0.12612   0.75099   0.40218   0.00000  Uiso   1.00
H626   H     0.13530   0.72872   0.46781   0.00000  Uiso   1.00
C627   C     0.02949   0.68463   0.43284   0.00000  Uiso   1.00
H628   H     0.05822   0.67386   0.45849   0.00000  Uiso   1.00
O629   O     0.00940   0.98431   0.39201   0.00000  Uiso   1.00
C630   C     0.47121   0.98226   0.56666   0.00000  Uiso   1.00
H631   H     0.48742   0.67627   0.60686   0.00000  Uiso   1.00
O632   O     0.44333   0.99789   0.53361   0.00000  Uiso   1.00
N633   N     0.22105   0.98111   0.41956   0.00000  Uiso   1.00
H634   H     0.24000   0.98628   0.38350   0.00000  Uiso   1.00
H635   H     0.18962   0.99565   0.41297   0.00000  Uiso   1.00
N636   N     0.27887   0.68557   0.58048   0.00000  Uiso   1.00
H637   H     0.25991   0.68037   0.61652   0.00000  Uiso   1.00
H638   H     0.31031   0.67107   0.58710   0.00000  Uiso   1.00
C639   C     0.74817   0.73346   0.48469   0.00000  Uiso   1.00
C640   C     0.75182   0.93321   0.51532   0.00000  Uiso   1.00
C641   C     0.51373   0.73847   0.44903   0.00000  Uiso   1.00
C642   C     0.98623   0.92831   0.54937   0.00000  Uiso   1.00
C643   C     0.74312   0.67782   0.47676   0.00000  Uiso   1.00
C644   C     0.75684   0.98885   0.52325   0.00000  Uiso   1.00
C645   C     0.66454   0.83197   0.50074   0.00000  Uiso   1.00
C646   C     0.83547   0.83467   0.49925   0.00000  Uiso   1.00
C647   C     0.91023   0.88206   0.52754   0.00000  Uiso   1.00
C648   C     0.58988   0.78437   0.47276   0.00000  Uiso   1.00
C649   C     0.88363   0.83683   0.49733   0.00000  Uiso   1.00
C650   C     0.61637   0.82982   0.50251   0.00000  Uiso   1.00
C651   C     0.90274   0.79230   0.46653   0.00000  Uiso   1.00
C652   C     0.59718   0.87468   0.53217   0.00000  Uiso   1.00
C653   C     0.94896   0.79037   0.46859   0.00000  Uiso   1.00
C654   C     0.55097   0.87663   0.52970   0.00000  Uiso   1.00
C655   C     0.97657   0.83509   0.49783   0.00000  Uiso   1.00
C656   C     0.52339   0.83181   0.50053   0.00000  Uiso   1.00
C657   C     0.95731   0.88282   0.52449   0.00000  Uiso   1.00
C658   C     0.54265   0.78392   0.47442   0.00000  Uiso   1.00
C659   C     0.96747   0.74320   0.44414   0.00000  Uiso   1.00
C660   C     0.53242   0.92386   0.55389   0.00000  Uiso   1.00
Cu661  Cu    0.75501   0.83913   0.56146   0.00000  Uiso   1.00
Cu662  Cu    0.74500   0.82754   0.43854   0.00000  Uiso   1.00
H663   H     0.88136   0.75791   0.44411   0.00000  Uiso   1.00
H664   H     0.61852   0.90920   0.55429   0.00000  Uiso   1.00
H665   H     0.94534   0.70886   0.42417   0.00000  Uiso   1.00
H666   H     0.55436   0.95841   0.57378   0.00000  Uiso   1.00
H667   H     0.71520   0.79261   0.64947   0.00000  Uiso   1.00
H668   H     0.78480   0.87406   0.35053   0.00000  Uiso   1.00
N669   N     0.73745   0.81881   0.34617   0.00000  Uiso   1.00
N670   N     0.76256   0.84786   0.65383   0.00000  Uiso   1.00
O671   O     0.75326   0.76204   0.53992   0.00000  Uiso   1.00
O672   O     0.74675   0.90462   0.46008   0.00000  Uiso   1.00
O673   O     0.74480   0.75226   0.43612   0.00000  Uiso   1.00
O674   O     0.75520   0.91441   0.56388   0.00000  Uiso   1.00
O675   O     0.68936   0.83821   0.55191   0.00000  Uiso   1.00
O676   O     0.81065   0.82845   0.44809   0.00000  Uiso   1.00
O677   O     0.68090   0.82843   0.44810   0.00000  Uiso   1.00
O678   O     0.81910   0.83824   0.55190   0.00000  Uiso   1.00
N679   N     0.88968   0.92553   0.56393   0.00000  Uiso   1.00
H680   H     0.86445   0.93746   0.53626   0.00000  Uiso   1.00
H681   H     0.87539   0.91359   0.60037   0.00000  Uiso   1.00
N682   N     0.61085   0.74017   0.43858   0.00000  Uiso   1.00
H683   H     0.62612   0.75099   0.40218   0.00000  Uiso   1.00
H684   H     0.63530   0.72872   0.46781   0.00000  Uiso   1.00
C685   C     0.52949   0.68463   0.43284   0.00000  Uiso   1.00
H686   H     0.55822   0.67386   0.45849   0.00000  Uiso   1.00
O687   O     0.50940   0.98431   0.39201   0.00000  Uiso   1.00
C688   C     0.97121   0.98226   0.56666   0.00000  Uiso   1.00
H689   H     0.98742   0.67627   0.60686   0.00000  Uiso   1.00
O690   O     0.94333   0.99789   0.53361   0.00000  Uiso   1.00
N691   N     0.72105   0.98111   0.41956   0.00000  Uiso   1.00
H692   H     0.74000   0.98628   0.38350   0.00000  Uiso   1.00
H693   H     0.68962   0.99565   0.41297   0.00000  Uiso   1.00
N694   N     0.77887   0.68557   0.58048   0.00000  Uiso   1.00
H695   H     0.75991   0.68037   0.61652   0.00000  Uiso   1.00
H696   H     0.81031   0.67107   0.58710   0.00000  Uiso   1.00
C697   C     0.24817   0.06679   0.81802   0.00000  Uiso   1.00
C698   C     0.25182   0.26654   0.84865   0.00000  Uiso   1.00
C699   C     0.01373   0.07180   0.78237   0.00000  Uiso   1.00
C700   C     0.48623   0.26165   0.88271   0.00000  Uiso   1.00
C701   C     0.24312   0.01115   0.81009   0.00000  Uiso   1.00
C702   C     0.25684   0.32218   0.85659   0.00000  Uiso   1.00
C703   C     0.16454   0.16531   0.83407   0.00000  Uiso   1.00
C704   C     0.33547   0.16800   0.83258   0.00000  Uiso   1.00
C705   C     0.41023   0.21539   0.86088   0.00000  Uiso   1.00
C706   C     0.08988   0.11770   0.80609   0.00000  Uiso   1.00
C707   C     0.38363   0.17016   0.83066   0.00000  Uiso   1.00
C708   C     0.11637   0.16316   0.83585   0.00000  Uiso   1.00
C709   C     0.40274   0.12564   0.79987   0.00000  Uiso   1.00
C710   C     0.09718   0.20802   0.86550   0.00000  Uiso   1.00
C711   C     0.44896   0.12371   0.80192   0.00000  Uiso   1.00
C712   C     0.05097   0.20996   0.86303   0.00000  Uiso   1.00
C713   C     0.47657   0.16842   0.83116   0.00000  Uiso   1.00
C714   C     0.02339   0.16515   0.83387   0.00000  Uiso   1.00
C715   C     0.45731   0.21615   0.85782   0.00000  Uiso   1.00
C716   C     0.04265   0.11725   0.80775   0.00000  Uiso   1.00
C717   C     0.46747   0.07653   0.77747   0.00000  Uiso   1.00
C718   C     0.03242   0.25720   0.88722   0.00000  Uiso   1.00
Cu719  Cu    0.25501   0.17246   0.89479   0.00000  Uiso   1.00
Cu720  Cu    0.24500   0.16087   0.77187   0.00000  Uiso   1.00
H721   H     0.38136   0.09125   0.77744   0.00000  Uiso   1.00
H722   H     0.11852   0.24253   0.88762   0.00000  Uiso   1.00
H723   H     0.44534   0.04219   0.75751   0.00000  Uiso   1.00
H724   H     0.05436   0.29175   0.90711   0.00000  Uiso   1.00
H725   H     0.21520   0.12594   0.98281   0.00000  Uiso   1.00
H726   H     0.28480   0.20739   0.68386   0.00000  Uiso   1.00
N727   N     0.23745   0.15214   0.67951   0.00000  Uiso   1.00
N728   N     0.26256   0.18119   0.98716   0.00000  Uiso   1.00
O729   O     0.25326   0.09538   0.87326   0.00000  Uiso   1.00
O730   O     0.24675   0.23796   0.79341   0.00000  Uiso   1.00
O731   O     0.24480   0.08559   0.76945   0.00000  Uiso   1.00
O732   O     0.25520   0.24774   0.89721   0.00000  Uiso   1.00
O733   O     0.18936   0.17155   0.88524   0.00000  Uiso   1.00
O734   O     0.31065   0.16179   0.78143   0.00000  Uiso   1.00
O735   O     0.18090   0.16176   0.78143   0.00000  Uiso   1.00
O736   O     0.31910   0.17157   0.88523   0.00000  Uiso   1.00
N737   N     0.38968   0.25886   0.89726   0.00000  Uiso   1.00
H738   H     0.36445   0.27079   0.86959   0.00000  Uiso   1.00
H739   H     0.37539   0.24693   0.93371   0.00000  Uiso   1.00
N740   N     0.11085   0.07350   0.77191   0.00000  Uiso   1.00
H741   H     0.12612   0.08433   0.73552   0.00000  Uiso   1.00
H742   H     0.13530   0.06206   0.80115   0.00000  Uiso   1.00
C743   C     0.02949   0.01796   0.76618   0.00000  Uiso   1.00
H744   H     0.05822   0.00720   0.79182   0.00000  Uiso   1.00
O745   O     0.00940   0.31764   0.72535   0.00000  Uiso   1.00
C746   C     0.47121   0.31559   0.89999   0.00000  Uiso   1.00
H747   H     0.48742   0.00961   0.94019   0.00000  Uiso   1.00
O748   O     0.44333   0.33122   0.86695   0.00000  Uiso   1.00
N749   N     0.22105   0.31444   0.75290   0.00000  Uiso   1.00
H750   H     0.24000   0.31961   0.71683   0.00000  Uiso   1.00
H751   H     0.18962   0.32898   0.74630   0.00000  Uiso   1.00
N752   N     0.27887   0.01890   0.91381   0.00000  Uiso   1.00
H753   H     0.25991   0.01370   0.94985   0.00000  Uiso   1.00
H754   H     0.31031   0.00440   0.92043   0.00000  Uiso   1.00
C755   C     0.74817   0.06679   0.81802   0.00000  Uiso   1.00
C756   C     0.75182   0.26654   0.84865   0.00000  Uiso   1.00
C757   C     0.51373   0.07180   0.78237   0.00000  Uiso   1.00
C758   C     0.98623   0.26165   0.88271   0.00000  Uiso   1.00
C759   C     0.74312   0.01115   0.81009   0.00000  Uiso   1.00
C760   C     0.75684   0.32218   0.85659   0.00000  Uiso   1.00
C761   C     0.66454   0.16531   0.83407   0.00000  Uiso   1.00
C762   C     0.83547   0.16800   0.83258   0.00000  Uiso   1.00
C763   C     0.91023   0.21539   0.86088   0.00000  Uiso   1.00
C764   C     0.58988   0.11770   0.80609   0.00000  Uiso   1.00
C765   C     0.88363   0.17016   0.83066   0.00000  Uiso   1.00
C766   C     0.61637   0.16316   0.83585   0.00000  Uiso   1.00
C767   C     0.90274   0.12564   0.79987   0.00000  Uiso   1.00
C768   C     0.59718   0.20802   0.86550   0.00000  Uiso   1.00
C769   C     0.94896   0.12371   0.80192   0.00000  Uiso   1.00
C770   C     0.55097   0.20996   0.86303   0.00000  Uiso   1.00
C771   C     0.97657   0.16842   0.83116   0.00000  Uiso   1.00
C772   C     0.52339   0.16515   0.83387   0.00000  Uiso   1.00
C773   C     0.95731   0.21615   0.85782   0.00000  Uiso   1.00
C774   C     0.54265   0.11725   0.80775   0.00000  Uiso   1.00
C775   C     0.96747   0.07653   0.77747   0.00000  Uiso   1.00
C776   C     0.53242   0.25720   0.88722   0.00000  Uiso   1.00
Cu777  Cu    0.75501   0.17246   0.89479   0.00000  Uiso   1.00
Cu778  Cu    0.74500   0.16087   0.77187   0.00000  Uiso   1.00
H779   H     0.88136   0.09125   0.77744   0.00000  Uiso   1.00
H780   H     0.61852   0.24253   0.88762   0.00000  Uiso   1.00
H781   H     0.94534   0.04219   0.75751   0.00000  Uiso   1.00
H782   H     0.55436   0.29175   0.90711   0.00000  Uiso   1.00
H783   H     0.71520   0.12594   0.98281   0.00000  Uiso   1.00
H784   H     0.78480   0.20739   0.68386   0.00000  Uiso   1.00
N785   N     0.73745   0.15214   0.67951   0.00000  Uiso   1.00
N786   N     0.76256   0.18119   0.98716   0.00000  Uiso   1.00
O787   O     0.75326   0.09538   0.87326   0.00000  Uiso   1.00
O788   O     0.74675   0.23796   0.79341   0.00000  Uiso   1.00
O789   O     0.74480   0.08559   0.76945   0.00000  Uiso   1.00
O790   O     0.75520   0.24774   0.89721   0.00000  Uiso   1.00
O791   O     0.68936   0.17155   0.88524   0.00000  Uiso   1.00
O792   O     0.81065   0.16179   0.78143   0.00000  Uiso   1.00
O793   O     0.68090   0.16176   0.78143   0.00000  Uiso   1.00
O794   O     0.81910   0.17157   0.88523   0.00000  Uiso   1.00
N795   N     0.88968   0.25886   0.89726   0.00000  Uiso   1.00
H796   H     0.86445   0.27079   0.86959   0.00000  Uiso   1.00
H797   H     0.87539   0.24693   0.93371   0.00000  Uiso   1.00
N798   N     0.61085   0.07350   0.77191   0.00000  Uiso   1.00
H799   H     0.62612   0.08433   0.73552   0.00000  Uiso   1.00
H800   H     0.63530   0.06206   0.80115   0.00000  Uiso   1.00
C801   C     0.52949   0.01796   0.76618   0.00000  Uiso   1.00
H802   H     0.55822   0.00720   0.79182   0.00000  Uiso   1.00
O803   O     0.50940   0.31764   0.72535   0.00000  Uiso   1.00
C804   C     0.97121   0.31559   0.89999   0.00000  Uiso   1.00
H805   H     0.98742   0.00961   0.94019   0.00000  Uiso   1.00
O806   O     0.94333   0.33122   0.86695   0.00000  Uiso   1.00
N807   N     0.72105   0.31444   0.75290   0.00000  Uiso   1.00
H808   H     0.74000   0.31961   0.71683   0.00000  Uiso   1.00
H809   H     0.68962   0.32898   0.74630   0.00000  Uiso   1.00
N810   N     0.77887   0.01890   0.91381   0.00000  Uiso   1.00
H811   H     0.75991   0.01370   0.94985   0.00000  Uiso   1.00
H812   H     0.81031   0.00440   0.92043   0.00000  Uiso   1.00
C813   C     0.24817   0.40012   0.81802   0.00000  Uiso   1.00
C814   C     0.25182   0.59988   0.84865   0.00000  Uiso   1.00
C815   C     0.01373   0.40514   0.78237   0.00000  Uiso   1.00
C816   C     0.48623   0.59498   0.88271   0.00000  Uiso   1.00
C817   C     0.24312   0.34448   0.81009   0.00000  Uiso   1.00
C818   C     0.25684   0.65552   0.85659   0.00000  Uiso   1.00
C819   C     0.16454   0.49864   0.83407   0.00000  Uiso   1.00
C820   C     0.33547   0.50133   0.83258   0.00000  Uiso   1.00
C821   C     0.41023   0.54872   0.86088   0.00000  Uiso   1.00
C822   C     0.08988   0.45104   0.80609   0.00000  Uiso   1.00
C823   C     0.38363   0.50350   0.83066   0.00000  Uiso   1.00
C824   C     0.11637   0.49649   0.83585   0.00000  Uiso   1.00
C825   C     0.40274   0.45897   0.79987   0.00000  Uiso   1.00
C826   C     0.09718   0.54135   0.86550   0.00000  Uiso   1.00
C827   C     0.44896   0.45704   0.80192   0.00000  Uiso   1.00
C828   C     0.05097   0.54330   0.86303   0.00000  Uiso   1.00
C829   C     0.47657   0.50175   0.83116   0.00000  Uiso   1.00
C830   C     0.02339   0.49848   0.83387   0.00000  Uiso   1.00
C831   C     0.45731   0.54948   0.85782   0.00000  Uiso   1.00
C832   C     0.04265   0.45058   0.80775   0.00000  Uiso   1.00
C833   C     0.46747   0.40986   0.77747   0.00000  Uiso   1.00
C834   C     0.03242   0.59053   0.88722   0.00000  Uiso   1.00
Cu835  Cu    0.25501   0.50579   0.89479   0.00000  Uiso   1.00
Cu836  Cu    0.24500   0.49421   0.77187   0.00000  Uiso   1.00
H837   H     0.38136   0.42458   0.77744   0.00000  Uiso   1.00
H838   H     0.11852   0.57586   0.88762   0.00000  Uiso   1.00
H839   H     0.44534   0.37552   0.75751   0.00000  Uiso   1.00
H840   H     0.05436   0.62508   0.90711   0.00000  Uiso   1.00
H841   H     0.21520   0.45927   0.98281   0.00000  Uiso   1.00
H842   H     0.28480   0.54073   0.68386   0.00000  Uiso   1.00
N843   N     0.23745   0.48547   0.67951   0.00000  Uiso   1.00
N844   N     0.26256   0.51453   0.98716   0.00000  Uiso   1.00
O845   O     0.25326   0.42871   0.87326   0.00000  Uiso   1.00
O846   O     0.24675   0.57129   0.79341   0.00000  Uiso   1.00
O847   O     0.24480   0.41892   0.76945   0.00000  Uiso   1.00
O848   O     0.25520   0.58108   0.89721   0.00000  Uiso   1.00
O849   O     0.18936   0.50488   0.88524   0.00000  Uiso   1.00
O850   O     0.31065   0.49512   0.78143   0.00000  Uiso   1.00
O851   O     0.18090   0.49510   0.78143   0.00000  Uiso   1.00
O852   O     0.31910   0.50490   0.88523   0.00000  Uiso   1.00
N853   N     0.38968   0.59219   0.89726   0.00000  Uiso   1.00
H854   H     0.36445   0.60413   0.86959   0.00000  Uiso   1.00
H855   H     0.37539   0.58026   0.93371   0.00000  Uiso   1.00
N856   N     0.11085   0.40684   0.77191   0.00000  Uiso   1.00
H857   H     0.12612   0.41766   0.73552   0.00000  Uiso   1.00
H858   H     0.13530   0.39539   0.80115   0.00000  Uiso   1.00
C859   C     0.02949   0.35129   0.76618   0.00000  Uiso   1.00
H860   H     0.05822   0.34053   0.79182   0.00000  Uiso   1.00
O861   O     0.00940   0.65098   0.72535   0.00000  Uiso   1.00
C862   C     0.47121   0.64892   0.89999   0.00000  Uiso   1.00
H863   H     0.48742   0.34294   0.94019   0.00000  Uiso   1.00
O864   O     0.44333   0.66456   0.86695   0.00000  Uiso   1.00
N865   N     0.22105   0.64777   0.75290   0.00000  Uiso   1.00
H866   H     0.24000   0.65294   0.71683   0.00000  Uiso   1.00
H867   H     0.18962   0.66232   0.74630   0.00000  Uiso   1.00
N868   N     0.27887   0.35224   0.91381   0.00000  Uiso   1.00
H869   H     0.25991   0.34704   0.94985   0.00000  Uiso   1.00
H870   H     0.31031   0.33773   0.92043   0.00000  Uiso   1.00
C871   C     0.74817   0.40012   0.81802   0.00000  Uiso   1.00
C872   C     0.75182   0.59988   0.84865   0.00000  Uiso   1.00
C873   C     0.51373   0.40514   0.78237   0.00000  Uiso   1.00
C874   C     0.98623   0.59498   0.88271   0.00000  Uiso   1.00
C875   C     0.74312   0.34448   0.81009   0.00000  Uiso   1.00
C876   C     0.75684   0.65552   0.85659   0.00000  Uiso   1.00
C877   C     0.66454   0.49864   0.83407   0.00000  Uiso   1.00
C878   C     0.83547   0.50133   0.83258   0.00000  Uiso   1.00
C879   C     0.91023   0.54872   0.86088   0.00000  Uiso   1.00
C880   C     0.58988   0.45104   0.80609   0.00000  Uiso   1.00
C881   C     0.88363   0.50350   0.83066   0.00000  Uiso   1.00
C882   C     0.61637   0.49649   0.83585   0.00000  Uiso   1.00
C883   C     0.90274   0.45897   0.79987   0.00000  Uiso   1.00
C884   C     0.59718   0.54135   0.86550   0.00000  Uiso   1.00
C885   C     0.94896   0.45704   0.80192   0.00000  Uiso   1.00
C886   C     0.55097   0.54330   0.86303   0.00000  Uiso   1.00
C887   C     0.97657   0.50175   0.83116   0.00000  Uiso   1.00
C888   C     0.52339   0.49848   0.83387   0.00000  Uiso   1.00
C889   C     0.95731   0.54948   0.85782   0.00000  Uiso   1.00
C890   C     0.54265   0.45058   0.80775   0.00000  Uiso   1.00
C891   C     0.96747   0.40986   0.77747   0.00000  Uiso   1.00
C892   C     0.53242   0.59053   0.88722   0.00000  Uiso   1.00
Cu893  Cu    0.75501   0.50579   0.89479   0.00000  Uiso   1.00
Cu894  Cu    0.74500   0.49421   0.77187   0.00000  Uiso   1.00
H895   H     0.88136   0.42458   0.77744   0.00000  Uiso   1.00
H896   H     0.61852   0.57586   0.88762   0.00000  Uiso   1.00
H897   H     0.94534   0.37552   0.75751   0.00000  Uiso   1.00
H898   H     0.55436   0.62508   0.90711   0.00000  Uiso   1.00
H899   H     0.71520   0.45927   0.98281   0.00000  Uiso   1.00
H900   H     0.78480   0.54073   0.68386   0.00000  Uiso   1.00
N901   N     0.73745   0.48547   0.67951   0.00000  Uiso   1.00
N902   N     0.76256   0.51453   0.98716   0.00000  Uiso   1.00
O903   O     0.75326   0.42871   0.87326   0.00000  Uiso   1.00
O904   O     0.74675   0.57129   0.79341   0.00000  Uiso   1.00
O905   O     0.74480   0.41892   0.76945   0.00000  Uiso   1.00
O906   O     0.75520   0.58108   0.89721   0.00000  Uiso   1.00
O907   O     0.68936   0.50488   0.88524   0.00000  Uiso   1.00
O908   O     0.81065   0.49512   0.78143   0.00000  Uiso   1.00
O909   O     0.68090   0.49510   0.78143   0.00000  Uiso   1.00
O910   O     0.81910   0.50490   0.88523   0.00000  Uiso   1.00
N911   N     0.88968   0.59219   0.89726   0.00000  Uiso   1.00
H912   H     0.86445   0.60413   0.86959   0.00000  Uiso   1.00
H913   H     0.87539   0.58026   0.93371   0.00000  Uiso   1.00
N914   N     0.61085   0.40684   0.77191   0.00000  Uiso   1.00
H915   H     0.62612   0.41766   0.73552   0.00000  Uiso   1.00
H916   H     0.63530   0.39539   0.80115   0.00000  Uiso   1.00
C917   C     0.52949   0.35129   0.76618   0.00000  Uiso   1.00
H918   H     0.55822   0.34053   0.79182   0.00000  Uiso   1.00
O919   O     0.50940   0.65098   0.72535   0.00000  Uiso   1.00
C920   C     0.97121   0.64892   0.89999   0.00000  Uiso   1.00
H921   H     0.98742   0.34294   0.94019   0.00000  Uiso   1.00
O922   O     0.94333   0.66456   0.86695   0.00000  Uiso   1.00
N923   N     0.72105   0.64777   0.75290   0.00000  Uiso   1.00
H924   H     0.74000   0.65294   0.71683   0.00000  Uiso   1.00
H925   H     0.68962   0.66232   0.74630   0.00000  Uiso   1.00
N926   N     0.77887   0.35224   0.91381   0.00000  Uiso   1.00
H927   H     0.75991   0.34704   0.94985   0.00000  Uiso   1.00
H928   H     0.81031   0.33773   0.92043   0.00000  Uiso   1.00
C929   C     0.24817   0.73346   0.81802   0.00000  Uiso   1.00
C930   C     0.25182   0.93321   0.84865   0.00000  Uiso   1.00
C931   C     0.01373   0.73847   0.78237   0.00000  Uiso   1.00
C932   C     0.48623   0.92831   0.88271   0.00000  Uiso   1.00
C933   C     0.24312   0.67782   0.81009   0.00000  Uiso   1.00
C934   C     0.25684   0.98885   0.85659   0.00000  Uiso   1.00
C935   C     0.16454   0.83197   0.83407   0.00000  Uiso   1.00
C936   C     0.33547   0.83467   0.83258   0.00000  Uiso   1.00
C937   C     0.41023   0.88206   0.86088   0.00000  Uiso   1.00
C938   C     0.08988   0.78437   0.80609   0.00000  Uiso   1.00
C939   C     0.38363   0.83683   0.83066   0.00000  Uiso   1.00
C940   C     0.11637   0.82982   0.83585   0.00000  Uiso   1.00
C941   C     0.40274   0.79230   0.79987   0.00000  Uiso   1.00
C942   C     0.09718   0.87468   0.86550   0.00000  Uiso   1.00
C943   C     0.44896   0.79037   0.80192   0.00000  Uiso   1.00
C944   C     0.05097   0.87663   0.86303   0.00000  Uiso   1.00
C945   C     0.47657   0.83509   0.83116   0.00000  Uiso   1.00
C946   C     0.02339   0.83181   0.83387   0.00000  Uiso   1.00
C947   C     0.45731   0.88282   0.85782   0.00000  Uiso   1.00
C948   C     0.04265   0.78392   0.80775   0.00000  Uiso   1.00
C949   C     0.46747   0.74320   0.77747   0.00000  Uiso   1.00
C950   C     0.03242   0.92386   0.88722   0.00000  Uiso   1.00
Cu951  Cu    0.25501   0.83913   0.89479   0.00000  Uiso   1.00
Cu952  Cu    0.24500   0.82754   0.77187   0.00000  Uiso   1.00
H953   H     0.38136   0.75791   0.77744   0.00000  Uiso   1.00
H954   H     0.11852   0.90920   0.88762   0.00000  Uiso   1.00
H955   H     0.44534   0.70886   0.75751   0.00000  Uiso   1.00
H956   H     0.05436   0.95841   0.90711   0.00000  Uiso   1.00
H957   H     0.21520   0.79261   0.98281   0.00000  Uiso   1.00
H958   H     0.28480   0.87406   0.68386   0.00000  Uiso   1.00
N959   N     0.23745   0.81881   0.67951   0.00000  Uiso   1.00
N960   N     0.26256   0.84786   0.98716   0.00000  Uiso   1.00
O961   O     0.25326   0.76204   0.87326   0.00000  Uiso   1.00
O962   O     0.24675   0.90462   0.79341   0.00000  Uiso   1.00
O963   O     0.24480   0.75226   0.76945   0.00000  Uiso   1.00
O964   O     0.25520   0.91441   0.89721   0.00000  Uiso   1.00
O965   O     0.18936   0.83821   0.88524   0.00000  Uiso   1.00
O966   O     0.31065   0.82845   0.78143   0.00000  Uiso   1.00
O967   O     0.18090   0.82843   0.78143   0.00000  Uiso   1.00
O968   O     0.31910   0.83824   0.88523   0.00000  Uiso   1.00
N969   N     0.38968   0.92553   0.89726   0.00000  Uiso   1.00
H970   H     0.36445   0.93746   0.86959   0.00000  Uiso   1.00
H971   H     0.37539   0.91359   0.93371   0.00000  Uiso   1.00
N972   N     0.11085   0.74017   0.77191   0.00000  Uiso   1.00
H973   H     0.12612   0.75099   0.73552   0.00000  Uiso   1.00
H974   H     0.13530   0.72872   0.80115   0.00000  Uiso   1.00
C975   C     0.02949   0.68463   0.76618   0.00000  Uiso   1.00
H976   H     0.05822   0.67386   0.79182   0.00000  Uiso   1.00
O977   O     0.00940   0.98431   0.72535   0.00000  Uiso   1.00
C978   C     0.47121   0.98226   0.89999   0.00000  Uiso   1.00
H979   H     0.48742   0.67627   0.94019   0.00000  Uiso   1.00
O980   O     0.44333   0.99789   0.86695   0.00000  Uiso   1.00
N981   N     0.22105   0.98111   0.75290   0.00000  Uiso   1.00
H982   H     0.24000   0.98628   0.71683   0.00000  Uiso   1.00
H983   H     0.18962   0.99565   0.74630   0.00000  Uiso   1.00
N984   N     0.27887   0.68557   0.91381   0.00000  Uiso   1.00
H985   H     0.25991   0.68037   0.94985   0.00000  Uiso   1.00
H986   H     0.31031   0.67107   0.92043   0.00000  Uiso   1.00
C987   C     0.74817   0.73346   0.81802   0.00000  Uiso   1.00
C988   C     0.75182   0.93321   0.84865   0.00000  Uiso   1.00
C989   C     0.51373   0.73847   0.78237   0.00000  Uiso   1.00
C990   C     0.98623   0.92831   0.88271   0.00000  Uiso   1.00
C991   C     0.74312   0.67782   0.81009   0.00000  Uiso   1.00
C992   C     0.75684   0.98885   0.85659   0.00000  Uiso   1.00
C993   C     0.66454   0.83197   0.83407   0.00000  Uiso   1.00
C994   C     0.83547   0.83467   0.83258   0.00000  Uiso   1.00
C995   C     0.91023   0.88206   0.86088   0.00000  Uiso   1.00
C996   C     0.58988   0.78437   0.80609   0.00000  Uiso   1.00
C997   C     0.88363   0.83683   0.83066   0.00000  Uiso   1.00
C998   C     0.61637   0.82982   0.83585   0.00000  Uiso   1.00
C999   C     0.90274   0.79230   0.79987   0.00000  Uiso   1.00
C1000  C     0.59718   0.87468   0.86550   0.00000  Uiso   1.00
C1001  C     0.94896   0.79037   0.80192   0.00000  Uiso   1.00
C1002  C     0.55097   0.87663   0.86303   0.00000  Uiso   1.00
C1003  C     0.97657   0.83509   0.83116   0.00000  Uiso   1.00
C1004  C     0.52339   0.83181   0.83387   0.00000  Uiso   1.00
C1005  C     0.95731   0.88282   0.85782   0.00000  Uiso   1.00
C1006  C     0.54265   0.78392   0.80775   0.00000  Uiso   1.00
C1007  C     0.96747   0.74320   0.77747   0.00000  Uiso   1.00
C1008  C     0.53242   0.92386   0.88722   0.00000  Uiso   1.00
Cu1009 Cu    0.75501   0.83913   0.89479   0.00000  Uiso   1.00
Cu1010 Cu    0.74500   0.82754   0.77187   0.00000  Uiso   1.00
H1011  H     0.88136   0.75791   0.77744   0.00000  Uiso   1.00
H1012  H     0.61852   0.90920   0.88762   0.00000  Uiso   1.00
H1013  H     0.94534   0.70886   0.75751   0.00000  Uiso   1.00
H1014  H     0.55436   0.95841   0.90711   0.00000  Uiso   1.00
H1015  H     0.71520   0.79261   0.98281   0.00000  Uiso   1.00
H1016  H     0.78480   0.87406   0.68386   0.00000  Uiso   1.00
N1017  N     0.73745   0.81881   0.67951   0.00000  Uiso   1.00
N1018  N     0.76256   0.84786   0.98716   0.00000  Uiso   1.00
O1019  O     0.75326   0.76204   0.87326   0.00000  Uiso   1.00
O1020  O     0.74675   0.90462   0.79341   0.00000  Uiso   1.00
O1021  O     0.74480   0.75226   0.76945   0.00000  Uiso   1.00
O1022  O     0.75520   0.91441   0.89721   0.00000  Uiso   1.00
O1023  O     0.68936   0.83821   0.88524   0.00000  Uiso   1.00
O1024  O     0.81065   0.82845   0.78143   0.00000  Uiso   1.00
O1025  O     0.68090   0.82843   0.78143   0.00000  Uiso   1.00
O1026  O     0.81910   0.83824   0.88523   0.00000  Uiso   1.00
N1027  N     0.88968   0.92553   0.89726   0.00000  Uiso   1.00
H1028  H     0.86445   0.93746   0.86959   0.00000  Uiso   1.00
H1029  H     0.87539   0.91359   0.93371   0.00000  Uiso   1.00
N1030  N     0.61085   0.74017   0.77191   0.00000  Uiso   1.00
H1031  H     0.62612   0.75099   0.73552   0.00000  Uiso   1.00
H1032  H     0.63530   0.72872   0.80115   0.00000  Uiso   1.00
C1033  C     0.52949   0.68463   0.76618   0.00000  Uiso   1.00
H1034  H     0.55822   0.67386   0.79182   0.00000  Uiso   1.00
O1035  O     0.50940   0.98431   0.72535   0.00000  Uiso   1.00
C1036  C     0.97121   0.98226   0.89999   0.00000  Uiso   1.00
H1037  H     0.98742   0.67627   0.94019   0.00000  Uiso   1.00
O1038  O     0.94333   0.99789   0.86695   0.00000  Uiso   1.00
N1039  N     0.72105   0.98111   0.75290   0.00000  Uiso   1.00
H1040  H     0.74000   0.98628   0.71683   0.00000  Uiso   1.00
H1041  H     0.68962   0.99565   0.74630   0.00000  Uiso   1.00
N1042  N     0.77887   0.68557   0.91381   0.00000  Uiso   1.00
H1043  H     0.75991   0.68037   0.94985   0.00000  Uiso   1.00
H1044  H     0.81031   0.67107   0.92043   0.00000  Uiso   1.00
loop_
_geom_bond_atom_site_label_1
_geom_bond_atom_site_label_2
_geom_bond_distance
_geom_bond_site_symmetry_2
_ccdc_geom_bond_type
C1     O33     1.288   .     A
C1     C5      1.432   .     S
C1     O35     1.286   .     A
C2     O34     1.288   .     A
C2     C6      1.432   .     S
C2     O36     1.286   .     A
C3     C20     1.426   .     A
C3     C47     1.486   .     S
C3     C79     1.397   1_455 S
C4     C19     1.425   .     A
C4     C50     1.482   .     S
C4     C80     1.393   .     S
C5     C238    1.349   1_545 S
C5     N285    1.441   1_545 S
C6     C121    1.349   .     S
C6     N172    1.441   .     S
C7     O37     1.293   .     A
C7     C12     1.446   .     S
C7     O39     1.290   .     A
C8     O38     1.293   .     A
C8     C11     1.446   .     S
C8     O40     1.290   .     A
C9     N41     1.436   .     S
C9     C11     1.409   .     A
C9     C19     1.417   .     A
C10    C12     1.409   .     A
C10    C20     1.418   .     A
C10    N44     1.436   .     S
C11    C13     1.387   .     A
C12    C14     1.387   .     A
C13    H25     1.086   .     S
C13    C15     1.387   .     A
C14    C16     1.386   .     A
C14    H26     1.086   .     S
C15    C21     1.394   .     A
C15    C17     1.409   .     A
C16    C22     1.395   .     A
C16    C18     1.410   .     A
C17    C19     1.428   .     A
C17    C76     1.408   .     S
C18    C20     1.429   .     A
C18    C75     1.408   1_455 S
C21    H27     1.085   .     S
C21    C61     1.397   .     S
C22    H28     1.086   .     S
C22    C62     1.393   1_455 S
Cu23   Cu24    2.685   .     S
Cu23   N32     2.018   .     S
Cu23   O40     1.948   .     S
Cu23   O36     1.965   .     S
Cu23   O37     1.963   .     S
Cu23   O33     1.971   .     S
Cu24   N31     2.018   .     S
Cu24   O35     1.965   .     S
Cu24   O39     1.948   .     S
Cu24   O38     1.963   .     S
Cu24   O34     1.971   .     S
H29    N379    1.029   .     S
H30    N728    1.029   1_554 S
N31    H725    1.029   1_554 S
N31    N728    1.295   1_554 S
N32    N379    1.295   .     S
N32    H378    1.029   .     S
N41    H42     1.046   .     S
N41    H43     1.045   .     S
N44    H46     1.046   .     S
N44    H45     1.045   .     S
C47    H48     1.084   .     S
C47    O281    1.221   1_545 S
O49    C163    1.221   .     S
C50    O52     1.221   .     D
C50    H167    1.086   .     S
H51    C282    1.086   1_545 S
N53    H55     1.046   .     S
N53    H54     1.046   .     S
N53    C121    1.441   .     S
N56    H58     1.046   .     S
N56    H57     1.046   .     S
N56    C238    1.441   1_545 S
C59    O91     1.288   .     A
C59    C63     1.432   .     S
C59    O93     1.286   .     A
C60    O92     1.288   .     A
C60    C64     1.432   .     S
C60    O94     1.286   .     A
C61    C78     1.426   .     A
C61    C105    1.486   .     S
C62    C77     1.425   .     A
C62    C108    1.482   .     S
C62    C22     1.393   1_655 S
C63    C296    1.349   1_545 S
C63    N343    1.441   1_545 S
C64    C179    1.349   .     S
C64    N230    1.441   .     S
C65    O95     1.293   .     A
C65    C70     1.446   .     S
C65    O97     1.290   .     A
C66    O96     1.293   .     A
C66    C69     1.446   .     S
C66    O98     1.290   .     A
C67    N99     1.436   .     S
C67    C69     1.409   .     A
C67    C77     1.417   .     A
C68    C70     1.409   .     A
C68    C78     1.418   .     A
C68    N102    1.436   .     S
C69    C71     1.387   .     A
C70    C72     1.387   .     A
C71    H83     1.086   .     S
C71    C73     1.387   .     A
C72    C74     1.386   .     A
C72    H84     1.086   .     S
C73    C79     1.394   .     A
C73    C75     1.409   .     A
C74    C80     1.395   .     A
C74    C76     1.410   .     A
C75    C77     1.428   .     A
C75    C18     1.408   1_655 S
C76    C78     1.429   .     A
C79    H85     1.085   .     S
C79    C3      1.397   1_655 S
C80    H86     1.086   .     S
Cu81   Cu82    2.685   .     S
Cu81   N90     2.018   .     S
Cu81   O98     1.948   .     S
Cu81   O94     1.965   .     S
Cu81   O95     1.963   .     S
Cu81   O91     1.971   .     S
Cu82   N89     2.018   .     S
Cu82   O93     1.965   .     S
Cu82   O97     1.948   .     S
Cu82   O96     1.963   .     S
Cu82   O92     1.971   .     S
H87    N437    1.029   .     S
H88    N786    1.029   1_554 S
N89    H783    1.029   1_554 S
N89    N786    1.295   1_554 S
N90    N437    1.295   .     S
N90    H436    1.029   .     S
N99    H100    1.046   .     S
N99    H101    1.045   .     S
N102   H104    1.046   .     S
N102   H103    1.045   .     S
C105   H106    1.084   .     S
C105   O339    1.221   1_545 S
O107   C221    1.221   .     S
C108   O110    1.221   .     D
C108   H225    1.086   .     S
H109   C340    1.086   1_545 S
N111   H113    1.046   .     S
N111   H112    1.046   .     S
N111   C179    1.441   .     S
N114   H116    1.046   .     S
N114   H115    1.046   .     S
N114   C296    1.441   1_545 S
C117   O149    1.288   .     A
C117   C121    1.432   .     S
C117   O151    1.286   .     A
C118   O150    1.288   .     A
C118   C122    1.432   .     S
C118   O152    1.286   .     A
C119   C136    1.426   .     A
C119   C163    1.486   .     S
C119   C195    1.397   1_455 S
C120   C135    1.425   .     A
C120   C166    1.482   .     S
C120   C196    1.393   .     S
C122   C237    1.349   .     S
C122   N288    1.441   .     S
C123   O153    1.293   .     A
C123   C128    1.446   .     S
C123   O155    1.290   .     A
C124   O154    1.293   .     A
C124   C127    1.446   .     S
C124   O156    1.290   .     A
C125   N157    1.436   .     S
C125   C127    1.409   .     A
C125   C135    1.417   .     A
C126   C128    1.409   .     A
C126   C136    1.418   .     A
C126   N160    1.436   .     S
C127   C129    1.387   .     A
C128   C130    1.387   .     A
C129   H141    1.086   .     S
C129   C131    1.387   .     A
C130   C132    1.386   .     A
C130   H142    1.086   .     S
C131   C137    1.394   .     A
C131   C133    1.409   .     A
C132   C138    1.395   .     A
C132   C134    1.410   .     A
C133   C135    1.428   .     A
C133   C192    1.408   .     S
C134   C136    1.429   .     A
C134   C191    1.408   1_455 S
C137   H143    1.085   .     S
C137   C177    1.397   .     S
C138   H144    1.086   .     S
C138   C178    1.393   1_455 S
Cu139  Cu140   2.685   .     S
Cu139  N148    2.018   .     S
Cu139  O156    1.948   .     S
Cu139  O152    1.965   .     S
Cu139  O153    1.963   .     S
Cu139  O149    1.971   .     S
Cu140  N147    2.018   .     S
Cu140  O151    1.965   .     S
Cu140  O155    1.948   .     S
Cu140  O154    1.963   .     S
Cu140  O150    1.971   .     S
H145   N495    1.029   .     S
H146   N844    1.029   1_554 S
N147   H841    1.029   1_554 S
N147   N844    1.295   1_554 S
N148   N495    1.295   .     S
N148   H494    1.029   .     S
N157   H158    1.046   .     S
N157   H159    1.045   .     S
N160   H162    1.046   .     S
N160   H161    1.045   .     S
C163   H164    1.084   .     S
O165   C279    1.221   .     S
C166   O168    1.221   .     D
C166   H283    1.086   .     S
N169   H171    1.046   .     S
N169   H170    1.046   .     S
N169   C237    1.441   .     S
N172   H174    1.046   .     S
N172   H173    1.046   .     S
C175   O207    1.288   .     A
C175   C179    1.432   .     S
C175   O209    1.286   .     A
C176   O208    1.288   .     A
C176   C180    1.432   .     S
C176   O210    1.286   .     A
C177   C194    1.426   .     A
C177   C221    1.486   .     S
C178   C193    1.425   .     A
C178   C224    1.482   .     S
C178   C138    1.393   1_655 S
C180   C295    1.349   .     S
C180   N346    1.441   .     S
C181   O211    1.293   .     A
C181   C186    1.446   .     S
C181   O213    1.290   .     A
C182   O212    1.293   .     A
C182   C185    1.446   .     S
C182   O214    1.290   .     A
C183   N215    1.436   .     S
C183   C185    1.409   .     A
C183   C193    1.417   .     A
C184   C186    1.409   .     A
C184   C194    1.418   .     A
C184   N218    1.436   .     S
C185   C187    1.387   .     A
C186   C188    1.387   .     A
C187   H199    1.086   .     S
C187   C189    1.387   .     A
C188   C190    1.386   .     A
C188   H200    1.086   .     S
C189   C195    1.394   .     A
C189   C191    1.409   .     A
C190   C196    1.395   .     A
C190   C192    1.410   .     A
C191   C193    1.428   .     A
C191   C134    1.408   1_655 S
C192   C194    1.429   .     A
C195   H201    1.085   .     S
C195   C119    1.397   1_655 S
C196   H202    1.086   .     S
Cu197  Cu198   2.685   .     S
Cu197  N206    2.018   .     S
Cu197  O214    1.948   .     S
Cu197  O210    1.965   .     S
Cu197  O211    1.963   .     S
Cu197  O207    1.971   .     S
Cu198  N205    2.018   .     S
Cu198  O209    1.965   .     S
Cu198  O213    1.948   .     S
Cu198  O212    1.963   .     S
Cu198  O208    1.971   .     S
H203   N553    1.029   .     S
H204   N902    1.029   1_554 S
N205   H899    1.029   1_554 S
N205   N902    1.295   1_554 S
N206   N553    1.295   .     S
N206   H552    1.029   .     S
N215   H216    1.046   .     S
N215   H217    1.045   .     S
N218   H220    1.046   .     S
N218   H219    1.045   .     S
C221   H222    1.084   .     S
O223   C337    1.221   .     S
C224   O226    1.221   .     D
C224   H341    1.086   .     S
N227   H229    1.046   .     S
N227   H228    1.046   .     S
N227   C295    1.441   .     S
N230   H232    1.046   .     S
N230   H231    1.046   .     S
C233   O265    1.288   .     A
C233   C237    1.432   .     S
C233   O267    1.286   .     A
C234   O266    1.288   .     A
C234   C238    1.432   .     S
C234   O268    1.286   .     A
C235   C252    1.426   .     A
C235   C279    1.486   .     S
C235   C311    1.397   1_455 S
C236   C251    1.425   .     A
C236   C282    1.482   .     S
C236   C312    1.393   .     S
C238   C5      1.349   1_565 S
C238   N56     1.441   1_565 S
C239   O269    1.293   .     A
C239   C244    1.446   .     S
C239   O271    1.290   .     A
C240   O270    1.293   .     A
C240   C243    1.446   .     S
C240   O272    1.290   .     A
C241   N273    1.436   .     S
C241   C243    1.409   .     A
C241   C251    1.417   .     A
C242   C244    1.409   .     A
C242   C252    1.418   .     A
C242   N276    1.436   .     S
C243   C245    1.387   .     A
C244   C246    1.387   .     A
C245   H257    1.086   .     S
C245   C247    1.387   .     A
C246   C248    1.386   .     A
C246   H258    1.086   .     S
C247   C253    1.394   .     A
C247   C249    1.409   .     A
C248   C254    1.395   .     A
C248   C250    1.410   .     A
C249   C251    1.428   .     A
C249   C308    1.408   .     S
C250   C252    1.429   .     A
C250   C307    1.408   1_455 S
C253   H259    1.085   .     S
C253   C293    1.397   .     S
C254   H260    1.086   .     S
C254   C294    1.393   1_455 S
Cu255  Cu256   2.685   .     S
Cu255  N264    2.018   .     S
Cu255  O272    1.948   .     S
Cu255  O268    1.965   .     S
Cu255  O269    1.963   .     S
Cu255  O265    1.971   .     S
Cu256  N263    2.018   .     S
Cu256  O267    1.965   .     S
Cu256  O271    1.948   .     S
Cu256  O270    1.963   .     S
Cu256  O266    1.971   .     S
H261   N611    1.029   .     S
H262   N960    1.029   1_554 S
N263   H957    1.029   1_554 S
N263   N960    1.295   1_554 S
N264   N611    1.295   .     S
N264   H610    1.029   .     S
N273   H274    1.046   .     S
N273   H275    1.045   .     S
N276   H278    1.046   .     S
N276   H277    1.045   .     S
C279   H280    1.084   .     S
O281   C47     1.221   1_565 S
C282   O284    1.221   .     D
C282   H51     1.086   1_565 S
N285   H287    1.046   .     S
N285   H286    1.046   .     S
N285   C5      1.441   1_565 S
N288   H290    1.046   .     S
N288   H289    1.046   .     S
C291   O323    1.288   .     A
C291   C295    1.432   .     S
C291   O325    1.286   .     A
C292   O324    1.288   .     A
C292   C296    1.432   .     S
C292   O326    1.286   .     A
C293   C310    1.426   .     A
C293   C337    1.486   .     S
C294   C309    1.425   .     A
C294   C340    1.482   .     S
C294   C254    1.393   1_655 S
C296   C63     1.349   1_565 S
C296   N114    1.441   1_565 S
C297   O327    1.293   .     A
C297   C302    1.446   .     S
C297   O329    1.290   .     A
C298   O328    1.293   .     A
C298   C301    1.446   .     S
C298   O330    1.290   .     A
C299   N331    1.436   .     S
C299   C301    1.409   .     A
C299   C309    1.417   .     A
C300   C302    1.409   .     A
C300   C310    1.418   .     A
C300   N334    1.436   .     S
C301   C303    1.387   .     A
C302   C304    1.387   .     A
C303   H315    1.086   .     S
C303   C305    1.387   .     A
C304   C306    1.386   .     A
C304   H316    1.086   .     S
C305   C311    1.394   .     A
C305   C307    1.409   .     A
C306   C312    1.395   .     A
C306   C308    1.410   .     A
C307   C309    1.428   .     A
C307   C250    1.408   1_655 S
C308   C310    1.429   .     A
C311   H317    1.085   .     S
C311   C235    1.397   1_655 S
C312   H318    1.086   .     S
Cu313  Cu314   2.685   .     S
Cu313  N322    2.018   .     S
Cu313  O330    1.948   .     S
Cu313  O326    1.965   .     S
Cu313  O327    1.963   .     S
Cu313  O323    1.971   .     S
Cu314  N321    2.018   .     S
Cu314  O325    1.965   .     S
Cu314  O329    1.948   .     S
Cu314  O328    1.963   .     S
Cu314  O324    1.971   .     S
H319   N669    1.029   .     S
H320   N1018   1.029   1_554 S
N321   H1015   1.029   1_554 S
N321   N1018   1.295   1_554 S
N322   N669    1.295   .     S
N322   H668    1.029   .     S
N331   H332    1.046   .     S
N331   H333    1.045   .     S
N334   H336    1.046   .     S
N334   H335    1.045   .     S
C337   H338    1.084   .     S
O339   C105    1.221   1_565 S
C340   O342    1.221   .     D
C340   H109    1.086   1_565 S
N343   H345    1.046   .     S
N343   H344    1.046   .     S
N343   C63     1.441   1_565 S
N346   H348    1.046   .     S
N346   H347    1.046   .     S
C349   O381    1.288   .     A
C349   C353    1.432   .     S
C349   O383    1.286   .     A
C350   O382    1.288   .     A
C350   C354    1.432   .     S
C350   O384    1.286   .     A
C351   C368    1.426   .     A
C351   C395    1.486   .     S
C351   C427    1.397   1_455 S
C352   C367    1.425   .     A
C352   C398    1.482   .     S
C352   C428    1.393   .     S
C353   C586    1.349   1_545 S
C353   N633    1.441   1_545 S
C354   C469    1.349   .     S
C354   N520    1.441   .     S
C355   O385    1.293   .     A
C355   C360    1.446   .     S
C355   O387    1.290   .     A
C356   O386    1.293   .     A
C356   C359    1.446   .     S
C356   O388    1.290   .     A
C357   N389    1.436   .     S
C357   C359    1.409   .     A
C357   C367    1.417   .     A
C358   C360    1.409   .     A
C358   C368    1.418   .     A
C358   N392    1.436   .     S
C359   C361    1.387   .     A
C360   C362    1.387   .     A
C361   H373    1.086   .     S
C361   C363    1.387   .     A
C362   C364    1.386   .     A
C362   H374    1.086   .     S
C363   C369    1.394   .     A
C363   C365    1.409   .     A
C364   C370    1.395   .     A
C364   C366    1.410   .     A
C365   C367    1.428   .     A
C365   C424    1.408   .     S
C366   C368    1.429   .     A
C366   C423    1.408   1_455 S
C369   H375    1.085   .     S
C369   C409    1.397   .     S
C370   H376    1.086   .     S
C370   C410    1.393   1_455 S
Cu371  Cu372   2.685   .     S
Cu371  N380    2.018   .     S
Cu371  O388    1.948   .     S
Cu371  O384    1.965   .     S
Cu371  O385    1.963   .     S
Cu371  O381    1.971   .     S
Cu372  N379    2.018   .     S
Cu372  O383    1.965   .     S
Cu372  O387    1.948   .     S
Cu372  O386    1.963   .     S
Cu372  O382    1.971   .     S
H377   N727    1.029   .     S
N380   N727    1.295   .     S
N380   H726    1.029   .     S
N389   H390    1.046   .     S
N389   H391    1.045   .     S
N392   H394    1.046   .     S
N392   H393    1.045   .     S
C395   H396    1.084   .     S
C395   O629    1.221   1_545 S
O397   C511    1.221   .     S
C398   O400    1.221   .     D
C398   H515    1.086   .     S
H399   C630    1.086   1_545 S
N401   H403    1.046   .     S
N401   H402    1.046   .     S
N401   C469    1.441   .     S
N404   H406    1.046   .     S
N404   H405    1.046   .     S
N404   C586    1.441   1_545 S
C407   O439    1.288   .     A
C407   C411    1.432   .     S
C407   O441    1.286   .     A
C408   O440    1.288   .     A
C408   C412    1.432   .     S
C408   O442    1.286   .     A
C409   C426    1.426   .     A
C409   C453    1.486   .     S
C410   C425    1.425   .     A
C410   C456    1.482   .     S
C410   C370    1.393   1_655 S
C411   C644    1.349   1_545 S
C411   N691    1.441   1_545 S
C412   C527    1.349   .     S
C412   N578    1.441   .     S
C413   O443    1.293   .     A
C413   C418    1.446   .     S
C413   O445    1.290   .     A
C414   O444    1.293   .     A
C414   C417    1.446   .     S
C414   O446    1.290   .     A
C415   N447    1.436   .     S
C415   C417    1.409   .     A
C415   C425    1.417   .     A
C416   C418    1.409   .     A
C416   C426    1.418   .     A
C416   N450    1.436   .     S
C417   C419    1.387   .     A
C418   C420    1.387   .     A
C419   H431    1.086   .     S
C419   C421    1.387   .     A
C420   C422    1.386   .     A
C420   H432    1.086   .     S
C421   C427    1.394   .     A
C421   C423    1.409   .     A
C422   C428    1.395   .     A
C422   C424    1.410   .     A
C423   C425    1.428   .     A
C423   C366    1.408   1_655 S
C424   C426    1.429   .     A
C427   H433    1.085   .     S
C427   C351    1.397   1_655 S
C428   H434    1.086   .     S
Cu429  Cu430   2.685   .     S
Cu429  N438    2.018   .     S
Cu429  O446    1.948   .     S
Cu429  O442    1.965   .     S
Cu429  O443    1.963   .     S
Cu429  O439    1.971   .     S
Cu430  N437    2.018   .     S
Cu430  O441    1.965   .     S
Cu430  O445    1.948   .     S
Cu430  O444    1.963   .     S
Cu430  O440    1.971   .     S
H435   N785    1.029   .     S
N438   N785    1.295   .     S
N438   H784    1.029   .     S
N447   H448    1.046   .     S
N447   H449    1.045   .     S
N450   H452    1.046   .     S
N450   H451    1.045   .     S
C453   H454    1.084   .     S
C453   O687    1.221   1_545 S
O455   C569    1.221   .     S
C456   O458    1.221   .     D
C456   H573    1.086   .     S
H457   C688    1.086   1_545 S
N459   H461    1.046   .     S
N459   H460    1.046   .     S
N459   C527    1.441   .     S
N462   H464    1.046   .     S
N462   H463    1.046   .     S
N462   C644    1.441   1_545 S
C465   O497    1.288   .     A
C465   C469    1.432   .     S
C465   O499    1.286   .     A
C466   O498    1.288   .     A
C466   C470    1.432   .     S
C466   O500    1.286   .     A
C467   C484    1.426   .     A
C467   C511    1.486   .     S
C467   C543    1.397   1_455 S
C468   C483    1.425   .     A
C468   C514    1.482   .     S
C468   C544    1.393   .     S
C470   C585    1.349   .     S
C470   N636    1.441   .     S
C471   O501    1.293   .     A
C471   C476    1.446   .     S
C471   O503    1.290   .     A
C472   O502    1.293   .     A
C472   C475    1.446   .     S
C472   O504    1.290   .     A
C473   N505    1.436   .     S
C473   C475    1.409   .     A
C473   C483    1.417   .     A
C474   C476    1.409   .     A
C474   C484    1.418   .     A
C474   N508    1.436   .     S
C475   C477    1.387   .     A
C476   C478    1.387   .     A
C477   H489    1.086   .     S
C477   C479    1.387   .     A
C478   C480    1.386   .     A
C478   H490    1.086   .     S
C479   C485    1.394   .     A
C479   C481    1.409   .     A
C480   C486    1.395   .     A
C480   C482    1.410   .     A
C481   C483    1.428   .     A
C481   C540    1.408   .     S
C482   C484    1.429   .     A
C482   C539    1.408   1_455 S
C485   H491    1.085   .     S
C485   C525    1.397   .     S
C486   H492    1.086   .     S
C486   C526    1.393   1_455 S
Cu487  Cu488   2.685   .     S
Cu487  N496    2.018   .     S
Cu487  O504    1.948   .     S
Cu487  O500    1.965   .     S
Cu487  O501    1.963   .     S
Cu487  O497    1.971   .     S
Cu488  N495    2.018   .     S
Cu488  O499    1.965   .     S
Cu488  O503    1.948   .     S
Cu488  O502    1.963   .     S
Cu488  O498    1.971   .     S
H493   N843    1.029   .     S
N496   N843    1.295   .     S
N496   H842    1.029   .     S
N505   H506    1.046   .     S
N505   H507    1.045   .     S
N508   H510    1.046   .     S
N508   H509    1.045   .     S
C511   H512    1.084   .     S
O513   C627    1.221   .     S
C514   O516    1.221   .     D
C514   H631    1.086   .     S
N517   H519    1.046   .     S
N517   H518    1.046   .     S
N517   C585    1.441   .     S
N520   H522    1.046   .     S
N520   H521    1.046   .     S
C523   O555    1.288   .     A
C523   C527    1.432   .     S
C523   O557    1.286   .     A
C524   O556    1.288   .     A
C524   C528    1.432   .     S
C524   O558    1.286   .     A
C525   C542    1.426   .     A
C525   C569    1.486   .     S
C526   C541    1.425   .     A
C526   C572    1.482   .     S
C526   C486    1.393   1_655 S
C528   C643    1.349   .     S
C528   N694    1.441   .     S
C529   O559    1.293   .     A
C529   C534    1.446   .     S
C529   O561    1.290   .     A
C530   O560    1.293   .     A
C530   C533    1.446   .     S
C530   O562    1.290   .     A
C531   N563    1.436   .     S
C531   C533    1.409   .     A
C531   C541    1.417   .     A
C532   C534    1.409   .     A
C532   C542    1.418   .     A
C532   N566    1.436   .     S
C533   C535    1.387   .     A
C534   C536    1.387   .     A
C535   H547    1.086   .     S
C535   C537    1.387   .     A
C536   C538    1.386   .     A
C536   H548    1.086   .     S
C537   C543    1.394   .     A
C537   C539    1.409   .     A
C538   C544    1.395   .     A
C538   C540    1.410   .     A
C539   C541    1.428   .     A
C539   C482    1.408   1_655 S
C540   C542    1.429   .     A
C543   H549    1.085   .     S
C543   C467    1.397   1_655 S
C544   H550    1.086   .     S
Cu545  Cu546   2.685   .     S
Cu545  N554    2.018   .     S
Cu545  O562    1.948   .     S
Cu545  O558    1.965   .     S
Cu545  O559    1.963   .     S
Cu545  O555    1.971   .     S
Cu546  N553    2.018   .     S
Cu546  O557    1.965   .     S
Cu546  O561    1.948   .     S
Cu546  O560    1.963   .     S
Cu546  O556    1.971   .     S
H551   N901    1.029   .     S
N554   N901    1.295   .     S
N554   H900    1.029   .     S
N563   H564    1.046   .     S
N563   H565    1.045   .     S
N566   H568    1.046   .     S
N566   H567    1.045   .     S
C569   H570    1.084   .     S
O571   C685    1.221   .     S
C572   O574    1.221   .     D
C572   H689    1.086   .     S
N575   H577    1.046   .     S
N575   H576    1.046   .     S
N575   C643    1.441   .     S
N578   H580    1.046   .     S
N578   H579    1.046   .     S
C581   O613    1.288   .     A
C581   C585    1.432   .     S
C581   O615    1.286   .     A
C582   O614    1.288   .     A
C582   C586    1.432   .     S
C582   O616    1.286   .     A
C583   C600    1.426   .     A
C583   C627    1.486   .     S
C583   C659    1.397   1_455 S
C584   C599    1.425   .     A
C584   C630    1.482   .     S
C584   C660    1.393   .     S
C586   C353    1.349   1_565 S
C586   N404    1.441   1_565 S
C587   O617    1.293   .     A
C587   C592    1.446   .     S
C587   O619    1.290   .     A
C588   O618    1.293   .     A
C588   C591    1.446   .     S
C588   O620    1.290   .     A
C589   N621    1.436   .     S
C589   C591    1.409   .     A
C589   C599    1.417   .     A
C590   C592    1.409   .     A
C590   C600    1.418   .     A
C590   N624    1.436   .     S
C591   C593    1.387   .     A
C592   C594    1.387   .     A
C593   H605    1.086   .     S
C593   C595    1.387   .     A
C594   C596    1.386   .     A
C594   H606    1.086   .     S
C595   C601    1.394   .     A
C595   C597    1.409   .     A
C596   C602    1.395   .     A
C596   C598    1.410   .     A
C597   C599    1.428   .     A
C597   C656    1.408   .     S
C598   C600    1.429   .     A
C598   C655    1.408   1_455 S
C601   H607    1.085   .     S
C601   C641    1.397   .     S
C602   H608    1.086   .     S
C602   C642    1.393   1_455 S
Cu603  Cu604   2.685   .     S
Cu603  N612    2.018   .     S
Cu603  O620    1.948   .     S
Cu603  O616    1.965   .     S
Cu603  O617    1.963   .     S
Cu603  O613    1.971   .     S
Cu604  N611    2.018   .     S
Cu604  O615    1.965   .     S
Cu604  O619    1.948   .     S
Cu604  O618    1.963   .     S
Cu604  O614    1.971   .     S
H609   N959    1.029   .     S
N612   N959    1.295   .     S
N612   H958    1.029   .     S
N621   H622    1.046   .     S
N621   H623    1.045   .     S
N624   H626    1.046   .     S
N624   H625    1.045   .     S
C627   H628    1.084   .     S
O629   C395    1.221   1_565 S
C630   O632    1.221   .     D
C630   H399    1.086   1_565 S
N633   H635    1.046   .     S
N633   H634    1.046   .     S
N633   C353    1.441   1_565 S
N636   H638    1.046   .     S
N636   H637    1.046   .     S
C639   O671    1.288   .     A
C639   C643    1.432   .     S
C639   O673    1.286   .     A
C640   O672    1.288   .     A
C640   C644    1.432   .     S
C640   O674    1.286   .     A
C641   C658    1.426   .     A
C641   C685    1.486   .     S
C642   C657    1.425   .     A
C642   C688    1.482   .     S
C642   C602    1.393   1_655 S
C644   C411    1.349   1_565 S
C644   N462    1.441   1_565 S
C645   O675    1.293   .     A
C645   C650    1.446   .     S
C645   O677    1.290   .     A
C646   O676    1.293   .     A
C646   C649    1.446   .     S
C646   O678    1.290   .     A
C647   N679    1.436   .     S
C647   C649    1.409   .     A
C647   C657    1.417   .     A
C648   C650    1.409   .     A
C648   C658    1.418   .     A
C648   N682    1.436   .     S
C649   C651    1.387   .     A
C650   C652    1.387   .     A
C651   H663    1.086   .     S
C651   C653    1.387   .     A
C652   C654    1.386   .     A
C652   H664    1.086   .     S
C653   C659    1.394   .     A
C653   C655    1.409   .     A
C654   C660    1.395   .     A
C654   C656    1.410   .     A
C655   C657    1.428   .     A
C655   C598    1.408   1_655 S
C656   C658    1.429   .     A
C659   H665    1.085   .     S
C659   C583    1.397   1_655 S
C660   H666    1.086   .     S
Cu661  Cu662   2.685   .     S
Cu661  N670    2.018   .     S
Cu661  O678    1.948   .     S
Cu661  O674    1.965   .     S
Cu661  O675    1.963   .     S
Cu661  O671    1.971   .     S
Cu662  N669    2.018   .     S
Cu662  O673    1.965   .     S
Cu662  O677    1.948   .     S
Cu662  O676    1.963   .     S
Cu662  O672    1.971   .     S
H667   N1017   1.029   .     S
N670   N1017   1.295   .     S
N670   H1016   1.029   .     S
N679   H680    1.046   .     S
N679   H681    1.045   .     S
N682   H684    1.046   .     S
N682   H683    1.045   .     S
C685   H686    1.084   .     S
O687   C453    1.221   1_565 S
C688   O690    1.221   .     D
C688   H457    1.086   1_565 S
N691   H693    1.046   .     S
N691   H692    1.046   .     S
N691   C411    1.441   1_565 S
N694   H696    1.046   .     S
N694   H695    1.046   .     S
C697   O729    1.288   .     A
C697   C701    1.432   .     S
C697   O731    1.286   .     A
C698   O730    1.288   .     A
C698   C702    1.432   .     S
C698   O732    1.286   .     A
C699   C716    1.426   .     A
C699   C743    1.486   .     S
C699   C775    1.397   1_455 S
C700   C715    1.425   .     A
C700   C746    1.482   .     S
C700   C776    1.393   .     S
C701   C934    1.349   1_545 S
C701   N981    1.441   1_545 S
C702   C817    1.349   .     S
C702   N868    1.441   .     S
C703   O733    1.293   .     A
C703   C708    1.446   .     S
C703   O735    1.290   .     A
C704   O734    1.293   .     A
C704   C707    1.446   .     S
C704   O736    1.290   .     A
C705   N737    1.436   .     S
C705   C707    1.409   .     A
C705   C715    1.417   .     A
C706   C708    1.409   .     A
C706   C716    1.418   .     A
C706   N740    1.436   .     S
C707   C709    1.387   .     A
C708   C710    1.387   .     A
C709   H721    1.086   .     S
C709   C711    1.387   .     A
C710   C712    1.386   .     A
C710   H722    1.086   .     S
C711   C717    1.394   .     A
C711   C713    1.409   .     A
C712   C718    1.395   .     A
C712   C714    1.410   .     A
C713   C715    1.428   .     A
C713   C772    1.408   .     S
C714   C716    1.429   .     A
C714   C771    1.408   1_455 S
C717   H723    1.085   .     S
C717   C757    1.397   .     S
C718   H724    1.086   .     S
C718   C758    1.393   1_455 S
Cu719  Cu720   2.685   .     S
Cu719  N728    2.018   .     S
Cu719  O736    1.948   .     S
Cu719  O732    1.965   .     S
Cu719  O733    1.963   .     S
Cu719  O729    1.971   .     S
Cu720  N727    2.018   .     S
Cu720  O731    1.965   .     S
Cu720  O735    1.948   .     S
Cu720  O734    1.963   .     S
Cu720  O730    1.971   .     S
H725   N31     1.029   1_556 S
N728   N31     1.295   1_556 S
N728   H30     1.029   1_556 S
N737   H738    1.046   .     S
N737   H739    1.045   .     S
N740   H742    1.046   .     S
N740   H741    1.045   .     S
C743   H744    1.084   .     S
C743   O977    1.221   1_545 S
O745   C859    1.221   .     S
C746   O748    1.221   .     D
C746   H863    1.086   .     S
H747   C978    1.086   1_545 S
N749   H751    1.046   .     S
N749   H750    1.046   .     S
N749   C817    1.441   .     S
N752   H754    1.046   .     S
N752   H753    1.046   .     S
N752   C934    1.441   1_545 S
C755   O787    1.288   .     A
C755   C759    1.432   .     S
C755   O789    1.286   .     A
C756   O788    1.288   .     A
C756   C760    1.432   .     S
C756   O790    1.286   .     A
C757   C774    1.426   .     A
C757   C801    1.486   .     S
C758   C773    1.425   .     A
C758   C804    1.482   .     S
C758   C718    1.393   1_655 S
C759   C992    1.349   1_545 S
C759   N1039   1.441   1_545 S
C760   C875    1.349   .     S
C760   N926    1.441   .     S
C761   O791    1.293   .     A
C761   C766    1.446   .     S
C761   O793    1.290   .     A
C762   O792    1.293   .     A
C762   C765    1.446   .     S
C762   O794    1.290   .     A
C763   N795    1.436   .     S
C763   C765    1.409   .     A
C763   C773    1.417   .     A
C764   C766    1.409   .     A
C764   C774    1.418   .     A
C764   N798    1.436   .     S
C765   C767    1.387   .     A
C766   C768    1.387   .     A
C767   H779    1.086   .     S
C767   C769    1.387   .     A
C768   C770    1.386   .     A
C768   H780    1.086   .     S
C769   C775    1.394   .     A
C769   C771    1.409   .     A
C770   C776    1.395   .     A
C770   C772    1.410   .     A
C771   C773    1.428   .     A
C771   C714    1.408   1_655 S
C772   C774    1.429   .     A
C775   H781    1.085   .     S
C775   C699    1.397   1_655 S
C776   H782    1.086   .     S
Cu777  Cu778   2.685   .     S
Cu777  N786    2.018   .     S
Cu777  O794    1.948   .     S
Cu777  O790    1.965   .     S
Cu777  O791    1.963   .     S
Cu777  O787    1.971   .     S
Cu778  N785    2.018   .     S
Cu778  O789    1.965   .     S
Cu778  O793    1.948   .     S
Cu778  O792    1.963   .     S
Cu778  O788    1.971   .     S
H783   N89     1.029   1_556 S
N786   N89     1.295   1_556 S
N786   H88     1.029   1_556 S
N795   H796    1.046   .     S
N795   H797    1.045   .     S
N798   H800    1.046   .     S
N798   H799    1.045   .     S
C801   H802    1.084   .     S
C801   O1035   1.221   1_545 S
O803   C917    1.221   .     S
C804   O806    1.221   .     D
C804   H921    1.086   .     S
H805   C1036   1.086   1_545 S
N807   H809    1.046   .     S
N807   H808    1.046   .     S
N807   C875    1.441   .     S
N810   H812    1.046   .     S
N810   H811    1.046   .     S
N810   C992    1.441   1_545 S
C813   O845    1.288   .     A
C813   C817    1.432   .     S
C813   O847    1.286   .     A
C814   O846    1.288   .     A
C814   C818    1.432   .     S
C814   O848    1.286   .     A
C815   C832    1.426   .     A
C815   C859    1.486   .     S
C815   C891    1.397   1_455 S
C816   C831    1.425   .     A
C816   C862    1.482   .     S
C816   C892    1.393   .     S
C818   C933    1.349   .     S
C818   N984    1.441   .     S
C819   O849    1.293   .     A
C819   C824    1.446   .     S
C819   O851    1.290   .     A
C820   O850    1.293   .     A
C820   C823    1.446   .     S
C820   O852    1.290   .     A
C821   N853    1.436   .     S
C821   C823    1.409   .     A
C821   C831    1.417   .     A
C822   C824    1.409   .     A
C822   C832    1.418   .     A
C822   N856    1.436   .     S
C823   C825    1.387   .     A
C824   C826    1.387   .     A
C825   H837    1.086   .     S
C825   C827    1.387   .     A
C826   C828    1.386   .     A
C826   H838    1.086   .     S
C827   C833    1.394   .     A
C827   C829    1.409   .     A
C828   C834    1.395   .     A
C828   C830    1.410   .     A
C829   C831    1.428   .     A
C829   C888    1.408   .     S
C830   C832    1.429   .     A
C830   C887    1.408   1_455 S
C833   H839    1.085   .     S
C833   C873    1.397   .     S
C834   H840    1.086   .     S
C834   C874    1.393   1_455 S
Cu835  Cu836   2.685   .     S
Cu835  N844    2.018   .     S
Cu835  O852    1.948   .     S
Cu835  O848    1.965   .     S
Cu835  O849    1.963   .     S
Cu835  O845    1.971   .     S
Cu836  N843    2.018   .     S
Cu836  O847    1.965   .     S
Cu836  O851    1.948   .     S
Cu836  O850    1.963   .     S
Cu836  O846    1.971   .     S
H841   N147    1.029   1_556 S
N844   N147    1.295   1_556 S
N844   H146    1.029   1_556 S
N853   H854    1.046   .     S
N853   H855    1.045   .     S
N856   H858    1.046   .     S
N856   H857    1.045   .     S
C859   H860    1.084   .     S
O861   C975    1.221   .     S
C862   O864    1.221   .     D
C862   H979    1.086   .     S
N865   H867    1.046   .     S
N865   H866    1.046   .     S
N865   C933    1.441   .     S
N868   H870    1.046   .     S
N868   H869    1.046   .     S
C871   O903    1.288   .     A
C871   C875    1.432   .     S
C871   O905    1.286   .     A
C872   O904    1.288   .     A
C872   C876    1.432   .     S
C872   O906    1.286   .     A
C873   C890    1.426   .     A
C873   C917    1.486   .     S
C874   C889    1.425   .     A
C874   C920    1.482   .     S
C874   C834    1.393   1_655 S
C876   C991    1.349   .     S
C876   N1042   1.441   .     S
C877   O907    1.293   .     A
C877   C882    1.446   .     S
C877   O909    1.290   .     A
C878   O908    1.293   .     A
C878   C881    1.446   .     S
C878   O910    1.290   .     A
C879   N911    1.436   .     S
C879   C881    1.409   .     A
C879   C889    1.417   .     A
C880   C882    1.409   .     A
C880   C890    1.418   .     A
C880   N914    1.436   .     S
C881   C883    1.387   .     A
C882   C884    1.387   .     A
C883   H895    1.086   .     S
C883   C885    1.387   .     A
C884   C886    1.386   .     A
C884   H896    1.086   .     S
C885   C891    1.394   .     A
C885   C887    1.409   .     A
C886   C892    1.395   .     A
C886   C888    1.410   .     A
C887   C889    1.428   .     A
C887   C830    1.408   1_655 S
C888   C890    1.429   .     A
C891   H897    1.085   .     S
C891   C815    1.397   1_655 S
C892   H898    1.086   .     S
Cu893  Cu894   2.685   .     S
Cu893  N902    2.018   .     S
Cu893  O910    1.948   .     S
Cu893  O906    1.965   .     S
Cu893  O907    1.963   .     S
Cu893  O903    1.971   .     S
Cu894  N901    2.018   .     S
Cu894  O905    1.965   .     S
Cu894  O909    1.948   .     S
Cu894  O908    1.963   .     S
Cu894  O904    1.971   .     S
H899   N205    1.029   1_556 S
N902   N205    1.295   1_556 S
N902   H204    1.029   1_556 S
N911   H912    1.046   .     S
N911   H913    1.045   .     S
N914   H916    1.046   .     S
N914   H915    1.045   .     S
C917   H918    1.084   .     S
O919   C1033   1.221   .     S
C920   O922    1.221   .     D
C920   H1037   1.086   .     S
N923   H925    1.046   .     S
N923   H924    1.046   .     S
N923   C991    1.441   .     S
N926   H928    1.046   .     S
N926   H927    1.046   .     S
C929   O961    1.288   .     A
C929   C933    1.432   .     S
C929   O963    1.286   .     A
C930   O962    1.288   .     A
C930   C934    1.432   .     S
C930   O964    1.286   .     A
C931   C948    1.426   .     A
C931   C975    1.486   .     S
C931   C1007   1.397   1_455 S
C932   C947    1.425   .     A
C932   C978    1.482   .     S
C932   C1008   1.393   .     S
C934   C701    1.349   1_565 S
C934   N752    1.441   1_565 S
C935   O965    1.293   .     A
C935   C940    1.446   .     S
C935   O967    1.290   .     A
C936   O966    1.293   .     A
C936   C939    1.446   .     S
C936   O968    1.290   .     A
C937   N969    1.436   .     S
C937   C939    1.409   .     A
C937   C947    1.417   .     A
C938   C940    1.409   .     A
C938   C948    1.418   .     A
C938   N972    1.436   .     S
C939   C941    1.387   .     A
C940   C942    1.387   .     A
C941   H953    1.086   .     S
C941   C943    1.387   .     A
C942   C944    1.386   .     A
C942   H954    1.086   .     S
C943   C949    1.394   .     A
C943   C945    1.409   .     A
C944   C950    1.395   .     A
C944   C946    1.410   .     A
C945   C947    1.428   .     A
C945   C1004   1.408   .     S
C946   C948    1.429   .     A
C946   C1003   1.408   1_455 S
C949   H955    1.085   .     S
C949   C989    1.397   .     S
C950   H956    1.086   .     S
C950   C990    1.393   1_455 S
Cu951  Cu952   2.685   .     S
Cu951  N960    2.018   .     S
Cu951  O968    1.948   .     S
Cu951  O964    1.965   .     S
Cu951  O965    1.963   .     S
Cu951  O961    1.971   .     S
Cu952  N959    2.018   .     S
Cu952  O963    1.965   .     S
Cu952  O967    1.948   .     S
Cu952  O966    1.963   .     S
Cu952  O962    1.971   .     S
H957   N263    1.029   1_556 S
N960   N263    1.295   1_556 S
N960   H262    1.029   1_556 S
N969   H970    1.046   .     S
N969   H971    1.045   .     S
N972   H974    1.046   .     S
N972   H973    1.045   .     S
C975   H976    1.084   .     S
O977   C743    1.221   1_565 S
C978   O980    1.221   .     D
C978   H747    1.086   1_565 S
N981   H983    1.046   .     S
N981   H982    1.046   .     S
N981   C701    1.441   1_565 S
N984   H986    1.046   .     S
N984   H985    1.046   .     S
C987   O1019   1.288   .     A
C987   C991    1.432   .     S
C987   O1021   1.286   .     A
C988   O1020   1.288   .     A
C988   C992    1.432   .     S
C988   O1022   1.286   .     A
C989   C1006   1.426   .     A
C989   C1033   1.486   .     S
C990   C1005   1.425   .     A
C990   C1036   1.482   .     S
C990   C950    1.393   1_655 S
C992   C759    1.349   1_565 S
C992   N810    1.441   1_565 S
C993   O1023   1.293   .     A
C993   C998    1.446   .     S
C993   O1025   1.290   .     A
C994   O1024   1.293   .     A
C994   C997    1.446   .     S
C994   O1026   1.290   .     A
C995   N1027   1.436   .     S
C995   C997    1.409   .     A
C995   C1005   1.417   .     A
C996   C998    1.409   .     A
C996   C1006   1.418   .     A
C996   N1030   1.436   .     S
C997   C999    1.387   .     A
C998   C1000   1.387   .     A
C999   H1011   1.086   .     S
C999   C1001   1.387   .     A
C1000  C1002   1.386   .     A
C1000  H1012   1.086   .     S
C1001  C1007   1.394   .     A
C1001  C1003   1.409   .     A
C1002  C1008   1.395   .     A
C1002  C1004   1.410   .     A
C1003  C1005   1.428   .     A
C1003  C946    1.408   1_655 S
C1004  C1006   1.429   .     A
C1007  H1013   1.085   .     S
C1007  C931    1.397   1_655 S
C1008  H1014   1.086   .     S
Cu1009 Cu1010  2.685   .     S
Cu1009 N1018   2.018   .     S
Cu1009 O1026   1.948   .     S
Cu1009 O1022   1.965   .     S
Cu1009 O1023   1.963   .     S
Cu1009 O1019   1.971   .     S
Cu1010 N1017   2.018   .     S
Cu1010 O1021   1.965   .     S
Cu1010 O1025   1.948   .     S
Cu1010 O1024   1.963   .     S
Cu1010 O1020   1.971   .     S
H1015  N321    1.029   1_556 S
N1018  N321    1.295   1_556 S
N1018  H320    1.029   1_556 S
N1027  H1028   1.046   .     S
N1027  H1029   1.045   .     S
N1030  H1032   1.046   .     S
N1030  H1031   1.045   .     S
C1033  H1034   1.084   .     S
O1035  C801    1.221   1_565 S
C1036  O1038   1.221   .     D
C1036  H805    1.086   1_565 S
N1039  H1041   1.046   .     S
N1039  H1040   1.046   .     S
N1039  C759    1.441   1_565 S
N1042  H1044   1.046   .     S
N1042  H1043   1.046   .     S
