data_str_m2_o1_o17_pcu_sym.86
_audit_creation_date              2020-01-03
_audit_creation_method            'Materials Studio'
_symmetry_space_group_name_H-M    'P1'
_symmetry_Int_Tables_number       1
_symmetry_cell_setting            triclinic
loop_
_symmetry_equiv_pos_as_xyz
  x,y,z
_cell_length_a                    32.6517
_cell_length_b                    28.8865
_cell_length_c                    29.8762
_cell_angle_alpha                 89.3696
_cell_angle_beta                  90.1146
_cell_angle_gamma                 90.4405
loop_
_atom_site_label
_atom_site_type_symbol
_atom_site_fract_x
_atom_site_fract_y
_atom_site_fract_z
_atom_site_U_iso_or_equiv
_atom_site_adp_type
_atom_site_occupancy
C1     C     0.08748   0.16646   0.24931   0.00000  Uiso   1.00
C2     C     0.04277   0.16602   0.24889   0.00000  Uiso   1.00
C3     C     0.17410   0.02440   0.21169   0.00000  Uiso   1.00
C4     C     0.15044   0.30774   0.28480   0.00000  Uiso   1.00
C5     C     0.15755   0.02342   0.28812   0.00000  Uiso   1.00
C6     C     0.18129   0.30903   0.21422   0.00000  Uiso   1.00
C7     C     0.16655   0.16701   0.16462   0.00000  Uiso   1.00
C8     C     0.16745   0.16664   0.33537   0.00000  Uiso   1.00
C9     C     0.20470   0.16329   0.40673   0.00000  Uiso   1.00
C10    C     0.13082   0.17770   0.09316   0.00000  Uiso   1.00
C11    C     0.16775   0.16733   0.38353   0.00000  Uiso   1.00
C12    C     0.24584   0.16682   0.25134   0.00000  Uiso   1.00
C13    C     0.16692   0.16818   0.11646   0.00000  Uiso   1.00
C14    C     0.13106   0.17427   0.40607   0.00000  Uiso   1.00
C15    C     0.20350   0.16007   0.09401   0.00000  Uiso   1.00
C16    C     0.13056   0.17576   0.45275   0.00000  Uiso   1.00
C17    C     0.20435   0.16092   0.04728   0.00000  Uiso   1.00
C18    C     0.16757   0.16904   0.47656   0.00000  Uiso   1.00
C19    C     0.16751   0.16900   0.02345   0.00000  Uiso   1.00
C20    C     0.20471   0.16264   0.45339   0.00000  Uiso   1.00
C21    C     0.13060   0.17723   0.04656   0.00000  Uiso   1.00
C22    C     0.09380   0.18339   0.47602   0.00000  Uiso   1.00
C23    C     0.09415   0.18475   0.02279   0.00000  Uiso   1.00
C24    C     0.24112   0.15351   0.02394   0.00000  Uiso   1.00
C25    C     0.03544   0.15150   0.44753   0.00000  Uiso   1.00
C26    C     0.00772   0.15653   0.40678   0.00000  Uiso   1.00
C27    C     0.28715   0.10042   0.04860   0.00000  Uiso   1.00
C28    C     0.32529   0.09359   0.07723   0.00000  Uiso   1.00
C29    C     0.03991   0.05696   0.22577   0.00000  Uiso   1.00
C30    C     0.29487   0.27604   0.27897   0.00000  Uiso   1.00
C31    C     0.28877   0.07967   0.31842   0.00000  Uiso   1.00
C32    C     0.04241   0.25082   0.18076   0.00000  Uiso   1.00
C33    C     0.13685   0.02707   0.14695   0.00000  Uiso   1.00
C34    C     0.24112   0.15534   0.47714   0.00000  Uiso   1.00
C35    C     0.12305   0.06072   0.11066   0.00000  Uiso   1.00
C36    C     0.08880   0.29850   0.32023   0.00000  Uiso   1.00
C37    C     0.06441   0.26503   0.34962   0.00000  Uiso   1.00
C38    C     0.17531   0.01983   0.36333   0.00000  Uiso   1.00
C39    C     0.19155   0.05260   0.39847   0.00000  Uiso   1.00
C40    C     0.23575   0.30132   0.16520   0.00000  Uiso   1.00
C41    C     0.23703   0.31384   0.11553   0.00000  Uiso   1.00
C42    C     0.02093   0.12452   0.25767   0.00000  Uiso   1.00
C43    C     0.31253   0.20867   0.24561   0.00000  Uiso   1.00
C44    C     0.31176   0.12546   0.26151   0.00000  Uiso   1.00
C45    C     0.02146   0.20746   0.24031   0.00000  Uiso   1.00
C46    C     0.29057   0.16709   0.25314   0.00000  Uiso   1.00
Cu47   Cu    0.16667   0.21355   0.25000   0.00000  Uiso   1.00
Cu48   Cu    0.16667   0.11978   0.25000   0.00000  Uiso   1.00
H49    H     0.23307   0.15925   0.38840   0.00000  Uiso   1.00
H50    H     0.32120   0.12535   0.40383   0.00000  Uiso   1.00
H51    H     0.32146   0.18757   0.41001   0.00000  Uiso   1.00
H52    H     0.29348   0.08710   0.01446   0.00000  Uiso   1.00
H53    H     0.26166   0.07989   0.06403   0.00000  Uiso   1.00
H54    H     0.31975   0.10618   0.11170   0.00000  Uiso   1.00
H55    H     0.33304   0.05624   0.07897   0.00000  Uiso   1.00
H56    H     0.01823   0.11302   0.06245   0.00000  Uiso   1.00
H57    H     0.05912   0.02586   0.23073   0.00000  Uiso   1.00
H58    H     0.05270   0.07677   0.19673   0.00000  Uiso   1.00
H59    H     0.00832   0.04480   0.21806   0.00000  Uiso   1.00
H60    H     0.10279   0.18400   0.11142   0.00000  Uiso   1.00
H61    H     0.28474   0.25537   0.30872   0.00000  Uiso   1.00
H62    H     0.27400   0.30603   0.27571   0.00000  Uiso   1.00
H63    H     0.32629   0.28996   0.28417   0.00000  Uiso   1.00
H64    H     0.27067   0.04802   0.32642   0.00000  Uiso   1.00
H65    H     0.27286   0.10949   0.33378   0.00000  Uiso   1.00
H66    H     0.31970   0.07529   0.33347   0.00000  Uiso   1.00
H67    H     0.05779   0.22039   0.16590   0.00000  Uiso   1.00
H68    H     0.06017   0.28214   0.17079   0.00000  Uiso   1.00
H69    H     0.01094   0.25450   0.16685   0.00000  Uiso   1.00
H70    H     0.11019   0.02064   0.16954   0.00000  Uiso   1.00
H71    H     0.10309   0.17820   0.38692   0.00000  Uiso   1.00
H72    H     0.14482   0.32742   0.13044   0.00000  Uiso   1.00
H73    H     0.14936   0.07110   0.08919   0.00000  Uiso   1.00
H74    H     0.09927   0.04409   0.08947   0.00000  Uiso   1.00
H75    H     0.10941   0.09161   0.12629   0.00000  Uiso   1.00
H76    H     0.07424   0.29964   0.28657   0.00000  Uiso   1.00
H77    H     0.08707   0.00007   0.33536   0.00000  Uiso   1.00
H78    H     0.07862   0.26261   0.38336   0.00000  Uiso   1.00
H79    H     0.03252   0.27743   0.35329   0.00000  Uiso   1.00
H80    H     0.06373   0.23020   0.33428   0.00000  Uiso   1.00
H81    H     0.20205   0.00020   0.35034   0.00000  Uiso   1.00
H82    H     0.23108   0.15332   0.11320   0.00000  Uiso   1.00
H83    H     0.15394   0.32886   0.38061   0.00000  Uiso   1.00
H84    H     0.16609   0.07318   0.41237   0.00000  Uiso   1.00
H85    H     0.20602   0.03259   0.42616   0.00000  Uiso   1.00
H86    H     0.21509   0.07557   0.38321   0.00000  Uiso   1.00
H87    H     0.25690   0.27194   0.17026   0.00000  Uiso   1.00
H88    H     0.24788   0.33103   0.18497   0.00000  Uiso   1.00
H89    H     0.21845   0.01172   0.10846   0.00000  Uiso   1.00
H90    H     0.26914   0.32130   0.10536   0.00000  Uiso   1.00
H91    H     0.22508   0.28454   0.09542   0.00000  Uiso   1.00
H92    H     0.06587   0.19151   0.04043   0.00000  Uiso   1.00
H93    H     0.26959   0.15056   0.45948   0.00000  Uiso   1.00
H94    H     0.01622   0.14514   0.47769   0.00000  Uiso   1.00
H95    H     0.05520   0.12067   0.44206   0.00000  Uiso   1.00
H96    H     0.02644   0.16015   0.37592   0.00000  Uiso   1.00
N97    N     0.16667   0.28402   0.25000   0.00000  Uiso   1.00
N98    N     0.16667   0.04931   0.25000   0.00000  Uiso   1.00
O99    O     0.10655   0.20625   0.25000   0.00000  Uiso   1.00
O100   O     0.27767   0.14801   0.04680   0.00000  Uiso   1.00
O101   O     0.04101   0.08313   0.26540   0.00000  Uiso   1.00
O102   O     0.29261   0.25029   0.23920   0.00000  Uiso   1.00
O103   O     0.29110   0.08463   0.27151   0.00000  Uiso   1.00
O104   O     0.04178   0.24779   0.22788   0.00000  Uiso   1.00
O105   O     0.17147   0.04526   0.16997   0.00000  Uiso   1.00
O106   O     0.12978   0.28333   0.31793   0.00000  Uiso   1.00
O107   O     0.15406   0.04488   0.32930   0.00000  Uiso   1.00
O108   O     0.19589   0.28598   0.17721   0.00000  Uiso   1.00
O109   O     0.22679   0.12709   0.25001   0.00000  Uiso   1.00
O110   O     0.22679   0.20625   0.25001   0.00000  Uiso   1.00
O111   O     0.10655   0.12709   0.25000   0.00000  Uiso   1.00
O112   O     0.16666   0.20627   0.18513   0.00000  Uiso   1.00
O113   O     0.16668   0.12707   0.31487   0.00000  Uiso   1.00
O114   O     0.16668   0.20627   0.31487   0.00000  Uiso   1.00
O115   O     0.16666   0.12707   0.18513   0.00000  Uiso   1.00
O116   O     0.05807   0.19294   0.45293   0.00000  Uiso   1.00
C117   C     0.42082   0.16646   0.24931   0.00000  Uiso   1.00
C118   C     0.37610   0.16602   0.24889   0.00000  Uiso   1.00
C119   C     0.50743   0.02440   0.21169   0.00000  Uiso   1.00
C120   C     0.48377   0.30774   0.28480   0.00000  Uiso   1.00
C121   C     0.49089   0.02342   0.28812   0.00000  Uiso   1.00
C122   C     0.51462   0.30903   0.21422   0.00000  Uiso   1.00
C123   C     0.49988   0.16701   0.16462   0.00000  Uiso   1.00
C124   C     0.50079   0.16664   0.33537   0.00000  Uiso   1.00
C125   C     0.53803   0.16329   0.40673   0.00000  Uiso   1.00
C126   C     0.46415   0.17770   0.09316   0.00000  Uiso   1.00
C127   C     0.50108   0.16733   0.38353   0.00000  Uiso   1.00
C128   C     0.57918   0.16682   0.25134   0.00000  Uiso   1.00
C129   C     0.50026   0.16818   0.11646   0.00000  Uiso   1.00
C130   C     0.46440   0.17427   0.40607   0.00000  Uiso   1.00
C131   C     0.53683   0.16007   0.09401   0.00000  Uiso   1.00
C132   C     0.46389   0.17576   0.45275   0.00000  Uiso   1.00
C133   C     0.53769   0.16092   0.04728   0.00000  Uiso   1.00
C134   C     0.50090   0.16904   0.47656   0.00000  Uiso   1.00
C135   C     0.50084   0.16900   0.02345   0.00000  Uiso   1.00
C136   C     0.53804   0.16264   0.45339   0.00000  Uiso   1.00
C137   C     0.46393   0.17723   0.04656   0.00000  Uiso   1.00
C138   C     0.42713   0.18339   0.47602   0.00000  Uiso   1.00
C139   C     0.42748   0.18475   0.02279   0.00000  Uiso   1.00
C140   C     0.57445   0.15351   0.02394   0.00000  Uiso   1.00
C141   C     0.36877   0.15150   0.44753   0.00000  Uiso   1.00
C142   C     0.34105   0.15653   0.40678   0.00000  Uiso   1.00
C143   C     0.62049   0.10042   0.04860   0.00000  Uiso   1.00
C144   C     0.65862   0.09359   0.07723   0.00000  Uiso   1.00
C145   C     0.37324   0.05696   0.22577   0.00000  Uiso   1.00
C146   C     0.62820   0.27604   0.27897   0.00000  Uiso   1.00
C147   C     0.62210   0.07967   0.31842   0.00000  Uiso   1.00
C148   C     0.37574   0.25082   0.18076   0.00000  Uiso   1.00
C149   C     0.47019   0.02707   0.14695   0.00000  Uiso   1.00
C150   C     0.57445   0.15534   0.47714   0.00000  Uiso   1.00
C151   C     0.45638   0.06072   0.11066   0.00000  Uiso   1.00
C152   C     0.42213   0.29850   0.32023   0.00000  Uiso   1.00
C153   C     0.39774   0.26503   0.34962   0.00000  Uiso   1.00
C154   C     0.50864   0.01983   0.36333   0.00000  Uiso   1.00
C155   C     0.52489   0.05260   0.39847   0.00000  Uiso   1.00
C156   C     0.56908   0.30132   0.16520   0.00000  Uiso   1.00
C157   C     0.57037   0.31384   0.11553   0.00000  Uiso   1.00
C158   C     0.35426   0.12452   0.25767   0.00000  Uiso   1.00
C159   C     0.64587   0.20867   0.24561   0.00000  Uiso   1.00
C160   C     0.64510   0.12546   0.26151   0.00000  Uiso   1.00
C161   C     0.35480   0.20746   0.24031   0.00000  Uiso   1.00
C162   C     0.62390   0.16709   0.25314   0.00000  Uiso   1.00
Cu163  Cu    0.50000   0.21355   0.25000   0.00000  Uiso   1.00
Cu164  Cu    0.50000   0.11978   0.25000   0.00000  Uiso   1.00
H165   H     0.56641   0.15925   0.38840   0.00000  Uiso   1.00
H166   H     0.65454   0.12535   0.40383   0.00000  Uiso   1.00
H167   H     0.65479   0.18757   0.41001   0.00000  Uiso   1.00
H168   H     0.62681   0.08710   0.01446   0.00000  Uiso   1.00
H169   H     0.59500   0.07989   0.06403   0.00000  Uiso   1.00
H170   H     0.65309   0.10618   0.11170   0.00000  Uiso   1.00
H171   H     0.66637   0.05624   0.07897   0.00000  Uiso   1.00
H172   H     0.35157   0.11302   0.06245   0.00000  Uiso   1.00
H173   H     0.39245   0.02586   0.23073   0.00000  Uiso   1.00
H174   H     0.38604   0.07677   0.19673   0.00000  Uiso   1.00
H175   H     0.34165   0.04480   0.21806   0.00000  Uiso   1.00
H176   H     0.43612   0.18400   0.11142   0.00000  Uiso   1.00
H177   H     0.61807   0.25537   0.30872   0.00000  Uiso   1.00
H178   H     0.60733   0.30603   0.27571   0.00000  Uiso   1.00
H179   H     0.65962   0.28996   0.28417   0.00000  Uiso   1.00
H180   H     0.60401   0.04802   0.32642   0.00000  Uiso   1.00
H181   H     0.60619   0.10949   0.33378   0.00000  Uiso   1.00
H182   H     0.65303   0.07529   0.33347   0.00000  Uiso   1.00
H183   H     0.39112   0.22039   0.16590   0.00000  Uiso   1.00
H184   H     0.39350   0.28214   0.17079   0.00000  Uiso   1.00
H185   H     0.34428   0.25450   0.16685   0.00000  Uiso   1.00
H186   H     0.44353   0.02064   0.16954   0.00000  Uiso   1.00
H187   H     0.43642   0.17820   0.38692   0.00000  Uiso   1.00
H188   H     0.47816   0.32742   0.13044   0.00000  Uiso   1.00
H189   H     0.48269   0.07110   0.08919   0.00000  Uiso   1.00
H190   H     0.43261   0.04409   0.08947   0.00000  Uiso   1.00
H191   H     0.44274   0.09161   0.12629   0.00000  Uiso   1.00
H192   H     0.40757   0.29964   0.28657   0.00000  Uiso   1.00
H193   H     0.42040   0.00007   0.33536   0.00000  Uiso   1.00
H194   H     0.41196   0.26261   0.38336   0.00000  Uiso   1.00
H195   H     0.36585   0.27743   0.35329   0.00000  Uiso   1.00
H196   H     0.39706   0.23020   0.33428   0.00000  Uiso   1.00
H197   H     0.53538   0.00020   0.35034   0.00000  Uiso   1.00
H198   H     0.56442   0.15332   0.11320   0.00000  Uiso   1.00
H199   H     0.48727   0.32886   0.38061   0.00000  Uiso   1.00
H200   H     0.49942   0.07318   0.41237   0.00000  Uiso   1.00
H201   H     0.53935   0.03259   0.42616   0.00000  Uiso   1.00
H202   H     0.54842   0.07557   0.38321   0.00000  Uiso   1.00
H203   H     0.59023   0.27194   0.17026   0.00000  Uiso   1.00
H204   H     0.58121   0.33103   0.18497   0.00000  Uiso   1.00
H205   H     0.55179   0.01172   0.10846   0.00000  Uiso   1.00
H206   H     0.60247   0.32130   0.10536   0.00000  Uiso   1.00
H207   H     0.55842   0.28454   0.09542   0.00000  Uiso   1.00
H208   H     0.39921   0.19151   0.04043   0.00000  Uiso   1.00
H209   H     0.60292   0.15056   0.45948   0.00000  Uiso   1.00
H210   H     0.34956   0.14514   0.47769   0.00000  Uiso   1.00
H211   H     0.38853   0.12067   0.44206   0.00000  Uiso   1.00
H212   H     0.35977   0.16015   0.37592   0.00000  Uiso   1.00
N213   N     0.50000   0.28402   0.25000   0.00000  Uiso   1.00
N214   N     0.50000   0.04931   0.25000   0.00000  Uiso   1.00
O215   O     0.43988   0.20625   0.25000   0.00000  Uiso   1.00
O216   O     0.61100   0.14801   0.04680   0.00000  Uiso   1.00
O217   O     0.37434   0.08313   0.26540   0.00000  Uiso   1.00
O218   O     0.62594   0.25029   0.23920   0.00000  Uiso   1.00
O219   O     0.62443   0.08463   0.27151   0.00000  Uiso   1.00
O220   O     0.37511   0.24779   0.22788   0.00000  Uiso   1.00
O221   O     0.50480   0.04526   0.16997   0.00000  Uiso   1.00
O222   O     0.46311   0.28333   0.31793   0.00000  Uiso   1.00
O223   O     0.48740   0.04488   0.32930   0.00000  Uiso   1.00
O224   O     0.52922   0.28598   0.17721   0.00000  Uiso   1.00
O225   O     0.56012   0.12709   0.25001   0.00000  Uiso   1.00
O226   O     0.56012   0.20625   0.25001   0.00000  Uiso   1.00
O227   O     0.43988   0.12709   0.25000   0.00000  Uiso   1.00
O228   O     0.49999   0.20627   0.18513   0.00000  Uiso   1.00
O229   O     0.50001   0.12707   0.31487   0.00000  Uiso   1.00
O230   O     0.50001   0.20627   0.31487   0.00000  Uiso   1.00
O231   O     0.49999   0.12707   0.18513   0.00000  Uiso   1.00
O232   O     0.39140   0.19294   0.45293   0.00000  Uiso   1.00
C233   C     0.75415   0.16646   0.24931   0.00000  Uiso   1.00
C234   C     0.70943   0.16602   0.24889   0.00000  Uiso   1.00
C235   C     0.84077   0.02440   0.21169   0.00000  Uiso   1.00
C236   C     0.81711   0.30774   0.28480   0.00000  Uiso   1.00
C237   C     0.82422   0.02342   0.28812   0.00000  Uiso   1.00
C238   C     0.84795   0.30903   0.21422   0.00000  Uiso   1.00
C239   C     0.83322   0.16701   0.16462   0.00000  Uiso   1.00
C240   C     0.83412   0.16664   0.33537   0.00000  Uiso   1.00
C241   C     0.87137   0.16329   0.40673   0.00000  Uiso   1.00
C242   C     0.79748   0.17770   0.09316   0.00000  Uiso   1.00
C243   C     0.83441   0.16733   0.38353   0.00000  Uiso   1.00
C244   C     0.91251   0.16682   0.25134   0.00000  Uiso   1.00
C245   C     0.83359   0.16818   0.11646   0.00000  Uiso   1.00
C246   C     0.79773   0.17427   0.40607   0.00000  Uiso   1.00
C247   C     0.87016   0.16007   0.09401   0.00000  Uiso   1.00
C248   C     0.79722   0.17576   0.45275   0.00000  Uiso   1.00
C249   C     0.87102   0.16092   0.04728   0.00000  Uiso   1.00
C250   C     0.83423   0.16904   0.47656   0.00000  Uiso   1.00
C251   C     0.83417   0.16900   0.02345   0.00000  Uiso   1.00
C252   C     0.87138   0.16264   0.45339   0.00000  Uiso   1.00
C253   C     0.79727   0.17723   0.04656   0.00000  Uiso   1.00
C254   C     0.76046   0.18339   0.47602   0.00000  Uiso   1.00
C255   C     0.76082   0.18475   0.02279   0.00000  Uiso   1.00
C256   C     0.90779   0.15351   0.02394   0.00000  Uiso   1.00
C257   C     0.70211   0.15150   0.44753   0.00000  Uiso   1.00
C258   C     0.67439   0.15653   0.40678   0.00000  Uiso   1.00
C259   C     0.95382   0.10042   0.04860   0.00000  Uiso   1.00
C260   C     0.99196   0.09359   0.07723   0.00000  Uiso   1.00
C261   C     0.70658   0.05696   0.22577   0.00000  Uiso   1.00
C262   C     0.96153   0.27604   0.27897   0.00000  Uiso   1.00
C263   C     0.95543   0.07967   0.31842   0.00000  Uiso   1.00
C264   C     0.70907   0.25082   0.18076   0.00000  Uiso   1.00
C265   C     0.80352   0.02707   0.14695   0.00000  Uiso   1.00
C266   C     0.90779   0.15534   0.47714   0.00000  Uiso   1.00
C267   C     0.78971   0.06072   0.11066   0.00000  Uiso   1.00
C268   C     0.75546   0.29850   0.32023   0.00000  Uiso   1.00
C269   C     0.73108   0.26503   0.34962   0.00000  Uiso   1.00
C270   C     0.84197   0.01983   0.36333   0.00000  Uiso   1.00
C271   C     0.85822   0.05260   0.39847   0.00000  Uiso   1.00
C272   C     0.90241   0.30132   0.16520   0.00000  Uiso   1.00
C273   C     0.90370   0.31384   0.11553   0.00000  Uiso   1.00
C274   C     0.68760   0.12452   0.25767   0.00000  Uiso   1.00
C275   C     0.97920   0.20867   0.24561   0.00000  Uiso   1.00
C276   C     0.97843   0.12546   0.26151   0.00000  Uiso   1.00
C277   C     0.68813   0.20746   0.24031   0.00000  Uiso   1.00
C278   C     0.95724   0.16709   0.25314   0.00000  Uiso   1.00
Cu279  Cu    0.83333   0.21355   0.25000   0.00000  Uiso   1.00
Cu280  Cu    0.83333   0.11978   0.25000   0.00000  Uiso   1.00
H281   H     0.89974   0.15925   0.38840   0.00000  Uiso   1.00
H282   H     0.98787   0.12535   0.40383   0.00000  Uiso   1.00
H283   H     0.98812   0.18757   0.41001   0.00000  Uiso   1.00
H284   H     0.96015   0.08710   0.01446   0.00000  Uiso   1.00
H285   H     0.92833   0.07989   0.06403   0.00000  Uiso   1.00
H286   H     0.98642   0.10618   0.11170   0.00000  Uiso   1.00
H287   H     0.99970   0.05624   0.07897   0.00000  Uiso   1.00
H288   H     0.68490   0.11302   0.06245   0.00000  Uiso   1.00
H289   H     0.72578   0.02586   0.23073   0.00000  Uiso   1.00
H290   H     0.71937   0.07677   0.19673   0.00000  Uiso   1.00
H291   H     0.67498   0.04480   0.21806   0.00000  Uiso   1.00
H292   H     0.76946   0.18400   0.11142   0.00000  Uiso   1.00
H293   H     0.95140   0.25537   0.30872   0.00000  Uiso   1.00
H294   H     0.94067   0.30603   0.27571   0.00000  Uiso   1.00
H295   H     0.99296   0.28996   0.28417   0.00000  Uiso   1.00
H296   H     0.93734   0.04802   0.32642   0.00000  Uiso   1.00
H297   H     0.93953   0.10949   0.33378   0.00000  Uiso   1.00
H298   H     0.98636   0.07529   0.33347   0.00000  Uiso   1.00
H299   H     0.72446   0.22039   0.16590   0.00000  Uiso   1.00
H300   H     0.72684   0.28214   0.17079   0.00000  Uiso   1.00
H301   H     0.67761   0.25450   0.16685   0.00000  Uiso   1.00
H302   H     0.77686   0.02064   0.16954   0.00000  Uiso   1.00
H303   H     0.76976   0.17820   0.38692   0.00000  Uiso   1.00
H304   H     0.81149   0.32742   0.13044   0.00000  Uiso   1.00
H305   H     0.81603   0.07110   0.08919   0.00000  Uiso   1.00
H306   H     0.76594   0.04409   0.08947   0.00000  Uiso   1.00
H307   H     0.77608   0.09161   0.12629   0.00000  Uiso   1.00
H308   H     0.74091   0.29964   0.28657   0.00000  Uiso   1.00
H309   H     0.75374   0.00007   0.33536   0.00000  Uiso   1.00
H310   H     0.74529   0.26261   0.38336   0.00000  Uiso   1.00
H311   H     0.69919   0.27743   0.35329   0.00000  Uiso   1.00
H312   H     0.73039   0.23020   0.33428   0.00000  Uiso   1.00
H313   H     0.86871   0.00020   0.35034   0.00000  Uiso   1.00
H314   H     0.89775   0.15332   0.11320   0.00000  Uiso   1.00
H315   H     0.82060   0.32886   0.38061   0.00000  Uiso   1.00
H316   H     0.83275   0.07318   0.41237   0.00000  Uiso   1.00
H317   H     0.87268   0.03259   0.42616   0.00000  Uiso   1.00
H318   H     0.88175   0.07557   0.38321   0.00000  Uiso   1.00
H319   H     0.92356   0.27194   0.17026   0.00000  Uiso   1.00
H320   H     0.91454   0.33103   0.18497   0.00000  Uiso   1.00
H321   H     0.88512   0.01172   0.10846   0.00000  Uiso   1.00
H322   H     0.93580   0.32130   0.10536   0.00000  Uiso   1.00
H323   H     0.89175   0.28454   0.09542   0.00000  Uiso   1.00
H324   H     0.73254   0.19151   0.04043   0.00000  Uiso   1.00
H325   H     0.93625   0.15056   0.45948   0.00000  Uiso   1.00
H326   H     0.68289   0.14514   0.47769   0.00000  Uiso   1.00
H327   H     0.72187   0.12067   0.44206   0.00000  Uiso   1.00
H328   H     0.69310   0.16015   0.37592   0.00000  Uiso   1.00
N329   N     0.83333   0.28402   0.25000   0.00000  Uiso   1.00
N330   N     0.83333   0.04931   0.25000   0.00000  Uiso   1.00
O331   O     0.77321   0.20625   0.25000   0.00000  Uiso   1.00
O332   O     0.94434   0.14801   0.04680   0.00000  Uiso   1.00
O333   O     0.70768   0.08313   0.26540   0.00000  Uiso   1.00
O334   O     0.95927   0.25029   0.23920   0.00000  Uiso   1.00
O335   O     0.95776   0.08463   0.27151   0.00000  Uiso   1.00
O336   O     0.70845   0.24779   0.22788   0.00000  Uiso   1.00
O337   O     0.83814   0.04526   0.16997   0.00000  Uiso   1.00
O338   O     0.79644   0.28333   0.31793   0.00000  Uiso   1.00
O339   O     0.82073   0.04488   0.32930   0.00000  Uiso   1.00
O340   O     0.86256   0.28598   0.17721   0.00000  Uiso   1.00
O341   O     0.89345   0.12709   0.25001   0.00000  Uiso   1.00
O342   O     0.89345   0.20625   0.25001   0.00000  Uiso   1.00
O343   O     0.77321   0.12709   0.25000   0.00000  Uiso   1.00
O344   O     0.83332   0.20627   0.18513   0.00000  Uiso   1.00
O345   O     0.83334   0.12707   0.31487   0.00000  Uiso   1.00
O346   O     0.83334   0.20627   0.31487   0.00000  Uiso   1.00
O347   O     0.83332   0.12707   0.18513   0.00000  Uiso   1.00
O348   O     0.72473   0.19294   0.45293   0.00000  Uiso   1.00
C349   C     0.08748   0.49979   0.24931   0.00000  Uiso   1.00
C350   C     0.04277   0.49935   0.24889   0.00000  Uiso   1.00
C351   C     0.17410   0.35773   0.21169   0.00000  Uiso   1.00
C352   C     0.15044   0.64108   0.28480   0.00000  Uiso   1.00
C353   C     0.15755   0.35675   0.28812   0.00000  Uiso   1.00
C354   C     0.18129   0.64237   0.21422   0.00000  Uiso   1.00
C355   C     0.16655   0.50034   0.16462   0.00000  Uiso   1.00
C356   C     0.16745   0.49998   0.33537   0.00000  Uiso   1.00
C357   C     0.20470   0.49662   0.40673   0.00000  Uiso   1.00
C358   C     0.13082   0.51103   0.09316   0.00000  Uiso   1.00
C359   C     0.16775   0.50066   0.38353   0.00000  Uiso   1.00
C360   C     0.24584   0.50015   0.25134   0.00000  Uiso   1.00
C361   C     0.16692   0.50152   0.11646   0.00000  Uiso   1.00
C362   C     0.13106   0.50761   0.40607   0.00000  Uiso   1.00
C363   C     0.20350   0.49341   0.09401   0.00000  Uiso   1.00
C364   C     0.13056   0.50910   0.45275   0.00000  Uiso   1.00
C365   C     0.20435   0.49426   0.04728   0.00000  Uiso   1.00
C366   C     0.16757   0.50238   0.47656   0.00000  Uiso   1.00
C367   C     0.16751   0.50234   0.02345   0.00000  Uiso   1.00
C368   C     0.20471   0.49597   0.45339   0.00000  Uiso   1.00
C369   C     0.13060   0.51056   0.04656   0.00000  Uiso   1.00
C370   C     0.09380   0.51672   0.47602   0.00000  Uiso   1.00
C371   C     0.09415   0.51808   0.02279   0.00000  Uiso   1.00
C372   C     0.24112   0.48684   0.02394   0.00000  Uiso   1.00
C373   C     0.03544   0.48483   0.44753   0.00000  Uiso   1.00
C374   C     0.00772   0.48987   0.40678   0.00000  Uiso   1.00
C375   C     0.28715   0.43376   0.04860   0.00000  Uiso   1.00
C376   C     0.32529   0.42692   0.07723   0.00000  Uiso   1.00
C377   C     0.03991   0.39030   0.22577   0.00000  Uiso   1.00
C378   C     0.29487   0.60937   0.27897   0.00000  Uiso   1.00
C379   C     0.28877   0.41301   0.31842   0.00000  Uiso   1.00
C380   C     0.04241   0.58415   0.18076   0.00000  Uiso   1.00
C381   C     0.13685   0.36041   0.14695   0.00000  Uiso   1.00
C382   C     0.24112   0.48867   0.47714   0.00000  Uiso   1.00
C383   C     0.12305   0.39406   0.11066   0.00000  Uiso   1.00
C384   C     0.08880   0.63184   0.32023   0.00000  Uiso   1.00
C385   C     0.06441   0.59836   0.34962   0.00000  Uiso   1.00
C386   C     0.17531   0.35316   0.36333   0.00000  Uiso   1.00
C387   C     0.19155   0.38593   0.39847   0.00000  Uiso   1.00
C388   C     0.23575   0.63466   0.16520   0.00000  Uiso   1.00
C389   C     0.23703   0.64718   0.11553   0.00000  Uiso   1.00
C390   C     0.02093   0.45786   0.25767   0.00000  Uiso   1.00
C391   C     0.31253   0.54200   0.24561   0.00000  Uiso   1.00
C392   C     0.31176   0.45880   0.26151   0.00000  Uiso   1.00
C393   C     0.02146   0.54080   0.24031   0.00000  Uiso   1.00
C394   C     0.29057   0.50042   0.25314   0.00000  Uiso   1.00
Cu395  Cu    0.16667   0.54689   0.25000   0.00000  Uiso   1.00
Cu396  Cu    0.16667   0.45311   0.25000   0.00000  Uiso   1.00
H397   H     0.23307   0.49258   0.38840   0.00000  Uiso   1.00
H398   H     0.32120   0.45868   0.40383   0.00000  Uiso   1.00
H399   H     0.32146   0.52090   0.41001   0.00000  Uiso   1.00
H400   H     0.29348   0.42043   0.01446   0.00000  Uiso   1.00
H401   H     0.26166   0.41323   0.06403   0.00000  Uiso   1.00
H402   H     0.31975   0.43951   0.11170   0.00000  Uiso   1.00
H403   H     0.33304   0.38957   0.07897   0.00000  Uiso   1.00
H404   H     0.01823   0.44636   0.06245   0.00000  Uiso   1.00
H405   H     0.05912   0.35919   0.23073   0.00000  Uiso   1.00
H406   H     0.05270   0.41010   0.19673   0.00000  Uiso   1.00
H407   H     0.00832   0.37813   0.21806   0.00000  Uiso   1.00
H408   H     0.10279   0.51734   0.11142   0.00000  Uiso   1.00
H409   H     0.28474   0.58870   0.30872   0.00000  Uiso   1.00
H410   H     0.27400   0.63936   0.27571   0.00000  Uiso   1.00
H411   H     0.32629   0.62329   0.28417   0.00000  Uiso   1.00
H412   H     0.27067   0.38135   0.32642   0.00000  Uiso   1.00
H413   H     0.27286   0.44283   0.33378   0.00000  Uiso   1.00
H414   H     0.31970   0.40862   0.33347   0.00000  Uiso   1.00
H415   H     0.05779   0.55373   0.16590   0.00000  Uiso   1.00
H416   H     0.06017   0.61548   0.17079   0.00000  Uiso   1.00
H417   H     0.01094   0.58783   0.16685   0.00000  Uiso   1.00
H418   H     0.11019   0.35397   0.16954   0.00000  Uiso   1.00
H419   H     0.10309   0.51153   0.38692   0.00000  Uiso   1.00
H420   H     0.14482   0.66076   0.13044   0.00000  Uiso   1.00
H421   H     0.14936   0.40443   0.08919   0.00000  Uiso   1.00
H422   H     0.09927   0.37742   0.08947   0.00000  Uiso   1.00
H423   H     0.10941   0.42495   0.12629   0.00000  Uiso   1.00
H424   H     0.07424   0.63297   0.28657   0.00000  Uiso   1.00
H425   H     0.08707   0.33340   0.33536   0.00000  Uiso   1.00
H426   H     0.07862   0.59595   0.38336   0.00000  Uiso   1.00
H427   H     0.03252   0.61076   0.35329   0.00000  Uiso   1.00
H428   H     0.06373   0.56353   0.33428   0.00000  Uiso   1.00
H429   H     0.20205   0.33354   0.35034   0.00000  Uiso   1.00
H430   H     0.23108   0.48666   0.11320   0.00000  Uiso   1.00
H431   H     0.15394   0.66219   0.38061   0.00000  Uiso   1.00
H432   H     0.16609   0.40651   0.41237   0.00000  Uiso   1.00
H433   H     0.20602   0.36592   0.42616   0.00000  Uiso   1.00
H434   H     0.21509   0.40890   0.38321   0.00000  Uiso   1.00
H435   H     0.25690   0.60528   0.17026   0.00000  Uiso   1.00
H436   H     0.24788   0.66437   0.18497   0.00000  Uiso   1.00
H437   H     0.21845   0.34505   0.10846   0.00000  Uiso   1.00
H438   H     0.26914   0.65463   0.10536   0.00000  Uiso   1.00
H439   H     0.22508   0.61787   0.09542   0.00000  Uiso   1.00
H440   H     0.06587   0.52484   0.04043   0.00000  Uiso   1.00
H441   H     0.26959   0.48389   0.45948   0.00000  Uiso   1.00
H442   H     0.01622   0.47847   0.47769   0.00000  Uiso   1.00
H443   H     0.05520   0.45400   0.44206   0.00000  Uiso   1.00
H444   H     0.02644   0.49349   0.37592   0.00000  Uiso   1.00
N445   N     0.16667   0.61736   0.25000   0.00000  Uiso   1.00
N446   N     0.16667   0.38264   0.25000   0.00000  Uiso   1.00
O447   O     0.10655   0.53958   0.25000   0.00000  Uiso   1.00
O448   O     0.27767   0.48134   0.04680   0.00000  Uiso   1.00
O449   O     0.04101   0.41647   0.26540   0.00000  Uiso   1.00
O450   O     0.29261   0.58363   0.23920   0.00000  Uiso   1.00
O451   O     0.29110   0.41796   0.27151   0.00000  Uiso   1.00
O452   O     0.04178   0.58112   0.22788   0.00000  Uiso   1.00
O453   O     0.17147   0.37859   0.16997   0.00000  Uiso   1.00
O454   O     0.12978   0.61666   0.31793   0.00000  Uiso   1.00
O455   O     0.15406   0.37821   0.32930   0.00000  Uiso   1.00
O456   O     0.19589   0.61931   0.17721   0.00000  Uiso   1.00
O457   O     0.22679   0.46042   0.25001   0.00000  Uiso   1.00
O458   O     0.22679   0.53958   0.25001   0.00000  Uiso   1.00
O459   O     0.10655   0.46042   0.25000   0.00000  Uiso   1.00
O460   O     0.16666   0.53960   0.18513   0.00000  Uiso   1.00
O461   O     0.16668   0.46040   0.31487   0.00000  Uiso   1.00
O462   O     0.16668   0.53960   0.31487   0.00000  Uiso   1.00
O463   O     0.16666   0.46040   0.18513   0.00000  Uiso   1.00
O464   O     0.05807   0.52627   0.45293   0.00000  Uiso   1.00
C465   C     0.42082   0.49979   0.24931   0.00000  Uiso   1.00
C466   C     0.37610   0.49935   0.24889   0.00000  Uiso   1.00
C467   C     0.50743   0.35773   0.21169   0.00000  Uiso   1.00
C468   C     0.48377   0.64108   0.28480   0.00000  Uiso   1.00
C469   C     0.49089   0.35675   0.28812   0.00000  Uiso   1.00
C470   C     0.51462   0.64237   0.21422   0.00000  Uiso   1.00
C471   C     0.49988   0.50034   0.16462   0.00000  Uiso   1.00
C472   C     0.50079   0.49998   0.33537   0.00000  Uiso   1.00
C473   C     0.53803   0.49662   0.40673   0.00000  Uiso   1.00
C474   C     0.46415   0.51103   0.09316   0.00000  Uiso   1.00
C475   C     0.50108   0.50066   0.38353   0.00000  Uiso   1.00
C476   C     0.57918   0.50015   0.25134   0.00000  Uiso   1.00
C477   C     0.50026   0.50152   0.11646   0.00000  Uiso   1.00
C478   C     0.46440   0.50761   0.40607   0.00000  Uiso   1.00
C479   C     0.53683   0.49341   0.09401   0.00000  Uiso   1.00
C480   C     0.46389   0.50910   0.45275   0.00000  Uiso   1.00
C481   C     0.53769   0.49426   0.04728   0.00000  Uiso   1.00
C482   C     0.50090   0.50238   0.47656   0.00000  Uiso   1.00
C483   C     0.50084   0.50234   0.02345   0.00000  Uiso   1.00
C484   C     0.53804   0.49597   0.45339   0.00000  Uiso   1.00
C485   C     0.46393   0.51056   0.04656   0.00000  Uiso   1.00
C486   C     0.42713   0.51672   0.47602   0.00000  Uiso   1.00
C487   C     0.42748   0.51808   0.02279   0.00000  Uiso   1.00
C488   C     0.57445   0.48684   0.02394   0.00000  Uiso   1.00
C489   C     0.36877   0.48483   0.44753   0.00000  Uiso   1.00
C490   C     0.34105   0.48987   0.40678   0.00000  Uiso   1.00
C491   C     0.62049   0.43376   0.04860   0.00000  Uiso   1.00
C492   C     0.65862   0.42692   0.07723   0.00000  Uiso   1.00
C493   C     0.37324   0.39030   0.22577   0.00000  Uiso   1.00
C494   C     0.62820   0.60937   0.27897   0.00000  Uiso   1.00
C495   C     0.62210   0.41301   0.31842   0.00000  Uiso   1.00
C496   C     0.37574   0.58415   0.18076   0.00000  Uiso   1.00
C497   C     0.47019   0.36041   0.14695   0.00000  Uiso   1.00
C498   C     0.57445   0.48867   0.47714   0.00000  Uiso   1.00
C499   C     0.45638   0.39406   0.11066   0.00000  Uiso   1.00
C500   C     0.42213   0.63184   0.32023   0.00000  Uiso   1.00
C501   C     0.39774   0.59836   0.34962   0.00000  Uiso   1.00
C502   C     0.50864   0.35316   0.36333   0.00000  Uiso   1.00
C503   C     0.52489   0.38593   0.39847   0.00000  Uiso   1.00
C504   C     0.56908   0.63466   0.16520   0.00000  Uiso   1.00
C505   C     0.57037   0.64718   0.11553   0.00000  Uiso   1.00
C506   C     0.35426   0.45786   0.25767   0.00000  Uiso   1.00
C507   C     0.64587   0.54200   0.24561   0.00000  Uiso   1.00
C508   C     0.64510   0.45880   0.26151   0.00000  Uiso   1.00
C509   C     0.35480   0.54080   0.24031   0.00000  Uiso   1.00
C510   C     0.62390   0.50042   0.25314   0.00000  Uiso   1.00
Cu511  Cu    0.50000   0.54689   0.25000   0.00000  Uiso   1.00
Cu512  Cu    0.50000   0.45311   0.25000   0.00000  Uiso   1.00
H513   H     0.56641   0.49258   0.38840   0.00000  Uiso   1.00
H514   H     0.65454   0.45868   0.40383   0.00000  Uiso   1.00
H515   H     0.65479   0.52090   0.41001   0.00000  Uiso   1.00
H516   H     0.62681   0.42043   0.01446   0.00000  Uiso   1.00
H517   H     0.59500   0.41323   0.06403   0.00000  Uiso   1.00
H518   H     0.65309   0.43951   0.11170   0.00000  Uiso   1.00
H519   H     0.66637   0.38957   0.07897   0.00000  Uiso   1.00
H520   H     0.35157   0.44636   0.06245   0.00000  Uiso   1.00
H521   H     0.39245   0.35919   0.23073   0.00000  Uiso   1.00
H522   H     0.38604   0.41010   0.19673   0.00000  Uiso   1.00
H523   H     0.34165   0.37813   0.21806   0.00000  Uiso   1.00
H524   H     0.43612   0.51734   0.11142   0.00000  Uiso   1.00
H525   H     0.61807   0.58870   0.30872   0.00000  Uiso   1.00
H526   H     0.60733   0.63936   0.27571   0.00000  Uiso   1.00
H527   H     0.65962   0.62329   0.28417   0.00000  Uiso   1.00
H528   H     0.60401   0.38135   0.32642   0.00000  Uiso   1.00
H529   H     0.60619   0.44283   0.33378   0.00000  Uiso   1.00
H530   H     0.65303   0.40862   0.33347   0.00000  Uiso   1.00
H531   H     0.39112   0.55373   0.16590   0.00000  Uiso   1.00
H532   H     0.39350   0.61548   0.17079   0.00000  Uiso   1.00
H533   H     0.34428   0.58783   0.16685   0.00000  Uiso   1.00
H534   H     0.44353   0.35397   0.16954   0.00000  Uiso   1.00
H535   H     0.43642   0.51153   0.38692   0.00000  Uiso   1.00
H536   H     0.47816   0.66076   0.13044   0.00000  Uiso   1.00
H537   H     0.48269   0.40443   0.08919   0.00000  Uiso   1.00
H538   H     0.43261   0.37742   0.08947   0.00000  Uiso   1.00
H539   H     0.44274   0.42495   0.12629   0.00000  Uiso   1.00
H540   H     0.40757   0.63297   0.28657   0.00000  Uiso   1.00
H541   H     0.42040   0.33340   0.33536   0.00000  Uiso   1.00
H542   H     0.41196   0.59595   0.38336   0.00000  Uiso   1.00
H543   H     0.36585   0.61076   0.35329   0.00000  Uiso   1.00
H544   H     0.39706   0.56353   0.33428   0.00000  Uiso   1.00
H545   H     0.53538   0.33354   0.35034   0.00000  Uiso   1.00
H546   H     0.56442   0.48666   0.11320   0.00000  Uiso   1.00
H547   H     0.48727   0.66219   0.38061   0.00000  Uiso   1.00
H548   H     0.49942   0.40651   0.41237   0.00000  Uiso   1.00
H549   H     0.53935   0.36592   0.42616   0.00000  Uiso   1.00
H550   H     0.54842   0.40890   0.38321   0.00000  Uiso   1.00
H551   H     0.59023   0.60528   0.17026   0.00000  Uiso   1.00
H552   H     0.58121   0.66437   0.18497   0.00000  Uiso   1.00
H553   H     0.55179   0.34505   0.10846   0.00000  Uiso   1.00
H554   H     0.60247   0.65463   0.10536   0.00000  Uiso   1.00
H555   H     0.55842   0.61787   0.09542   0.00000  Uiso   1.00
H556   H     0.39921   0.52484   0.04043   0.00000  Uiso   1.00
H557   H     0.60292   0.48389   0.45948   0.00000  Uiso   1.00
H558   H     0.34956   0.47847   0.47769   0.00000  Uiso   1.00
H559   H     0.38853   0.45400   0.44206   0.00000  Uiso   1.00
H560   H     0.35977   0.49349   0.37592   0.00000  Uiso   1.00
N561   N     0.50000   0.61736   0.25000   0.00000  Uiso   1.00
N562   N     0.50000   0.38264   0.25000   0.00000  Uiso   1.00
O563   O     0.43988   0.53958   0.25000   0.00000  Uiso   1.00
O564   O     0.61100   0.48134   0.04680   0.00000  Uiso   1.00
O565   O     0.37434   0.41647   0.26540   0.00000  Uiso   1.00
O566   O     0.62594   0.58363   0.23920   0.00000  Uiso   1.00
O567   O     0.62443   0.41796   0.27151   0.00000  Uiso   1.00
O568   O     0.37511   0.58112   0.22788   0.00000  Uiso   1.00
O569   O     0.50480   0.37859   0.16997   0.00000  Uiso   1.00
O570   O     0.46311   0.61666   0.31793   0.00000  Uiso   1.00
O571   O     0.48740   0.37821   0.32930   0.00000  Uiso   1.00
O572   O     0.52922   0.61931   0.17721   0.00000  Uiso   1.00
O573   O     0.56012   0.46042   0.25001   0.00000  Uiso   1.00
O574   O     0.56012   0.53958   0.25001   0.00000  Uiso   1.00
O575   O     0.43988   0.46042   0.25000   0.00000  Uiso   1.00
O576   O     0.49999   0.53960   0.18513   0.00000  Uiso   1.00
O577   O     0.50001   0.46040   0.31487   0.00000  Uiso   1.00
O578   O     0.50001   0.53960   0.31487   0.00000  Uiso   1.00
O579   O     0.49999   0.46040   0.18513   0.00000  Uiso   1.00
O580   O     0.39140   0.52627   0.45293   0.00000  Uiso   1.00
C581   C     0.75415   0.49979   0.24931   0.00000  Uiso   1.00
C582   C     0.70943   0.49935   0.24889   0.00000  Uiso   1.00
C583   C     0.84077   0.35773   0.21169   0.00000  Uiso   1.00
C584   C     0.81711   0.64108   0.28480   0.00000  Uiso   1.00
C585   C     0.82422   0.35675   0.28812   0.00000  Uiso   1.00
C586   C     0.84795   0.64237   0.21422   0.00000  Uiso   1.00
C587   C     0.83322   0.50034   0.16462   0.00000  Uiso   1.00
C588   C     0.83412   0.49998   0.33537   0.00000  Uiso   1.00
C589   C     0.87137   0.49662   0.40673   0.00000  Uiso   1.00
C590   C     0.79748   0.51103   0.09316   0.00000  Uiso   1.00
C591   C     0.83441   0.50066   0.38353   0.00000  Uiso   1.00
C592   C     0.91251   0.50015   0.25134   0.00000  Uiso   1.00
C593   C     0.83359   0.50152   0.11646   0.00000  Uiso   1.00
C594   C     0.79773   0.50761   0.40607   0.00000  Uiso   1.00
C595   C     0.87016   0.49341   0.09401   0.00000  Uiso   1.00
C596   C     0.79722   0.50910   0.45275   0.00000  Uiso   1.00
C597   C     0.87102   0.49426   0.04728   0.00000  Uiso   1.00
C598   C     0.83423   0.50238   0.47656   0.00000  Uiso   1.00
C599   C     0.83417   0.50234   0.02345   0.00000  Uiso   1.00
C600   C     0.87138   0.49597   0.45339   0.00000  Uiso   1.00
C601   C     0.79727   0.51056   0.04656   0.00000  Uiso   1.00
C602   C     0.76046   0.51672   0.47602   0.00000  Uiso   1.00
C603   C     0.76082   0.51808   0.02279   0.00000  Uiso   1.00
C604   C     0.90779   0.48684   0.02394   0.00000  Uiso   1.00
C605   C     0.70211   0.48483   0.44753   0.00000  Uiso   1.00
C606   C     0.67439   0.48987   0.40678   0.00000  Uiso   1.00
C607   C     0.95382   0.43376   0.04860   0.00000  Uiso   1.00
C608   C     0.99196   0.42692   0.07723   0.00000  Uiso   1.00
C609   C     0.70658   0.39030   0.22577   0.00000  Uiso   1.00
C610   C     0.96153   0.60937   0.27897   0.00000  Uiso   1.00
C611   C     0.95543   0.41301   0.31842   0.00000  Uiso   1.00
C612   C     0.70907   0.58415   0.18076   0.00000  Uiso   1.00
C613   C     0.80352   0.36041   0.14695   0.00000  Uiso   1.00
C614   C     0.90779   0.48867   0.47714   0.00000  Uiso   1.00
C615   C     0.78971   0.39406   0.11066   0.00000  Uiso   1.00
C616   C     0.75546   0.63184   0.32023   0.00000  Uiso   1.00
C617   C     0.73108   0.59836   0.34962   0.00000  Uiso   1.00
C618   C     0.84197   0.35316   0.36333   0.00000  Uiso   1.00
C619   C     0.85822   0.38593   0.39847   0.00000  Uiso   1.00
C620   C     0.90241   0.63466   0.16520   0.00000  Uiso   1.00
C621   C     0.90370   0.64718   0.11553   0.00000  Uiso   1.00
C622   C     0.68760   0.45786   0.25767   0.00000  Uiso   1.00
C623   C     0.97920   0.54200   0.24561   0.00000  Uiso   1.00
C624   C     0.97843   0.45880   0.26151   0.00000  Uiso   1.00
C625   C     0.68813   0.54080   0.24031   0.00000  Uiso   1.00
C626   C     0.95724   0.50042   0.25314   0.00000  Uiso   1.00
Cu627  Cu    0.83333   0.54689   0.25000   0.00000  Uiso   1.00
Cu628  Cu    0.83333   0.45311   0.25000   0.00000  Uiso   1.00
H629   H     0.89974   0.49258   0.38840   0.00000  Uiso   1.00
H630   H     0.98787   0.45868   0.40383   0.00000  Uiso   1.00
H631   H     0.98812   0.52090   0.41001   0.00000  Uiso   1.00
H632   H     0.96015   0.42043   0.01446   0.00000  Uiso   1.00
H633   H     0.92833   0.41323   0.06403   0.00000  Uiso   1.00
H634   H     0.98642   0.43951   0.11170   0.00000  Uiso   1.00
H635   H     0.99970   0.38957   0.07897   0.00000  Uiso   1.00
H636   H     0.68490   0.44636   0.06245   0.00000  Uiso   1.00
H637   H     0.72578   0.35919   0.23073   0.00000  Uiso   1.00
H638   H     0.71937   0.41010   0.19673   0.00000  Uiso   1.00
H639   H     0.67498   0.37813   0.21806   0.00000  Uiso   1.00
H640   H     0.76946   0.51734   0.11142   0.00000  Uiso   1.00
H641   H     0.95140   0.58870   0.30872   0.00000  Uiso   1.00
H642   H     0.94067   0.63936   0.27571   0.00000  Uiso   1.00
H643   H     0.99296   0.62329   0.28417   0.00000  Uiso   1.00
H644   H     0.93734   0.38135   0.32642   0.00000  Uiso   1.00
H645   H     0.93953   0.44283   0.33378   0.00000  Uiso   1.00
H646   H     0.98636   0.40862   0.33347   0.00000  Uiso   1.00
H647   H     0.72446   0.55373   0.16590   0.00000  Uiso   1.00
H648   H     0.72684   0.61548   0.17079   0.00000  Uiso   1.00
H649   H     0.67761   0.58783   0.16685   0.00000  Uiso   1.00
H650   H     0.77686   0.35397   0.16954   0.00000  Uiso   1.00
H651   H     0.76976   0.51153   0.38692   0.00000  Uiso   1.00
H652   H     0.81149   0.66076   0.13044   0.00000  Uiso   1.00
H653   H     0.81603   0.40443   0.08919   0.00000  Uiso   1.00
H654   H     0.76594   0.37742   0.08947   0.00000  Uiso   1.00
H655   H     0.77608   0.42495   0.12629   0.00000  Uiso   1.00
H656   H     0.74091   0.63297   0.28657   0.00000  Uiso   1.00
H657   H     0.75374   0.33340   0.33536   0.00000  Uiso   1.00
H658   H     0.74529   0.59595   0.38336   0.00000  Uiso   1.00
H659   H     0.69919   0.61076   0.35329   0.00000  Uiso   1.00
H660   H     0.73039   0.56353   0.33428   0.00000  Uiso   1.00
H661   H     0.86871   0.33354   0.35034   0.00000  Uiso   1.00
H662   H     0.89775   0.48666   0.11320   0.00000  Uiso   1.00
H663   H     0.82060   0.66219   0.38061   0.00000  Uiso   1.00
H664   H     0.83275   0.40651   0.41237   0.00000  Uiso   1.00
H665   H     0.87268   0.36592   0.42616   0.00000  Uiso   1.00
H666   H     0.88175   0.40890   0.38321   0.00000  Uiso   1.00
H667   H     0.92356   0.60528   0.17026   0.00000  Uiso   1.00
H668   H     0.91454   0.66437   0.18497   0.00000  Uiso   1.00
H669   H     0.88512   0.34505   0.10846   0.00000  Uiso   1.00
H670   H     0.93580   0.65463   0.10536   0.00000  Uiso   1.00
H671   H     0.89175   0.61787   0.09542   0.00000  Uiso   1.00
H672   H     0.73254   0.52484   0.04043   0.00000  Uiso   1.00
H673   H     0.93625   0.48389   0.45948   0.00000  Uiso   1.00
H674   H     0.68289   0.47847   0.47769   0.00000  Uiso   1.00
H675   H     0.72187   0.45400   0.44206   0.00000  Uiso   1.00
H676   H     0.69310   0.49349   0.37592   0.00000  Uiso   1.00
N677   N     0.83333   0.61736   0.25000   0.00000  Uiso   1.00
N678   N     0.83333   0.38264   0.25000   0.00000  Uiso   1.00
O679   O     0.77321   0.53958   0.25000   0.00000  Uiso   1.00
O680   O     0.94434   0.48134   0.04680   0.00000  Uiso   1.00
O681   O     0.70768   0.41647   0.26540   0.00000  Uiso   1.00
O682   O     0.95927   0.58363   0.23920   0.00000  Uiso   1.00
O683   O     0.95776   0.41796   0.27151   0.00000  Uiso   1.00
O684   O     0.70845   0.58112   0.22788   0.00000  Uiso   1.00
O685   O     0.83814   0.37859   0.16997   0.00000  Uiso   1.00
O686   O     0.79644   0.61666   0.31793   0.00000  Uiso   1.00
O687   O     0.82073   0.37821   0.32930   0.00000  Uiso   1.00
O688   O     0.86256   0.61931   0.17721   0.00000  Uiso   1.00
O689   O     0.89345   0.46042   0.25001   0.00000  Uiso   1.00
O690   O     0.89345   0.53958   0.25001   0.00000  Uiso   1.00
O691   O     0.77321   0.46042   0.25000   0.00000  Uiso   1.00
O692   O     0.83332   0.53960   0.18513   0.00000  Uiso   1.00
O693   O     0.83334   0.46040   0.31487   0.00000  Uiso   1.00
O694   O     0.83334   0.53960   0.31487   0.00000  Uiso   1.00
O695   O     0.83332   0.46040   0.18513   0.00000  Uiso   1.00
O696   O     0.72473   0.52627   0.45293   0.00000  Uiso   1.00
C697   C     0.08748   0.83313   0.24931   0.00000  Uiso   1.00
C698   C     0.04277   0.83269   0.24889   0.00000  Uiso   1.00
C699   C     0.17410   0.69107   0.21169   0.00000  Uiso   1.00
C700   C     0.15044   0.97441   0.28480   0.00000  Uiso   1.00
C701   C     0.15755   0.69009   0.28812   0.00000  Uiso   1.00
C702   C     0.18129   0.97570   0.21422   0.00000  Uiso   1.00
C703   C     0.16655   0.83367   0.16462   0.00000  Uiso   1.00
C704   C     0.16745   0.83331   0.33537   0.00000  Uiso   1.00
C705   C     0.20470   0.82996   0.40673   0.00000  Uiso   1.00
C706   C     0.13082   0.84437   0.09316   0.00000  Uiso   1.00
C707   C     0.16775   0.83399   0.38353   0.00000  Uiso   1.00
C708   C     0.24584   0.83349   0.25134   0.00000  Uiso   1.00
C709   C     0.16692   0.83485   0.11646   0.00000  Uiso   1.00
C710   C     0.13106   0.84094   0.40607   0.00000  Uiso   1.00
C711   C     0.20350   0.82674   0.09401   0.00000  Uiso   1.00
C712   C     0.13056   0.84243   0.45275   0.00000  Uiso   1.00
C713   C     0.20435   0.82759   0.04728   0.00000  Uiso   1.00
C714   C     0.16757   0.83571   0.47656   0.00000  Uiso   1.00
C715   C     0.16751   0.83567   0.02345   0.00000  Uiso   1.00
C716   C     0.20471   0.82931   0.45339   0.00000  Uiso   1.00
C717   C     0.13060   0.84390   0.04656   0.00000  Uiso   1.00
C718   C     0.09380   0.85005   0.47602   0.00000  Uiso   1.00
C719   C     0.09415   0.85141   0.02279   0.00000  Uiso   1.00
C720   C     0.24112   0.82018   0.02394   0.00000  Uiso   1.00
C721   C     0.03544   0.81816   0.44753   0.00000  Uiso   1.00
C722   C     0.00772   0.82320   0.40678   0.00000  Uiso   1.00
C723   C     0.28715   0.76709   0.04860   0.00000  Uiso   1.00
C724   C     0.32529   0.76026   0.07723   0.00000  Uiso   1.00
C725   C     0.03991   0.72363   0.22577   0.00000  Uiso   1.00
C726   C     0.29487   0.94271   0.27897   0.00000  Uiso   1.00
C727   C     0.28877   0.74634   0.31842   0.00000  Uiso   1.00
C728   C     0.04241   0.91749   0.18076   0.00000  Uiso   1.00
C729   C     0.13685   0.69374   0.14695   0.00000  Uiso   1.00
C730   C     0.24112   0.82201   0.47714   0.00000  Uiso   1.00
C731   C     0.12305   0.72739   0.11066   0.00000  Uiso   1.00
C732   C     0.08880   0.96517   0.32023   0.00000  Uiso   1.00
C733   C     0.06441   0.93170   0.34962   0.00000  Uiso   1.00
C734   C     0.17531   0.68649   0.36333   0.00000  Uiso   1.00
C735   C     0.19155   0.71926   0.39847   0.00000  Uiso   1.00
C736   C     0.23575   0.96799   0.16520   0.00000  Uiso   1.00
C737   C     0.23703   0.98051   0.11553   0.00000  Uiso   1.00
C738   C     0.02093   0.79119   0.25767   0.00000  Uiso   1.00
C739   C     0.31253   0.87534   0.24561   0.00000  Uiso   1.00
C740   C     0.31176   0.79213   0.26151   0.00000  Uiso   1.00
C741   C     0.02146   0.87413   0.24031   0.00000  Uiso   1.00
C742   C     0.29057   0.83376   0.25314   0.00000  Uiso   1.00
Cu743  Cu    0.16667   0.88022   0.25000   0.00000  Uiso   1.00
Cu744  Cu    0.16667   0.78645   0.25000   0.00000  Uiso   1.00
H745   H     0.23307   0.82591   0.38840   0.00000  Uiso   1.00
H746   H     0.32120   0.79202   0.40383   0.00000  Uiso   1.00
H747   H     0.32146   0.85423   0.41001   0.00000  Uiso   1.00
H748   H     0.29348   0.75377   0.01446   0.00000  Uiso   1.00
H749   H     0.26166   0.74656   0.06403   0.00000  Uiso   1.00
H750   H     0.31975   0.77284   0.11170   0.00000  Uiso   1.00
H751   H     0.33304   0.72291   0.07897   0.00000  Uiso   1.00
H752   H     0.01823   0.77969   0.06245   0.00000  Uiso   1.00
H753   H     0.05912   0.69253   0.23073   0.00000  Uiso   1.00
H754   H     0.05270   0.74343   0.19673   0.00000  Uiso   1.00
H755   H     0.00832   0.71146   0.21806   0.00000  Uiso   1.00
H756   H     0.10279   0.85067   0.11142   0.00000  Uiso   1.00
H757   H     0.28474   0.92204   0.30872   0.00000  Uiso   1.00
H758   H     0.27400   0.97269   0.27571   0.00000  Uiso   1.00
H759   H     0.32629   0.95663   0.28417   0.00000  Uiso   1.00
H760   H     0.27067   0.71469   0.32642   0.00000  Uiso   1.00
H761   H     0.27286   0.77616   0.33378   0.00000  Uiso   1.00
H762   H     0.31970   0.74195   0.33347   0.00000  Uiso   1.00
H763   H     0.05779   0.88706   0.16590   0.00000  Uiso   1.00
H764   H     0.06017   0.94881   0.17079   0.00000  Uiso   1.00
H765   H     0.01094   0.92117   0.16685   0.00000  Uiso   1.00
H766   H     0.11019   0.68730   0.16954   0.00000  Uiso   1.00
H767   H     0.10309   0.84487   0.38692   0.00000  Uiso   1.00
H768   H     0.14482   0.99409   0.13044   0.00000  Uiso   1.00
H769   H     0.14936   0.73777   0.08919   0.00000  Uiso   1.00
H770   H     0.09927   0.71075   0.08947   0.00000  Uiso   1.00
H771   H     0.10941   0.75828   0.12629   0.00000  Uiso   1.00
H772   H     0.07424   0.96631   0.28657   0.00000  Uiso   1.00
H773   H     0.08707   0.66674   0.33536   0.00000  Uiso   1.00
H774   H     0.07862   0.92928   0.38336   0.00000  Uiso   1.00
H775   H     0.03252   0.94410   0.35329   0.00000  Uiso   1.00
H776   H     0.06373   0.89686   0.33428   0.00000  Uiso   1.00
H777   H     0.20205   0.66687   0.35034   0.00000  Uiso   1.00
H778   H     0.23108   0.81999   0.11320   0.00000  Uiso   1.00
H779   H     0.15394   0.99552   0.38061   0.00000  Uiso   1.00
H780   H     0.16609   0.73984   0.41237   0.00000  Uiso   1.00
H781   H     0.20602   0.69926   0.42616   0.00000  Uiso   1.00
H782   H     0.21509   0.74223   0.38321   0.00000  Uiso   1.00
H783   H     0.25690   0.93861   0.17026   0.00000  Uiso   1.00
H784   H     0.24788   0.99770   0.18497   0.00000  Uiso   1.00
H785   H     0.21845   0.67838   0.10846   0.00000  Uiso   1.00
H786   H     0.26914   0.98796   0.10536   0.00000  Uiso   1.00
H787   H     0.22508   0.95120   0.09542   0.00000  Uiso   1.00
H788   H     0.06587   0.85817   0.04043   0.00000  Uiso   1.00
H789   H     0.26959   0.81723   0.45948   0.00000  Uiso   1.00
H790   H     0.01622   0.81181   0.47769   0.00000  Uiso   1.00
H791   H     0.05520   0.78734   0.44206   0.00000  Uiso   1.00
H792   H     0.02644   0.82682   0.37592   0.00000  Uiso   1.00
N793   N     0.16667   0.95069   0.25000   0.00000  Uiso   1.00
N794   N     0.16667   0.71598   0.25000   0.00000  Uiso   1.00
O795   O     0.10655   0.87291   0.25000   0.00000  Uiso   1.00
O796   O     0.27767   0.81468   0.04680   0.00000  Uiso   1.00
O797   O     0.04101   0.74980   0.26540   0.00000  Uiso   1.00
O798   O     0.29261   0.91696   0.23920   0.00000  Uiso   1.00
O799   O     0.29110   0.75130   0.27151   0.00000  Uiso   1.00
O800   O     0.04178   0.91445   0.22788   0.00000  Uiso   1.00
O801   O     0.17147   0.71193   0.16997   0.00000  Uiso   1.00
O802   O     0.12978   0.94999   0.31793   0.00000  Uiso   1.00
O803   O     0.15406   0.71154   0.32930   0.00000  Uiso   1.00
O804   O     0.19589   0.95264   0.17721   0.00000  Uiso   1.00
O805   O     0.22679   0.79375   0.25001   0.00000  Uiso   1.00
O806   O     0.22679   0.87291   0.25001   0.00000  Uiso   1.00
O807   O     0.10655   0.79375   0.25000   0.00000  Uiso   1.00
O808   O     0.16666   0.87293   0.18513   0.00000  Uiso   1.00
O809   O     0.16668   0.79373   0.31487   0.00000  Uiso   1.00
O810   O     0.16668   0.87293   0.31487   0.00000  Uiso   1.00
O811   O     0.16666   0.79373   0.18513   0.00000  Uiso   1.00
O812   O     0.05807   0.85960   0.45293   0.00000  Uiso   1.00
C813   C     0.42082   0.83313   0.24931   0.00000  Uiso   1.00
C814   C     0.37610   0.83269   0.24889   0.00000  Uiso   1.00
C815   C     0.50743   0.69107   0.21169   0.00000  Uiso   1.00
C816   C     0.48377   0.97441   0.28480   0.00000  Uiso   1.00
C817   C     0.49089   0.69009   0.28812   0.00000  Uiso   1.00
C818   C     0.51462   0.97570   0.21422   0.00000  Uiso   1.00
C819   C     0.49988   0.83367   0.16462   0.00000  Uiso   1.00
C820   C     0.50079   0.83331   0.33537   0.00000  Uiso   1.00
C821   C     0.53803   0.82996   0.40673   0.00000  Uiso   1.00
C822   C     0.46415   0.84437   0.09316   0.00000  Uiso   1.00
C823   C     0.50108   0.83399   0.38353   0.00000  Uiso   1.00
C824   C     0.57918   0.83349   0.25134   0.00000  Uiso   1.00
C825   C     0.50026   0.83485   0.11646   0.00000  Uiso   1.00
C826   C     0.46440   0.84094   0.40607   0.00000  Uiso   1.00
C827   C     0.53683   0.82674   0.09401   0.00000  Uiso   1.00
C828   C     0.46389   0.84243   0.45275   0.00000  Uiso   1.00
C829   C     0.53769   0.82759   0.04728   0.00000  Uiso   1.00
C830   C     0.50090   0.83571   0.47656   0.00000  Uiso   1.00
C831   C     0.50084   0.83567   0.02345   0.00000  Uiso   1.00
C832   C     0.53804   0.82931   0.45339   0.00000  Uiso   1.00
C833   C     0.46393   0.84390   0.04656   0.00000  Uiso   1.00
C834   C     0.42713   0.85005   0.47602   0.00000  Uiso   1.00
C835   C     0.42748   0.85141   0.02279   0.00000  Uiso   1.00
C836   C     0.57445   0.82018   0.02394   0.00000  Uiso   1.00
C837   C     0.36877   0.81816   0.44753   0.00000  Uiso   1.00
C838   C     0.34105   0.82320   0.40678   0.00000  Uiso   1.00
C839   C     0.62049   0.76709   0.04860   0.00000  Uiso   1.00
C840   C     0.65862   0.76026   0.07723   0.00000  Uiso   1.00
C841   C     0.37324   0.72363   0.22577   0.00000  Uiso   1.00
C842   C     0.62820   0.94271   0.27897   0.00000  Uiso   1.00
C843   C     0.62210   0.74634   0.31842   0.00000  Uiso   1.00
C844   C     0.37574   0.91749   0.18076   0.00000  Uiso   1.00
C845   C     0.47019   0.69374   0.14695   0.00000  Uiso   1.00
C846   C     0.57445   0.82201   0.47714   0.00000  Uiso   1.00
C847   C     0.45638   0.72739   0.11066   0.00000  Uiso   1.00
C848   C     0.42213   0.96517   0.32023   0.00000  Uiso   1.00
C849   C     0.39774   0.93170   0.34962   0.00000  Uiso   1.00
C850   C     0.50864   0.68649   0.36333   0.00000  Uiso   1.00
C851   C     0.52489   0.71926   0.39847   0.00000  Uiso   1.00
C852   C     0.56908   0.96799   0.16520   0.00000  Uiso   1.00
C853   C     0.57037   0.98051   0.11553   0.00000  Uiso   1.00
C854   C     0.35426   0.79119   0.25767   0.00000  Uiso   1.00
C855   C     0.64587   0.87534   0.24561   0.00000  Uiso   1.00
C856   C     0.64510   0.79213   0.26151   0.00000  Uiso   1.00
C857   C     0.35480   0.87413   0.24031   0.00000  Uiso   1.00
C858   C     0.62390   0.83376   0.25314   0.00000  Uiso   1.00
Cu859  Cu    0.50000   0.88022   0.25000   0.00000  Uiso   1.00
Cu860  Cu    0.50000   0.78645   0.25000   0.00000  Uiso   1.00
H861   H     0.56641   0.82591   0.38840   0.00000  Uiso   1.00
H862   H     0.65454   0.79202   0.40383   0.00000  Uiso   1.00
H863   H     0.65479   0.85423   0.41001   0.00000  Uiso   1.00
H864   H     0.62681   0.75377   0.01446   0.00000  Uiso   1.00
H865   H     0.59500   0.74656   0.06403   0.00000  Uiso   1.00
H866   H     0.65309   0.77284   0.11170   0.00000  Uiso   1.00
H867   H     0.66637   0.72291   0.07897   0.00000  Uiso   1.00
H868   H     0.35157   0.77969   0.06245   0.00000  Uiso   1.00
H869   H     0.39245   0.69253   0.23073   0.00000  Uiso   1.00
H870   H     0.38604   0.74343   0.19673   0.00000  Uiso   1.00
H871   H     0.34165   0.71146   0.21806   0.00000  Uiso   1.00
H872   H     0.43612   0.85067   0.11142   0.00000  Uiso   1.00
H873   H     0.61807   0.92204   0.30872   0.00000  Uiso   1.00
H874   H     0.60733   0.97269   0.27571   0.00000  Uiso   1.00
H875   H     0.65962   0.95663   0.28417   0.00000  Uiso   1.00
H876   H     0.60401   0.71469   0.32642   0.00000  Uiso   1.00
H877   H     0.60619   0.77616   0.33378   0.00000  Uiso   1.00
H878   H     0.65303   0.74195   0.33347   0.00000  Uiso   1.00
H879   H     0.39112   0.88706   0.16590   0.00000  Uiso   1.00
H880   H     0.39350   0.94881   0.17079   0.00000  Uiso   1.00
H881   H     0.34428   0.92117   0.16685   0.00000  Uiso   1.00
H882   H     0.44353   0.68730   0.16954   0.00000  Uiso   1.00
H883   H     0.43642   0.84487   0.38692   0.00000  Uiso   1.00
H884   H     0.47816   0.99409   0.13044   0.00000  Uiso   1.00
H885   H     0.48269   0.73777   0.08919   0.00000  Uiso   1.00
H886   H     0.43261   0.71075   0.08947   0.00000  Uiso   1.00
H887   H     0.44274   0.75828   0.12629   0.00000  Uiso   1.00
H888   H     0.40757   0.96631   0.28657   0.00000  Uiso   1.00
H889   H     0.42040   0.66674   0.33536   0.00000  Uiso   1.00
H890   H     0.41196   0.92928   0.38336   0.00000  Uiso   1.00
H891   H     0.36585   0.94410   0.35329   0.00000  Uiso   1.00
H892   H     0.39706   0.89686   0.33428   0.00000  Uiso   1.00
H893   H     0.53538   0.66687   0.35034   0.00000  Uiso   1.00
H894   H     0.56442   0.81999   0.11320   0.00000  Uiso   1.00
H895   H     0.48727   0.99552   0.38061   0.00000  Uiso   1.00
H896   H     0.49942   0.73984   0.41237   0.00000  Uiso   1.00
H897   H     0.53935   0.69926   0.42616   0.00000  Uiso   1.00
H898   H     0.54842   0.74223   0.38321   0.00000  Uiso   1.00
H899   H     0.59023   0.93861   0.17026   0.00000  Uiso   1.00
H900   H     0.58121   0.99770   0.18497   0.00000  Uiso   1.00
H901   H     0.55179   0.67838   0.10846   0.00000  Uiso   1.00
H902   H     0.60247   0.98796   0.10536   0.00000  Uiso   1.00
H903   H     0.55842   0.95120   0.09542   0.00000  Uiso   1.00
H904   H     0.39921   0.85817   0.04043   0.00000  Uiso   1.00
H905   H     0.60292   0.81723   0.45948   0.00000  Uiso   1.00
H906   H     0.34956   0.81181   0.47769   0.00000  Uiso   1.00
H907   H     0.38853   0.78734   0.44206   0.00000  Uiso   1.00
H908   H     0.35977   0.82682   0.37592   0.00000  Uiso   1.00
N909   N     0.50000   0.95069   0.25000   0.00000  Uiso   1.00
N910   N     0.50000   0.71598   0.25000   0.00000  Uiso   1.00
O911   O     0.43988   0.87291   0.25000   0.00000  Uiso   1.00
O912   O     0.61100   0.81468   0.04680   0.00000  Uiso   1.00
O913   O     0.37434   0.74980   0.26540   0.00000  Uiso   1.00
O914   O     0.62594   0.91696   0.23920   0.00000  Uiso   1.00
O915   O     0.62443   0.75130   0.27151   0.00000  Uiso   1.00
O916   O     0.37511   0.91445   0.22788   0.00000  Uiso   1.00
O917   O     0.50480   0.71193   0.16997   0.00000  Uiso   1.00
O918   O     0.46311   0.94999   0.31793   0.00000  Uiso   1.00
O919   O     0.48740   0.71154   0.32930   0.00000  Uiso   1.00
O920   O     0.52922   0.95264   0.17721   0.00000  Uiso   1.00
O921   O     0.56012   0.79375   0.25001   0.00000  Uiso   1.00
O922   O     0.56012   0.87291   0.25001   0.00000  Uiso   1.00
O923   O     0.43988   0.79375   0.25000   0.00000  Uiso   1.00
O924   O     0.49999   0.87293   0.18513   0.00000  Uiso   1.00
O925   O     0.50001   0.79373   0.31487   0.00000  Uiso   1.00
O926   O     0.50001   0.87293   0.31487   0.00000  Uiso   1.00
O927   O     0.49999   0.79373   0.18513   0.00000  Uiso   1.00
O928   O     0.39140   0.85960   0.45293   0.00000  Uiso   1.00
C929   C     0.75415   0.83313   0.24931   0.00000  Uiso   1.00
C930   C     0.70943   0.83269   0.24889   0.00000  Uiso   1.00
C931   C     0.84077   0.69107   0.21169   0.00000  Uiso   1.00
C932   C     0.81711   0.97441   0.28480   0.00000  Uiso   1.00
C933   C     0.82422   0.69009   0.28812   0.00000  Uiso   1.00
C934   C     0.84795   0.97570   0.21422   0.00000  Uiso   1.00
C935   C     0.83322   0.83367   0.16462   0.00000  Uiso   1.00
C936   C     0.83412   0.83331   0.33537   0.00000  Uiso   1.00
C937   C     0.87137   0.82996   0.40673   0.00000  Uiso   1.00
C938   C     0.79748   0.84437   0.09316   0.00000  Uiso   1.00
C939   C     0.83441   0.83399   0.38353   0.00000  Uiso   1.00
C940   C     0.91251   0.83349   0.25134   0.00000  Uiso   1.00
C941   C     0.83359   0.83485   0.11646   0.00000  Uiso   1.00
C942   C     0.79773   0.84094   0.40607   0.00000  Uiso   1.00
C943   C     0.87016   0.82674   0.09401   0.00000  Uiso   1.00
C944   C     0.79722   0.84243   0.45275   0.00000  Uiso   1.00
C945   C     0.87102   0.82759   0.04728   0.00000  Uiso   1.00
C946   C     0.83423   0.83571   0.47656   0.00000  Uiso   1.00
C947   C     0.83417   0.83567   0.02345   0.00000  Uiso   1.00
C948   C     0.87138   0.82931   0.45339   0.00000  Uiso   1.00
C949   C     0.79727   0.84390   0.04656   0.00000  Uiso   1.00
C950   C     0.76046   0.85005   0.47602   0.00000  Uiso   1.00
C951   C     0.76082   0.85141   0.02279   0.00000  Uiso   1.00
C952   C     0.90779   0.82018   0.02394   0.00000  Uiso   1.00
C953   C     0.70211   0.81816   0.44753   0.00000  Uiso   1.00
C954   C     0.67439   0.82320   0.40678   0.00000  Uiso   1.00
C955   C     0.95382   0.76709   0.04860   0.00000  Uiso   1.00
C956   C     0.99196   0.76026   0.07723   0.00000  Uiso   1.00
C957   C     0.70658   0.72363   0.22577   0.00000  Uiso   1.00
C958   C     0.96153   0.94271   0.27897   0.00000  Uiso   1.00
C959   C     0.95543   0.74634   0.31842   0.00000  Uiso   1.00
C960   C     0.70907   0.91749   0.18076   0.00000  Uiso   1.00
C961   C     0.80352   0.69374   0.14695   0.00000  Uiso   1.00
C962   C     0.90779   0.82201   0.47714   0.00000  Uiso   1.00
C963   C     0.78971   0.72739   0.11066   0.00000  Uiso   1.00
C964   C     0.75546   0.96517   0.32023   0.00000  Uiso   1.00
C965   C     0.73108   0.93170   0.34962   0.00000  Uiso   1.00
C966   C     0.84197   0.68649   0.36333   0.00000  Uiso   1.00
C967   C     0.85822   0.71926   0.39847   0.00000  Uiso   1.00
C968   C     0.90241   0.96799   0.16520   0.00000  Uiso   1.00
C969   C     0.90370   0.98051   0.11553   0.00000  Uiso   1.00
C970   C     0.68760   0.79119   0.25767   0.00000  Uiso   1.00
C971   C     0.97920   0.87534   0.24561   0.00000  Uiso   1.00
C972   C     0.97843   0.79213   0.26151   0.00000  Uiso   1.00
C973   C     0.68813   0.87413   0.24031   0.00000  Uiso   1.00
C974   C     0.95724   0.83376   0.25314   0.00000  Uiso   1.00
Cu975  Cu    0.83333   0.88022   0.25000   0.00000  Uiso   1.00
Cu976  Cu    0.83333   0.78645   0.25000   0.00000  Uiso   1.00
H977   H     0.89974   0.82591   0.38840   0.00000  Uiso   1.00
H978   H     0.98787   0.79202   0.40383   0.00000  Uiso   1.00
H979   H     0.98812   0.85423   0.41001   0.00000  Uiso   1.00
H980   H     0.96015   0.75377   0.01446   0.00000  Uiso   1.00
H981   H     0.92833   0.74656   0.06403   0.00000  Uiso   1.00
H982   H     0.98642   0.77284   0.11170   0.00000  Uiso   1.00
H983   H     0.99970   0.72291   0.07897   0.00000  Uiso   1.00
H984   H     0.68490   0.77969   0.06245   0.00000  Uiso   1.00
H985   H     0.72578   0.69253   0.23073   0.00000  Uiso   1.00
H986   H     0.71937   0.74343   0.19673   0.00000  Uiso   1.00
H987   H     0.67498   0.71146   0.21806   0.00000  Uiso   1.00
H988   H     0.76946   0.85067   0.11142   0.00000  Uiso   1.00
H989   H     0.95140   0.92204   0.30872   0.00000  Uiso   1.00
H990   H     0.94067   0.97269   0.27571   0.00000  Uiso   1.00
H991   H     0.99296   0.95663   0.28417   0.00000  Uiso   1.00
H992   H     0.93734   0.71469   0.32642   0.00000  Uiso   1.00
H993   H     0.93953   0.77616   0.33378   0.00000  Uiso   1.00
H994   H     0.98636   0.74195   0.33347   0.00000  Uiso   1.00
H995   H     0.72446   0.88706   0.16590   0.00000  Uiso   1.00
H996   H     0.72684   0.94881   0.17079   0.00000  Uiso   1.00
H997   H     0.67761   0.92117   0.16685   0.00000  Uiso   1.00
H998   H     0.77686   0.68730   0.16954   0.00000  Uiso   1.00
H999   H     0.76976   0.84487   0.38692   0.00000  Uiso   1.00
H1000  H     0.81149   0.99409   0.13044   0.00000  Uiso   1.00
H1001  H     0.81603   0.73777   0.08919   0.00000  Uiso   1.00
H1002  H     0.76594   0.71075   0.08947   0.00000  Uiso   1.00
H1003  H     0.77608   0.75828   0.12629   0.00000  Uiso   1.00
H1004  H     0.74091   0.96631   0.28657   0.00000  Uiso   1.00
H1005  H     0.75374   0.66674   0.33536   0.00000  Uiso   1.00
H1006  H     0.74529   0.92928   0.38336   0.00000  Uiso   1.00
H1007  H     0.69919   0.94410   0.35329   0.00000  Uiso   1.00
H1008  H     0.73039   0.89686   0.33428   0.00000  Uiso   1.00
H1009  H     0.86871   0.66687   0.35034   0.00000  Uiso   1.00
H1010  H     0.89775   0.81999   0.11320   0.00000  Uiso   1.00
H1011  H     0.82060   0.99552   0.38061   0.00000  Uiso   1.00
H1012  H     0.83275   0.73984   0.41237   0.00000  Uiso   1.00
H1013  H     0.87268   0.69926   0.42616   0.00000  Uiso   1.00
H1014  H     0.88175   0.74223   0.38321   0.00000  Uiso   1.00
H1015  H     0.92356   0.93861   0.17026   0.00000  Uiso   1.00
H1016  H     0.91454   0.99770   0.18497   0.00000  Uiso   1.00
H1017  H     0.88512   0.67838   0.10846   0.00000  Uiso   1.00
H1018  H     0.93580   0.98796   0.10536   0.00000  Uiso   1.00
H1019  H     0.89175   0.95120   0.09542   0.00000  Uiso   1.00
H1020  H     0.73254   0.85817   0.04043   0.00000  Uiso   1.00
H1021  H     0.93625   0.81723   0.45948   0.00000  Uiso   1.00
H1022  H     0.68289   0.81181   0.47769   0.00000  Uiso   1.00
H1023  H     0.72187   0.78734   0.44206   0.00000  Uiso   1.00
H1024  H     0.69310   0.82682   0.37592   0.00000  Uiso   1.00
N1025  N     0.83333   0.95069   0.25000   0.00000  Uiso   1.00
N1026  N     0.83333   0.71598   0.25000   0.00000  Uiso   1.00
O1027  O     0.77321   0.87291   0.25000   0.00000  Uiso   1.00
O1028  O     0.94434   0.81468   0.04680   0.00000  Uiso   1.00
O1029  O     0.70768   0.74980   0.26540   0.00000  Uiso   1.00
O1030  O     0.95927   0.91696   0.23920   0.00000  Uiso   1.00
O1031  O     0.95776   0.75130   0.27151   0.00000  Uiso   1.00
O1032  O     0.70845   0.91445   0.22788   0.00000  Uiso   1.00
O1033  O     0.83814   0.71193   0.16997   0.00000  Uiso   1.00
O1034  O     0.79644   0.94999   0.31793   0.00000  Uiso   1.00
O1035  O     0.82073   0.71154   0.32930   0.00000  Uiso   1.00
O1036  O     0.86256   0.95264   0.17721   0.00000  Uiso   1.00
O1037  O     0.89345   0.79375   0.25001   0.00000  Uiso   1.00
O1038  O     0.89345   0.87291   0.25001   0.00000  Uiso   1.00
O1039  O     0.77321   0.79375   0.25000   0.00000  Uiso   1.00
O1040  O     0.83332   0.87293   0.18513   0.00000  Uiso   1.00
O1041  O     0.83334   0.79373   0.31487   0.00000  Uiso   1.00
O1042  O     0.83334   0.87293   0.31487   0.00000  Uiso   1.00
O1043  O     0.83332   0.79373   0.18513   0.00000  Uiso   1.00
O1044  O     0.72473   0.85960   0.45293   0.00000  Uiso   1.00
C1045  C     0.08748   0.16646   0.74931   0.00000  Uiso   1.00
C1046  C     0.04277   0.16602   0.74889   0.00000  Uiso   1.00
C1047  C     0.17410   0.02440   0.71169   0.00000  Uiso   1.00
C1048  C     0.15044   0.30774   0.78480   0.00000  Uiso   1.00
C1049  C     0.15755   0.02342   0.78812   0.00000  Uiso   1.00
C1050  C     0.18129   0.30903   0.71422   0.00000  Uiso   1.00
C1051  C     0.16655   0.16701   0.66462   0.00000  Uiso   1.00
C1052  C     0.16745   0.16664   0.83537   0.00000  Uiso   1.00
C1053  C     0.20470   0.16329   0.90673   0.00000  Uiso   1.00
C1054  C     0.13082   0.17770   0.59316   0.00000  Uiso   1.00
C1055  C     0.16775   0.16733   0.88353   0.00000  Uiso   1.00
C1056  C     0.24584   0.16682   0.75134   0.00000  Uiso   1.00
C1057  C     0.16692   0.16818   0.61646   0.00000  Uiso   1.00
C1058  C     0.13106   0.17427   0.90607   0.00000  Uiso   1.00
C1059  C     0.20350   0.16007   0.59401   0.00000  Uiso   1.00
C1060  C     0.13056   0.17576   0.95275   0.00000  Uiso   1.00
C1061  C     0.20435   0.16092   0.54728   0.00000  Uiso   1.00
C1062  C     0.16757   0.16904   0.97656   0.00000  Uiso   1.00
C1063  C     0.16751   0.16900   0.52345   0.00000  Uiso   1.00
C1064  C     0.20471   0.16264   0.95339   0.00000  Uiso   1.00
C1065  C     0.13060   0.17723   0.54656   0.00000  Uiso   1.00
C1066  C     0.09380   0.18339   0.97602   0.00000  Uiso   1.00
C1067  C     0.09415   0.18475   0.52279   0.00000  Uiso   1.00
C1068  C     0.24112   0.15351   0.52394   0.00000  Uiso   1.00
C1069  C     0.03544   0.15150   0.94753   0.00000  Uiso   1.00
C1070  C     0.00772   0.15653   0.90678   0.00000  Uiso   1.00
C1071  C     0.28715   0.10042   0.54860   0.00000  Uiso   1.00
C1072  C     0.32529   0.09359   0.57723   0.00000  Uiso   1.00
C1073  C     0.03991   0.05696   0.72577   0.00000  Uiso   1.00
C1074  C     0.29487   0.27604   0.77897   0.00000  Uiso   1.00
C1075  C     0.28877   0.07967   0.81842   0.00000  Uiso   1.00
C1076  C     0.04241   0.25082   0.68076   0.00000  Uiso   1.00
C1077  C     0.13685   0.02707   0.64695   0.00000  Uiso   1.00
C1078  C     0.24112   0.15534   0.97714   0.00000  Uiso   1.00
C1079  C     0.12305   0.06072   0.61066   0.00000  Uiso   1.00
C1080  C     0.08880   0.29850   0.82023   0.00000  Uiso   1.00
C1081  C     0.06441   0.26503   0.84962   0.00000  Uiso   1.00
C1082  C     0.17531   0.01983   0.86333   0.00000  Uiso   1.00
C1083  C     0.19155   0.05260   0.89847   0.00000  Uiso   1.00
C1084  C     0.23575   0.30132   0.66520   0.00000  Uiso   1.00
C1085  C     0.23703   0.31384   0.61553   0.00000  Uiso   1.00
C1086  C     0.02093   0.12452   0.75767   0.00000  Uiso   1.00
C1087  C     0.31253   0.20867   0.74561   0.00000  Uiso   1.00
C1088  C     0.31176   0.12546   0.76151   0.00000  Uiso   1.00
C1089  C     0.02146   0.20746   0.74031   0.00000  Uiso   1.00
C1090  C     0.29057   0.16709   0.75314   0.00000  Uiso   1.00
Cu1091 Cu    0.16667   0.21355   0.75000   0.00000  Uiso   1.00
Cu1092 Cu    0.16667   0.11978   0.75000   0.00000  Uiso   1.00
H1093  H     0.23307   0.15925   0.88840   0.00000  Uiso   1.00
H1094  H     0.32120   0.12535   0.90383   0.00000  Uiso   1.00
H1095  H     0.32146   0.18757   0.91001   0.00000  Uiso   1.00
H1096  H     0.29348   0.08710   0.51446   0.00000  Uiso   1.00
H1097  H     0.26166   0.07989   0.56403   0.00000  Uiso   1.00
H1098  H     0.31975   0.10618   0.61170   0.00000  Uiso   1.00
H1099  H     0.33304   0.05624   0.57897   0.00000  Uiso   1.00
H1100  H     0.01823   0.11302   0.56245   0.00000  Uiso   1.00
H1101  H     0.05912   0.02586   0.73073   0.00000  Uiso   1.00
H1102  H     0.05270   0.07677   0.69673   0.00000  Uiso   1.00
H1103  H     0.00832   0.04480   0.71806   0.00000  Uiso   1.00
H1104  H     0.10279   0.18400   0.61142   0.00000  Uiso   1.00
H1105  H     0.28474   0.25537   0.80872   0.00000  Uiso   1.00
H1106  H     0.27400   0.30603   0.77571   0.00000  Uiso   1.00
H1107  H     0.32629   0.28996   0.78417   0.00000  Uiso   1.00
H1108  H     0.27067   0.04802   0.82642   0.00000  Uiso   1.00
H1109  H     0.27286   0.10949   0.83378   0.00000  Uiso   1.00
H1110  H     0.31970   0.07529   0.83347   0.00000  Uiso   1.00
H1111  H     0.05779   0.22039   0.66590   0.00000  Uiso   1.00
H1112  H     0.06017   0.28214   0.67079   0.00000  Uiso   1.00
H1113  H     0.01094   0.25450   0.66685   0.00000  Uiso   1.00
H1114  H     0.11019   0.02064   0.66954   0.00000  Uiso   1.00
H1115  H     0.10309   0.17820   0.88692   0.00000  Uiso   1.00
H1116  H     0.14482   0.32742   0.63044   0.00000  Uiso   1.00
H1117  H     0.14936   0.07110   0.58919   0.00000  Uiso   1.00
H1118  H     0.09927   0.04409   0.58947   0.00000  Uiso   1.00
H1119  H     0.10941   0.09161   0.62629   0.00000  Uiso   1.00
H1120  H     0.07424   0.29964   0.78657   0.00000  Uiso   1.00
H1121  H     0.08707   0.00007   0.83536   0.00000  Uiso   1.00
H1122  H     0.07862   0.26261   0.88336   0.00000  Uiso   1.00
H1123  H     0.03252   0.27743   0.85329   0.00000  Uiso   1.00
H1124  H     0.06373   0.23020   0.83428   0.00000  Uiso   1.00
H1125  H     0.20205   0.00020   0.85034   0.00000  Uiso   1.00
H1126  H     0.23108   0.15332   0.61320   0.00000  Uiso   1.00
H1127  H     0.15394   0.32886   0.88061   0.00000  Uiso   1.00
H1128  H     0.16609   0.07318   0.91237   0.00000  Uiso   1.00
H1129  H     0.20602   0.03259   0.92616   0.00000  Uiso   1.00
H1130  H     0.21509   0.07557   0.88321   0.00000  Uiso   1.00
H1131  H     0.25690   0.27194   0.67026   0.00000  Uiso   1.00
H1132  H     0.24788   0.33103   0.68497   0.00000  Uiso   1.00
H1133  H     0.21845   0.01172   0.60846   0.00000  Uiso   1.00
H1134  H     0.26914   0.32130   0.60536   0.00000  Uiso   1.00
H1135  H     0.22508   0.28454   0.59542   0.00000  Uiso   1.00
H1136  H     0.06587   0.19151   0.54043   0.00000  Uiso   1.00
H1137  H     0.26959   0.15056   0.95948   0.00000  Uiso   1.00
H1138  H     0.01622   0.14514   0.97769   0.00000  Uiso   1.00
H1139  H     0.05520   0.12067   0.94206   0.00000  Uiso   1.00
H1140  H     0.02644   0.16015   0.87592   0.00000  Uiso   1.00
N1141  N     0.16667   0.28402   0.75000   0.00000  Uiso   1.00
N1142  N     0.16667   0.04931   0.75000   0.00000  Uiso   1.00
O1143  O     0.10655   0.20625   0.75000   0.00000  Uiso   1.00
O1144  O     0.27767   0.14801   0.54680   0.00000  Uiso   1.00
O1145  O     0.04101   0.08313   0.76540   0.00000  Uiso   1.00
O1146  O     0.29261   0.25029   0.73920   0.00000  Uiso   1.00
O1147  O     0.29110   0.08463   0.77151   0.00000  Uiso   1.00
O1148  O     0.04178   0.24779   0.72788   0.00000  Uiso   1.00
O1149  O     0.17147   0.04526   0.66997   0.00000  Uiso   1.00
O1150  O     0.12978   0.28333   0.81793   0.00000  Uiso   1.00
O1151  O     0.15406   0.04488   0.82930   0.00000  Uiso   1.00
O1152  O     0.19589   0.28598   0.67721   0.00000  Uiso   1.00
O1153  O     0.22679   0.12709   0.75001   0.00000  Uiso   1.00
O1154  O     0.22679   0.20625   0.75001   0.00000  Uiso   1.00
O1155  O     0.10655   0.12709   0.75000   0.00000  Uiso   1.00
O1156  O     0.16666   0.20627   0.68513   0.00000  Uiso   1.00
O1157  O     0.16668   0.12707   0.81487   0.00000  Uiso   1.00
O1158  O     0.16668   0.20627   0.81487   0.00000  Uiso   1.00
O1159  O     0.16666   0.12707   0.68513   0.00000  Uiso   1.00
O1160  O     0.05807   0.19294   0.95293   0.00000  Uiso   1.00
C1161  C     0.42082   0.16646   0.74931   0.00000  Uiso   1.00
C1162  C     0.37610   0.16602   0.74889   0.00000  Uiso   1.00
C1163  C     0.50743   0.02440   0.71169   0.00000  Uiso   1.00
C1164  C     0.48377   0.30774   0.78480   0.00000  Uiso   1.00
C1165  C     0.49089   0.02342   0.78812   0.00000  Uiso   1.00
C1166  C     0.51462   0.30903   0.71422   0.00000  Uiso   1.00
C1167  C     0.49988   0.16701   0.66462   0.00000  Uiso   1.00
C1168  C     0.50079   0.16664   0.83537   0.00000  Uiso   1.00
C1169  C     0.53803   0.16329   0.90673   0.00000  Uiso   1.00
C1170  C     0.46415   0.17770   0.59316   0.00000  Uiso   1.00
C1171  C     0.50108   0.16733   0.88353   0.00000  Uiso   1.00
C1172  C     0.57918   0.16682   0.75134   0.00000  Uiso   1.00
C1173  C     0.50026   0.16818   0.61646   0.00000  Uiso   1.00
C1174  C     0.46440   0.17427   0.90607   0.00000  Uiso   1.00
C1175  C     0.53683   0.16007   0.59401   0.00000  Uiso   1.00
C1176  C     0.46389   0.17576   0.95275   0.00000  Uiso   1.00
C1177  C     0.53769   0.16092   0.54728   0.00000  Uiso   1.00
C1178  C     0.50090   0.16904   0.97656   0.00000  Uiso   1.00
C1179  C     0.50084   0.16900   0.52345   0.00000  Uiso   1.00
C1180  C     0.53804   0.16264   0.95339   0.00000  Uiso   1.00
C1181  C     0.46393   0.17723   0.54656   0.00000  Uiso   1.00
C1182  C     0.42713   0.18339   0.97602   0.00000  Uiso   1.00
C1183  C     0.42748   0.18475   0.52279   0.00000  Uiso   1.00
C1184  C     0.57445   0.15351   0.52394   0.00000  Uiso   1.00
C1185  C     0.36877   0.15150   0.94753   0.00000  Uiso   1.00
C1186  C     0.34105   0.15653   0.90678   0.00000  Uiso   1.00
C1187  C     0.62049   0.10042   0.54860   0.00000  Uiso   1.00
C1188  C     0.65862   0.09359   0.57723   0.00000  Uiso   1.00
C1189  C     0.37324   0.05696   0.72577   0.00000  Uiso   1.00
C1190  C     0.62820   0.27604   0.77897   0.00000  Uiso   1.00
C1191  C     0.62210   0.07967   0.81842   0.00000  Uiso   1.00
C1192  C     0.37574   0.25082   0.68076   0.00000  Uiso   1.00
C1193  C     0.47019   0.02707   0.64695   0.00000  Uiso   1.00
C1194  C     0.57445   0.15534   0.97714   0.00000  Uiso   1.00
C1195  C     0.45638   0.06072   0.61066   0.00000  Uiso   1.00
C1196  C     0.42213   0.29850   0.82023   0.00000  Uiso   1.00
C1197  C     0.39774   0.26503   0.84962   0.00000  Uiso   1.00
C1198  C     0.50864   0.01983   0.86333   0.00000  Uiso   1.00
C1199  C     0.52489   0.05260   0.89847   0.00000  Uiso   1.00
C1200  C     0.56908   0.30132   0.66520   0.00000  Uiso   1.00
C1201  C     0.57037   0.31384   0.61553   0.00000  Uiso   1.00
C1202  C     0.35426   0.12452   0.75767   0.00000  Uiso   1.00
C1203  C     0.64587   0.20867   0.74561   0.00000  Uiso   1.00
C1204  C     0.64510   0.12546   0.76151   0.00000  Uiso   1.00
C1205  C     0.35480   0.20746   0.74031   0.00000  Uiso   1.00
C1206  C     0.62390   0.16709   0.75314   0.00000  Uiso   1.00
Cu1207 Cu    0.50000   0.21355   0.75000   0.00000  Uiso   1.00
Cu1208 Cu    0.50000   0.11978   0.75000   0.00000  Uiso   1.00
H1209  H     0.56641   0.15925   0.88840   0.00000  Uiso   1.00
H1210  H     0.65454   0.12535   0.90383   0.00000  Uiso   1.00
H1211  H     0.65479   0.18757   0.91001   0.00000  Uiso   1.00
H1212  H     0.62681   0.08710   0.51446   0.00000  Uiso   1.00
H1213  H     0.59500   0.07989   0.56403   0.00000  Uiso   1.00
H1214  H     0.65309   0.10618   0.61170   0.00000  Uiso   1.00
H1215  H     0.66637   0.05624   0.57897   0.00000  Uiso   1.00
H1216  H     0.35157   0.11302   0.56245   0.00000  Uiso   1.00
H1217  H     0.39245   0.02586   0.73073   0.00000  Uiso   1.00
H1218  H     0.38604   0.07677   0.69673   0.00000  Uiso   1.00
H1219  H     0.34165   0.04480   0.71806   0.00000  Uiso   1.00
H1220  H     0.43612   0.18400   0.61142   0.00000  Uiso   1.00
H1221  H     0.61807   0.25537   0.80872   0.00000  Uiso   1.00
H1222  H     0.60733   0.30603   0.77571   0.00000  Uiso   1.00
H1223  H     0.65962   0.28996   0.78417   0.00000  Uiso   1.00
H1224  H     0.60401   0.04802   0.82642   0.00000  Uiso   1.00
H1225  H     0.60619   0.10949   0.83378   0.00000  Uiso   1.00
H1226  H     0.65303   0.07529   0.83347   0.00000  Uiso   1.00
H1227  H     0.39112   0.22039   0.66590   0.00000  Uiso   1.00
H1228  H     0.39350   0.28214   0.67079   0.00000  Uiso   1.00
H1229  H     0.34428   0.25450   0.66685   0.00000  Uiso   1.00
H1230  H     0.44353   0.02064   0.66954   0.00000  Uiso   1.00
H1231  H     0.43642   0.17820   0.88692   0.00000  Uiso   1.00
H1232  H     0.47816   0.32742   0.63044   0.00000  Uiso   1.00
H1233  H     0.48269   0.07110   0.58919   0.00000  Uiso   1.00
H1234  H     0.43261   0.04409   0.58947   0.00000  Uiso   1.00
H1235  H     0.44274   0.09161   0.62629   0.00000  Uiso   1.00
H1236  H     0.40757   0.29964   0.78657   0.00000  Uiso   1.00
H1237  H     0.42040   0.00007   0.83536   0.00000  Uiso   1.00
H1238  H     0.41196   0.26261   0.88336   0.00000  Uiso   1.00
H1239  H     0.36585   0.27743   0.85329   0.00000  Uiso   1.00
H1240  H     0.39706   0.23020   0.83428   0.00000  Uiso   1.00
H1241  H     0.53538   0.00020   0.85034   0.00000  Uiso   1.00
H1242  H     0.56442   0.15332   0.61320   0.00000  Uiso   1.00
H1243  H     0.48727   0.32886   0.88061   0.00000  Uiso   1.00
H1244  H     0.49942   0.07318   0.91237   0.00000  Uiso   1.00
H1245  H     0.53935   0.03259   0.92616   0.00000  Uiso   1.00
H1246  H     0.54842   0.07557   0.88321   0.00000  Uiso   1.00
H1247  H     0.59023   0.27194   0.67026   0.00000  Uiso   1.00
H1248  H     0.58121   0.33103   0.68497   0.00000  Uiso   1.00
H1249  H     0.55179   0.01172   0.60846   0.00000  Uiso   1.00
H1250  H     0.60247   0.32130   0.60536   0.00000  Uiso   1.00
H1251  H     0.55842   0.28454   0.59542   0.00000  Uiso   1.00
H1252  H     0.39921   0.19151   0.54043   0.00000  Uiso   1.00
H1253  H     0.60292   0.15056   0.95948   0.00000  Uiso   1.00
H1254  H     0.34956   0.14514   0.97769   0.00000  Uiso   1.00
H1255  H     0.38853   0.12067   0.94206   0.00000  Uiso   1.00
H1256  H     0.35977   0.16015   0.87592   0.00000  Uiso   1.00
N1257  N     0.50000   0.28402   0.75000   0.00000  Uiso   1.00
N1258  N     0.50000   0.04931   0.75000   0.00000  Uiso   1.00
O1259  O     0.43988   0.20625   0.75000   0.00000  Uiso   1.00
O1260  O     0.61100   0.14801   0.54680   0.00000  Uiso   1.00
O1261  O     0.37434   0.08313   0.76540   0.00000  Uiso   1.00
O1262  O     0.62594   0.25029   0.73920   0.00000  Uiso   1.00
O1263  O     0.62443   0.08463   0.77151   0.00000  Uiso   1.00
O1264  O     0.37511   0.24779   0.72788   0.00000  Uiso   1.00
O1265  O     0.50480   0.04526   0.66997   0.00000  Uiso   1.00
O1266  O     0.46311   0.28333   0.81793   0.00000  Uiso   1.00
O1267  O     0.48740   0.04488   0.82930   0.00000  Uiso   1.00
O1268  O     0.52922   0.28598   0.67721   0.00000  Uiso   1.00
O1269  O     0.56012   0.12709   0.75001   0.00000  Uiso   1.00
O1270  O     0.56012   0.20625   0.75001   0.00000  Uiso   1.00
O1271  O     0.43988   0.12709   0.75000   0.00000  Uiso   1.00
O1272  O     0.49999   0.20627   0.68513   0.00000  Uiso   1.00
O1273  O     0.50001   0.12707   0.81487   0.00000  Uiso   1.00
O1274  O     0.50001   0.20627   0.81487   0.00000  Uiso   1.00
O1275  O     0.49999   0.12707   0.68513   0.00000  Uiso   1.00
O1276  O     0.39140   0.19294   0.95293   0.00000  Uiso   1.00
C1277  C     0.75415   0.16646   0.74931   0.00000  Uiso   1.00
C1278  C     0.70943   0.16602   0.74889   0.00000  Uiso   1.00
C1279  C     0.84077   0.02440   0.71169   0.00000  Uiso   1.00
C1280  C     0.81711   0.30774   0.78480   0.00000  Uiso   1.00
C1281  C     0.82422   0.02342   0.78812   0.00000  Uiso   1.00
C1282  C     0.84795   0.30903   0.71422   0.00000  Uiso   1.00
C1283  C     0.83322   0.16701   0.66462   0.00000  Uiso   1.00
C1284  C     0.83412   0.16664   0.83537   0.00000  Uiso   1.00
C1285  C     0.87137   0.16329   0.90673   0.00000  Uiso   1.00
C1286  C     0.79748   0.17770   0.59316   0.00000  Uiso   1.00
C1287  C     0.83441   0.16733   0.88353   0.00000  Uiso   1.00
C1288  C     0.91251   0.16682   0.75134   0.00000  Uiso   1.00
C1289  C     0.83359   0.16818   0.61646   0.00000  Uiso   1.00
C1290  C     0.79773   0.17427   0.90607   0.00000  Uiso   1.00
C1291  C     0.87016   0.16007   0.59401   0.00000  Uiso   1.00
C1292  C     0.79722   0.17576   0.95275   0.00000  Uiso   1.00
C1293  C     0.87102   0.16092   0.54728   0.00000  Uiso   1.00
C1294  C     0.83423   0.16904   0.97656   0.00000  Uiso   1.00
C1295  C     0.83417   0.16900   0.52345   0.00000  Uiso   1.00
C1296  C     0.87138   0.16264   0.95339   0.00000  Uiso   1.00
C1297  C     0.79727   0.17723   0.54656   0.00000  Uiso   1.00
C1298  C     0.76046   0.18339   0.97602   0.00000  Uiso   1.00
C1299  C     0.76082   0.18475   0.52279   0.00000  Uiso   1.00
C1300  C     0.90779   0.15351   0.52394   0.00000  Uiso   1.00
C1301  C     0.70211   0.15150   0.94753   0.00000  Uiso   1.00
C1302  C     0.67439   0.15653   0.90678   0.00000  Uiso   1.00
C1303  C     0.95382   0.10042   0.54860   0.00000  Uiso   1.00
C1304  C     0.99196   0.09359   0.57723   0.00000  Uiso   1.00
C1305  C     0.70658   0.05696   0.72577   0.00000  Uiso   1.00
C1306  C     0.96153   0.27604   0.77897   0.00000  Uiso   1.00
C1307  C     0.95543   0.07967   0.81842   0.00000  Uiso   1.00
C1308  C     0.70907   0.25082   0.68076   0.00000  Uiso   1.00
C1309  C     0.80352   0.02707   0.64695   0.00000  Uiso   1.00
C1310  C     0.90779   0.15534   0.97714   0.00000  Uiso   1.00
C1311  C     0.78971   0.06072   0.61066   0.00000  Uiso   1.00
C1312  C     0.75546   0.29850   0.82023   0.00000  Uiso   1.00
C1313  C     0.73108   0.26503   0.84962   0.00000  Uiso   1.00
C1314  C     0.84197   0.01983   0.86333   0.00000  Uiso   1.00
C1315  C     0.85822   0.05260   0.89847   0.00000  Uiso   1.00
C1316  C     0.90241   0.30132   0.66520   0.00000  Uiso   1.00
C1317  C     0.90370   0.31384   0.61553   0.00000  Uiso   1.00
C1318  C     0.68760   0.12452   0.75767   0.00000  Uiso   1.00
C1319  C     0.97920   0.20867   0.74561   0.00000  Uiso   1.00
C1320  C     0.97843   0.12546   0.76151   0.00000  Uiso   1.00
C1321  C     0.68813   0.20746   0.74031   0.00000  Uiso   1.00
C1322  C     0.95724   0.16709   0.75314   0.00000  Uiso   1.00
Cu1323 Cu    0.83333   0.21355   0.75000   0.00000  Uiso   1.00
Cu1324 Cu    0.83333   0.11978   0.75000   0.00000  Uiso   1.00
H1325  H     0.89974   0.15925   0.88840   0.00000  Uiso   1.00
H1326  H     0.98787   0.12535   0.90383   0.00000  Uiso   1.00
H1327  H     0.98812   0.18757   0.91001   0.00000  Uiso   1.00
H1328  H     0.96015   0.08710   0.51446   0.00000  Uiso   1.00
H1329  H     0.92833   0.07989   0.56403   0.00000  Uiso   1.00
H1330  H     0.98642   0.10618   0.61170   0.00000  Uiso   1.00
H1331  H     0.99970   0.05624   0.57897   0.00000  Uiso   1.00
H1332  H     0.68490   0.11302   0.56245   0.00000  Uiso   1.00
H1333  H     0.72578   0.02586   0.73073   0.00000  Uiso   1.00
H1334  H     0.71937   0.07677   0.69673   0.00000  Uiso   1.00
H1335  H     0.67498   0.04480   0.71806   0.00000  Uiso   1.00
H1336  H     0.76946   0.18400   0.61142   0.00000  Uiso   1.00
H1337  H     0.95140   0.25537   0.80872   0.00000  Uiso   1.00
H1338  H     0.94067   0.30603   0.77571   0.00000  Uiso   1.00
H1339  H     0.99296   0.28996   0.78417   0.00000  Uiso   1.00
H1340  H     0.93734   0.04802   0.82642   0.00000  Uiso   1.00
H1341  H     0.93953   0.10949   0.83378   0.00000  Uiso   1.00
H1342  H     0.98636   0.07529   0.83347   0.00000  Uiso   1.00
H1343  H     0.72446   0.22039   0.66590   0.00000  Uiso   1.00
H1344  H     0.72684   0.28214   0.67079   0.00000  Uiso   1.00
H1345  H     0.67761   0.25450   0.66685   0.00000  Uiso   1.00
H1346  H     0.77686   0.02064   0.66954   0.00000  Uiso   1.00
H1347  H     0.76976   0.17820   0.88692   0.00000  Uiso   1.00
H1348  H     0.81149   0.32742   0.63044   0.00000  Uiso   1.00
H1349  H     0.81603   0.07110   0.58919   0.00000  Uiso   1.00
H1350  H     0.76594   0.04409   0.58947   0.00000  Uiso   1.00
H1351  H     0.77608   0.09161   0.62629   0.00000  Uiso   1.00
H1352  H     0.74091   0.29964   0.78657   0.00000  Uiso   1.00
H1353  H     0.75374   0.00007   0.83536   0.00000  Uiso   1.00
H1354  H     0.74529   0.26261   0.88336   0.00000  Uiso   1.00
H1355  H     0.69919   0.27743   0.85329   0.00000  Uiso   1.00
H1356  H     0.73039   0.23020   0.83428   0.00000  Uiso   1.00
H1357  H     0.86871   0.00020   0.85034   0.00000  Uiso   1.00
H1358  H     0.89775   0.15332   0.61320   0.00000  Uiso   1.00
H1359  H     0.82060   0.32886   0.88061   0.00000  Uiso   1.00
H1360  H     0.83275   0.07318   0.91237   0.00000  Uiso   1.00
H1361  H     0.87268   0.03259   0.92616   0.00000  Uiso   1.00
H1362  H     0.88175   0.07557   0.88321   0.00000  Uiso   1.00
H1363  H     0.92356   0.27194   0.67026   0.00000  Uiso   1.00
H1364  H     0.91454   0.33103   0.68497   0.00000  Uiso   1.00
H1365  H     0.88512   0.01172   0.60846   0.00000  Uiso   1.00
H1366  H     0.93580   0.32130   0.60536   0.00000  Uiso   1.00
H1367  H     0.89175   0.28454   0.59542   0.00000  Uiso   1.00
H1368  H     0.73254   0.19151   0.54043   0.00000  Uiso   1.00
H1369  H     0.93625   0.15056   0.95948   0.00000  Uiso   1.00
H1370  H     0.68289   0.14514   0.97769   0.00000  Uiso   1.00
H1371  H     0.72187   0.12067   0.94206   0.00000  Uiso   1.00
H1372  H     0.69310   0.16015   0.87592   0.00000  Uiso   1.00
N1373  N     0.83333   0.28402   0.75000   0.00000  Uiso   1.00
N1374  N     0.83333   0.04931   0.75000   0.00000  Uiso   1.00
O1375  O     0.77321   0.20625   0.75000   0.00000  Uiso   1.00
O1376  O     0.94434   0.14801   0.54680   0.00000  Uiso   1.00
O1377  O     0.70768   0.08313   0.76540   0.00000  Uiso   1.00
O1378  O     0.95927   0.25029   0.73920   0.00000  Uiso   1.00
O1379  O     0.95776   0.08463   0.77151   0.00000  Uiso   1.00
O1380  O     0.70845   0.24779   0.72788   0.00000  Uiso   1.00
O1381  O     0.83814   0.04526   0.66997   0.00000  Uiso   1.00
O1382  O     0.79644   0.28333   0.81793   0.00000  Uiso   1.00
O1383  O     0.82073   0.04488   0.82930   0.00000  Uiso   1.00
O1384  O     0.86256   0.28598   0.67721   0.00000  Uiso   1.00
O1385  O     0.89345   0.12709   0.75001   0.00000  Uiso   1.00
O1386  O     0.89345   0.20625   0.75001   0.00000  Uiso   1.00
O1387  O     0.77321   0.12709   0.75000   0.00000  Uiso   1.00
O1388  O     0.83332   0.20627   0.68513   0.00000  Uiso   1.00
O1389  O     0.83334   0.12707   0.81487   0.00000  Uiso   1.00
O1390  O     0.83334   0.20627   0.81487   0.00000  Uiso   1.00
O1391  O     0.83332   0.12707   0.68513   0.00000  Uiso   1.00
O1392  O     0.72473   0.19294   0.95293   0.00000  Uiso   1.00
C1393  C     0.08748   0.49979   0.74931   0.00000  Uiso   1.00
C1394  C     0.04277   0.49935   0.74889   0.00000  Uiso   1.00
C1395  C     0.17410   0.35773   0.71169   0.00000  Uiso   1.00
C1396  C     0.15044   0.64108   0.78480   0.00000  Uiso   1.00
C1397  C     0.15755   0.35675   0.78812   0.00000  Uiso   1.00
C1398  C     0.18129   0.64237   0.71422   0.00000  Uiso   1.00
C1399  C     0.16655   0.50034   0.66462   0.00000  Uiso   1.00
C1400  C     0.16745   0.49998   0.83537   0.00000  Uiso   1.00
C1401  C     0.20470   0.49662   0.90673   0.00000  Uiso   1.00
C1402  C     0.13082   0.51103   0.59316   0.00000  Uiso   1.00
C1403  C     0.16775   0.50066   0.88353   0.00000  Uiso   1.00
C1404  C     0.24584   0.50015   0.75134   0.00000  Uiso   1.00
C1405  C     0.16692   0.50152   0.61646   0.00000  Uiso   1.00
C1406  C     0.13106   0.50761   0.90607   0.00000  Uiso   1.00
C1407  C     0.20350   0.49341   0.59401   0.00000  Uiso   1.00
C1408  C     0.13056   0.50910   0.95275   0.00000  Uiso   1.00
C1409  C     0.20435   0.49426   0.54728   0.00000  Uiso   1.00
C1410  C     0.16757   0.50238   0.97656   0.00000  Uiso   1.00
C1411  C     0.16751   0.50234   0.52345   0.00000  Uiso   1.00
C1412  C     0.20471   0.49597   0.95339   0.00000  Uiso   1.00
C1413  C     0.13060   0.51056   0.54656   0.00000  Uiso   1.00
C1414  C     0.09380   0.51672   0.97602   0.00000  Uiso   1.00
C1415  C     0.09415   0.51808   0.52279   0.00000  Uiso   1.00
C1416  C     0.24112   0.48684   0.52394   0.00000  Uiso   1.00
C1417  C     0.03544   0.48483   0.94753   0.00000  Uiso   1.00
C1418  C     0.00772   0.48987   0.90678   0.00000  Uiso   1.00
C1419  C     0.28715   0.43376   0.54860   0.00000  Uiso   1.00
C1420  C     0.32529   0.42692   0.57723   0.00000  Uiso   1.00
C1421  C     0.03991   0.39030   0.72577   0.00000  Uiso   1.00
C1422  C     0.29487   0.60937   0.77897   0.00000  Uiso   1.00
C1423  C     0.28877   0.41301   0.81842   0.00000  Uiso   1.00
C1424  C     0.04241   0.58415   0.68076   0.00000  Uiso   1.00
C1425  C     0.13685   0.36041   0.64695   0.00000  Uiso   1.00
C1426  C     0.24112   0.48867   0.97714   0.00000  Uiso   1.00
C1427  C     0.12305   0.39406   0.61066   0.00000  Uiso   1.00
C1428  C     0.08880   0.63184   0.82023   0.00000  Uiso   1.00
C1429  C     0.06441   0.59836   0.84962   0.00000  Uiso   1.00
C1430  C     0.17531   0.35316   0.86333   0.00000  Uiso   1.00
C1431  C     0.19155   0.38593   0.89847   0.00000  Uiso   1.00
C1432  C     0.23575   0.63466   0.66520   0.00000  Uiso   1.00
C1433  C     0.23703   0.64718   0.61553   0.00000  Uiso   1.00
C1434  C     0.02093   0.45786   0.75767   0.00000  Uiso   1.00
C1435  C     0.31253   0.54200   0.74561   0.00000  Uiso   1.00
C1436  C     0.31176   0.45880   0.76151   0.00000  Uiso   1.00
C1437  C     0.02146   0.54080   0.74031   0.00000  Uiso   1.00
C1438  C     0.29057   0.50042   0.75314   0.00000  Uiso   1.00
Cu1439 Cu    0.16667   0.54689   0.75000   0.00000  Uiso   1.00
Cu1440 Cu    0.16667   0.45311   0.75000   0.00000  Uiso   1.00
H1441  H     0.23307   0.49258   0.88840   0.00000  Uiso   1.00
H1442  H     0.32120   0.45868   0.90383   0.00000  Uiso   1.00
H1443  H     0.32146   0.52090   0.91001   0.00000  Uiso   1.00
H1444  H     0.29348   0.42043   0.51446   0.00000  Uiso   1.00
H1445  H     0.26166   0.41323   0.56403   0.00000  Uiso   1.00
H1446  H     0.31975   0.43951   0.61170   0.00000  Uiso   1.00
H1447  H     0.33304   0.38957   0.57897   0.00000  Uiso   1.00
H1448  H     0.01823   0.44636   0.56245   0.00000  Uiso   1.00
H1449  H     0.05912   0.35919   0.73073   0.00000  Uiso   1.00
H1450  H     0.05270   0.41010   0.69673   0.00000  Uiso   1.00
H1451  H     0.00832   0.37813   0.71806   0.00000  Uiso   1.00
H1452  H     0.10279   0.51734   0.61142   0.00000  Uiso   1.00
H1453  H     0.28474   0.58870   0.80872   0.00000  Uiso   1.00
H1454  H     0.27400   0.63936   0.77571   0.00000  Uiso   1.00
H1455  H     0.32629   0.62329   0.78417   0.00000  Uiso   1.00
H1456  H     0.27067   0.38135   0.82642   0.00000  Uiso   1.00
H1457  H     0.27286   0.44283   0.83378   0.00000  Uiso   1.00
H1458  H     0.31970   0.40862   0.83347   0.00000  Uiso   1.00
H1459  H     0.05779   0.55373   0.66590   0.00000  Uiso   1.00
H1460  H     0.06017   0.61548   0.67079   0.00000  Uiso   1.00
H1461  H     0.01094   0.58783   0.66685   0.00000  Uiso   1.00
H1462  H     0.11019   0.35397   0.66954   0.00000  Uiso   1.00
H1463  H     0.10309   0.51153   0.88692   0.00000  Uiso   1.00
H1464  H     0.14482   0.66076   0.63044   0.00000  Uiso   1.00
H1465  H     0.14936   0.40443   0.58919   0.00000  Uiso   1.00
H1466  H     0.09927   0.37742   0.58947   0.00000  Uiso   1.00
H1467  H     0.10941   0.42495   0.62629   0.00000  Uiso   1.00
H1468  H     0.07424   0.63297   0.78657   0.00000  Uiso   1.00
H1469  H     0.08707   0.33340   0.83536   0.00000  Uiso   1.00
H1470  H     0.07862   0.59595   0.88336   0.00000  Uiso   1.00
H1471  H     0.03252   0.61076   0.85329   0.00000  Uiso   1.00
H1472  H     0.06373   0.56353   0.83428   0.00000  Uiso   1.00
H1473  H     0.20205   0.33354   0.85034   0.00000  Uiso   1.00
H1474  H     0.23108   0.48666   0.61320   0.00000  Uiso   1.00
H1475  H     0.15394   0.66219   0.88061   0.00000  Uiso   1.00
H1476  H     0.16609   0.40651   0.91237   0.00000  Uiso   1.00
H1477  H     0.20602   0.36592   0.92616   0.00000  Uiso   1.00
H1478  H     0.21509   0.40890   0.88321   0.00000  Uiso   1.00
H1479  H     0.25690   0.60528   0.67026   0.00000  Uiso   1.00
H1480  H     0.24788   0.66437   0.68497   0.00000  Uiso   1.00
H1481  H     0.21845   0.34505   0.60846   0.00000  Uiso   1.00
H1482  H     0.26914   0.65463   0.60536   0.00000  Uiso   1.00
H1483  H     0.22508   0.61787   0.59542   0.00000  Uiso   1.00
H1484  H     0.06587   0.52484   0.54043   0.00000  Uiso   1.00
H1485  H     0.26959   0.48389   0.95948   0.00000  Uiso   1.00
H1486  H     0.01622   0.47847   0.97769   0.00000  Uiso   1.00
H1487  H     0.05520   0.45400   0.94206   0.00000  Uiso   1.00
H1488  H     0.02644   0.49349   0.87592   0.00000  Uiso   1.00
N1489  N     0.16667   0.61736   0.75000   0.00000  Uiso   1.00
N1490  N     0.16667   0.38264   0.75000   0.00000  Uiso   1.00
O1491  O     0.10655   0.53958   0.75000   0.00000  Uiso   1.00
O1492  O     0.27767   0.48134   0.54680   0.00000  Uiso   1.00
O1493  O     0.04101   0.41647   0.76540   0.00000  Uiso   1.00
O1494  O     0.29261   0.58363   0.73920   0.00000  Uiso   1.00
O1495  O     0.29110   0.41796   0.77151   0.00000  Uiso   1.00
O1496  O     0.04178   0.58112   0.72788   0.00000  Uiso   1.00
O1497  O     0.17147   0.37859   0.66997   0.00000  Uiso   1.00
O1498  O     0.12978   0.61666   0.81793   0.00000  Uiso   1.00
O1499  O     0.15406   0.37821   0.82930   0.00000  Uiso   1.00
O1500  O     0.19589   0.61931   0.67721   0.00000  Uiso   1.00
O1501  O     0.22679   0.46042   0.75001   0.00000  Uiso   1.00
O1502  O     0.22679   0.53958   0.75001   0.00000  Uiso   1.00
O1503  O     0.10655   0.46042   0.75000   0.00000  Uiso   1.00
O1504  O     0.16666   0.53960   0.68513   0.00000  Uiso   1.00
O1505  O     0.16668   0.46040   0.81487   0.00000  Uiso   1.00
O1506  O     0.16668   0.53960   0.81487   0.00000  Uiso   1.00
O1507  O     0.16666   0.46040   0.68513   0.00000  Uiso   1.00
O1508  O     0.05807   0.52627   0.95293   0.00000  Uiso   1.00
C1509  C     0.42082   0.49979   0.74931   0.00000  Uiso   1.00
C1510  C     0.37610   0.49935   0.74889   0.00000  Uiso   1.00
C1511  C     0.50743   0.35773   0.71169   0.00000  Uiso   1.00
C1512  C     0.48377   0.64108   0.78480   0.00000  Uiso   1.00
C1513  C     0.49089   0.35675   0.78812   0.00000  Uiso   1.00
C1514  C     0.51462   0.64237   0.71422   0.00000  Uiso   1.00
C1515  C     0.49988   0.50034   0.66462   0.00000  Uiso   1.00
C1516  C     0.50079   0.49998   0.83537   0.00000  Uiso   1.00
C1517  C     0.53803   0.49662   0.90673   0.00000  Uiso   1.00
C1518  C     0.46415   0.51103   0.59316   0.00000  Uiso   1.00
C1519  C     0.50108   0.50066   0.88353   0.00000  Uiso   1.00
C1520  C     0.57918   0.50015   0.75134   0.00000  Uiso   1.00
C1521  C     0.50026   0.50152   0.61646   0.00000  Uiso   1.00
C1522  C     0.46440   0.50761   0.90607   0.00000  Uiso   1.00
C1523  C     0.53683   0.49341   0.59401   0.00000  Uiso   1.00
C1524  C     0.46389   0.50910   0.95275   0.00000  Uiso   1.00
C1525  C     0.53769   0.49426   0.54728   0.00000  Uiso   1.00
C1526  C     0.50090   0.50238   0.97656   0.00000  Uiso   1.00
C1527  C     0.50084   0.50234   0.52345   0.00000  Uiso   1.00
C1528  C     0.53804   0.49597   0.95339   0.00000  Uiso   1.00
C1529  C     0.46393   0.51056   0.54656   0.00000  Uiso   1.00
C1530  C     0.42713   0.51672   0.97602   0.00000  Uiso   1.00
C1531  C     0.42748   0.51808   0.52279   0.00000  Uiso   1.00
C1532  C     0.57445   0.48684   0.52394   0.00000  Uiso   1.00
C1533  C     0.36877   0.48483   0.94753   0.00000  Uiso   1.00
C1534  C     0.34105   0.48987   0.90678   0.00000  Uiso   1.00
C1535  C     0.62049   0.43376   0.54860   0.00000  Uiso   1.00
C1536  C     0.65862   0.42692   0.57723   0.00000  Uiso   1.00
C1537  C     0.37324   0.39030   0.72577   0.00000  Uiso   1.00
C1538  C     0.62820   0.60937   0.77897   0.00000  Uiso   1.00
C1539  C     0.62210   0.41301   0.81842   0.00000  Uiso   1.00
C1540  C     0.37574   0.58415   0.68076   0.00000  Uiso   1.00
C1541  C     0.47019   0.36041   0.64695   0.00000  Uiso   1.00
C1542  C     0.57445   0.48867   0.97714   0.00000  Uiso   1.00
C1543  C     0.45638   0.39406   0.61066   0.00000  Uiso   1.00
C1544  C     0.42213   0.63184   0.82023   0.00000  Uiso   1.00
C1545  C     0.39774   0.59836   0.84962   0.00000  Uiso   1.00
C1546  C     0.50864   0.35316   0.86333   0.00000  Uiso   1.00
C1547  C     0.52489   0.38593   0.89847   0.00000  Uiso   1.00
C1548  C     0.56908   0.63466   0.66520   0.00000  Uiso   1.00
C1549  C     0.57037   0.64718   0.61553   0.00000  Uiso   1.00
C1550  C     0.35426   0.45786   0.75767   0.00000  Uiso   1.00
C1551  C     0.64587   0.54200   0.74561   0.00000  Uiso   1.00
C1552  C     0.64510   0.45880   0.76151   0.00000  Uiso   1.00
C1553  C     0.35480   0.54080   0.74031   0.00000  Uiso   1.00
C1554  C     0.62390   0.50042   0.75314   0.00000  Uiso   1.00
Cu1555 Cu    0.50000   0.54689   0.75000   0.00000  Uiso   1.00
Cu1556 Cu    0.50000   0.45311   0.75000   0.00000  Uiso   1.00
H1557  H     0.56641   0.49258   0.88840   0.00000  Uiso   1.00
H1558  H     0.65454   0.45868   0.90383   0.00000  Uiso   1.00
H1559  H     0.65479   0.52090   0.91001   0.00000  Uiso   1.00
H1560  H     0.62681   0.42043   0.51446   0.00000  Uiso   1.00
H1561  H     0.59500   0.41323   0.56403   0.00000  Uiso   1.00
H1562  H     0.65309   0.43951   0.61170   0.00000  Uiso   1.00
H1563  H     0.66637   0.38957   0.57897   0.00000  Uiso   1.00
H1564  H     0.35157   0.44636   0.56245   0.00000  Uiso   1.00
H1565  H     0.39245   0.35919   0.73073   0.00000  Uiso   1.00
H1566  H     0.38604   0.41010   0.69673   0.00000  Uiso   1.00
H1567  H     0.34165   0.37813   0.71806   0.00000  Uiso   1.00
H1568  H     0.43612   0.51734   0.61142   0.00000  Uiso   1.00
H1569  H     0.61807   0.58870   0.80872   0.00000  Uiso   1.00
H1570  H     0.60733   0.63936   0.77571   0.00000  Uiso   1.00
H1571  H     0.65962   0.62329   0.78417   0.00000  Uiso   1.00
H1572  H     0.60401   0.38135   0.82642   0.00000  Uiso   1.00
H1573  H     0.60619   0.44283   0.83378   0.00000  Uiso   1.00
H1574  H     0.65303   0.40862   0.83347   0.00000  Uiso   1.00
H1575  H     0.39112   0.55373   0.66590   0.00000  Uiso   1.00
H1576  H     0.39350   0.61548   0.67079   0.00000  Uiso   1.00
H1577  H     0.34428   0.58783   0.66685   0.00000  Uiso   1.00
H1578  H     0.44353   0.35397   0.66954   0.00000  Uiso   1.00
H1579  H     0.43642   0.51153   0.88692   0.00000  Uiso   1.00
H1580  H     0.47816   0.66076   0.63044   0.00000  Uiso   1.00
H1581  H     0.48269   0.40443   0.58919   0.00000  Uiso   1.00
H1582  H     0.43261   0.37742   0.58947   0.00000  Uiso   1.00
H1583  H     0.44274   0.42495   0.62629   0.00000  Uiso   1.00
H1584  H     0.40757   0.63297   0.78657   0.00000  Uiso   1.00
H1585  H     0.42040   0.33340   0.83536   0.00000  Uiso   1.00
H1586  H     0.41196   0.59595   0.88336   0.00000  Uiso   1.00
H1587  H     0.36585   0.61076   0.85329   0.00000  Uiso   1.00
H1588  H     0.39706   0.56353   0.83428   0.00000  Uiso   1.00
H1589  H     0.53538   0.33354   0.85034   0.00000  Uiso   1.00
H1590  H     0.56442   0.48666   0.61320   0.00000  Uiso   1.00
H1591  H     0.48727   0.66219   0.88061   0.00000  Uiso   1.00
H1592  H     0.49942   0.40651   0.91237   0.00000  Uiso   1.00
H1593  H     0.53935   0.36592   0.92616   0.00000  Uiso   1.00
H1594  H     0.54842   0.40890   0.88321   0.00000  Uiso   1.00
H1595  H     0.59023   0.60528   0.67026   0.00000  Uiso   1.00
H1596  H     0.58121   0.66437   0.68497   0.00000  Uiso   1.00
H1597  H     0.55179   0.34505   0.60846   0.00000  Uiso   1.00
H1598  H     0.60247   0.65463   0.60536   0.00000  Uiso   1.00
H1599  H     0.55842   0.61787   0.59542   0.00000  Uiso   1.00
H1600  H     0.39921   0.52484   0.54043   0.00000  Uiso   1.00
H1601  H     0.60292   0.48389   0.95948   0.00000  Uiso   1.00
H1602  H     0.34956   0.47847   0.97769   0.00000  Uiso   1.00
H1603  H     0.38853   0.45400   0.94206   0.00000  Uiso   1.00
H1604  H     0.35977   0.49349   0.87592   0.00000  Uiso   1.00
N1605  N     0.50000   0.61736   0.75000   0.00000  Uiso   1.00
N1606  N     0.50000   0.38264   0.75000   0.00000  Uiso   1.00
O1607  O     0.43988   0.53958   0.75000   0.00000  Uiso   1.00
O1608  O     0.61100   0.48134   0.54680   0.00000  Uiso   1.00
O1609  O     0.37434   0.41647   0.76540   0.00000  Uiso   1.00
O1610  O     0.62594   0.58363   0.73920   0.00000  Uiso   1.00
O1611  O     0.62443   0.41796   0.77151   0.00000  Uiso   1.00
O1612  O     0.37511   0.58112   0.72788   0.00000  Uiso   1.00
O1613  O     0.50480   0.37859   0.66997   0.00000  Uiso   1.00
O1614  O     0.46311   0.61666   0.81793   0.00000  Uiso   1.00
O1615  O     0.48740   0.37821   0.82930   0.00000  Uiso   1.00
O1616  O     0.52922   0.61931   0.67721   0.00000  Uiso   1.00
O1617  O     0.56012   0.46042   0.75001   0.00000  Uiso   1.00
O1618  O     0.56012   0.53958   0.75001   0.00000  Uiso   1.00
O1619  O     0.43988   0.46042   0.75000   0.00000  Uiso   1.00
O1620  O     0.49999   0.53960   0.68513   0.00000  Uiso   1.00
O1621  O     0.50001   0.46040   0.81487   0.00000  Uiso   1.00
O1622  O     0.50001   0.53960   0.81487   0.00000  Uiso   1.00
O1623  O     0.49999   0.46040   0.68513   0.00000  Uiso   1.00
O1624  O     0.39140   0.52627   0.95293   0.00000  Uiso   1.00
C1625  C     0.75415   0.49979   0.74931   0.00000  Uiso   1.00
C1626  C     0.70943   0.49935   0.74889   0.00000  Uiso   1.00
C1627  C     0.84077   0.35773   0.71169   0.00000  Uiso   1.00
C1628  C     0.81711   0.64108   0.78480   0.00000  Uiso   1.00
C1629  C     0.82422   0.35675   0.78812   0.00000  Uiso   1.00
C1630  C     0.84795   0.64237   0.71422   0.00000  Uiso   1.00
C1631  C     0.83322   0.50034   0.66462   0.00000  Uiso   1.00
C1632  C     0.83412   0.49998   0.83537   0.00000  Uiso   1.00
C1633  C     0.87137   0.49662   0.90673   0.00000  Uiso   1.00
C1634  C     0.79748   0.51103   0.59316   0.00000  Uiso   1.00
C1635  C     0.83441   0.50066   0.88353   0.00000  Uiso   1.00
C1636  C     0.91251   0.50015   0.75134   0.00000  Uiso   1.00
C1637  C     0.83359   0.50152   0.61646   0.00000  Uiso   1.00
C1638  C     0.79773   0.50761   0.90607   0.00000  Uiso   1.00
C1639  C     0.87016   0.49341   0.59401   0.00000  Uiso   1.00
C1640  C     0.79722   0.50910   0.95275   0.00000  Uiso   1.00
C1641  C     0.87102   0.49426   0.54728   0.00000  Uiso   1.00
C1642  C     0.83423   0.50238   0.97656   0.00000  Uiso   1.00
C1643  C     0.83417   0.50234   0.52345   0.00000  Uiso   1.00
C1644  C     0.87138   0.49597   0.95339   0.00000  Uiso   1.00
C1645  C     0.79727   0.51056   0.54656   0.00000  Uiso   1.00
C1646  C     0.76046   0.51672   0.97602   0.00000  Uiso   1.00
C1647  C     0.76082   0.51808   0.52279   0.00000  Uiso   1.00
C1648  C     0.90779   0.48684   0.52394   0.00000  Uiso   1.00
C1649  C     0.70211   0.48483   0.94753   0.00000  Uiso   1.00
C1650  C     0.67439   0.48987   0.90678   0.00000  Uiso   1.00
C1651  C     0.95382   0.43376   0.54860   0.00000  Uiso   1.00
C1652  C     0.99196   0.42692   0.57723   0.00000  Uiso   1.00
C1653  C     0.70658   0.39030   0.72577   0.00000  Uiso   1.00
C1654  C     0.96153   0.60937   0.77897   0.00000  Uiso   1.00
C1655  C     0.95543   0.41301   0.81842   0.00000  Uiso   1.00
C1656  C     0.70907   0.58415   0.68076   0.00000  Uiso   1.00
C1657  C     0.80352   0.36041   0.64695   0.00000  Uiso   1.00
C1658  C     0.90779   0.48867   0.97714   0.00000  Uiso   1.00
C1659  C     0.78971   0.39406   0.61066   0.00000  Uiso   1.00
C1660  C     0.75546   0.63184   0.82023   0.00000  Uiso   1.00
C1661  C     0.73108   0.59836   0.84962   0.00000  Uiso   1.00
C1662  C     0.84197   0.35316   0.86333   0.00000  Uiso   1.00
C1663  C     0.85822   0.38593   0.89847   0.00000  Uiso   1.00
C1664  C     0.90241   0.63466   0.66520   0.00000  Uiso   1.00
C1665  C     0.90370   0.64718   0.61553   0.00000  Uiso   1.00
C1666  C     0.68760   0.45786   0.75767   0.00000  Uiso   1.00
C1667  C     0.97920   0.54200   0.74561   0.00000  Uiso   1.00
C1668  C     0.97843   0.45880   0.76151   0.00000  Uiso   1.00
C1669  C     0.68813   0.54080   0.74031   0.00000  Uiso   1.00
C1670  C     0.95724   0.50042   0.75314   0.00000  Uiso   1.00
Cu1671 Cu    0.83333   0.54689   0.75000   0.00000  Uiso   1.00
Cu1672 Cu    0.83333   0.45311   0.75000   0.00000  Uiso   1.00
H1673  H     0.89974   0.49258   0.88840   0.00000  Uiso   1.00
H1674  H     0.98787   0.45868   0.90383   0.00000  Uiso   1.00
H1675  H     0.98812   0.52090   0.91001   0.00000  Uiso   1.00
H1676  H     0.96015   0.42043   0.51446   0.00000  Uiso   1.00
H1677  H     0.92833   0.41323   0.56403   0.00000  Uiso   1.00
H1678  H     0.98642   0.43951   0.61170   0.00000  Uiso   1.00
H1679  H     0.99970   0.38957   0.57897   0.00000  Uiso   1.00
H1680  H     0.68490   0.44636   0.56245   0.00000  Uiso   1.00
H1681  H     0.72578   0.35919   0.73073   0.00000  Uiso   1.00
H1682  H     0.71937   0.41010   0.69673   0.00000  Uiso   1.00
H1683  H     0.67498   0.37813   0.71806   0.00000  Uiso   1.00
H1684  H     0.76946   0.51734   0.61142   0.00000  Uiso   1.00
H1685  H     0.95140   0.58870   0.80872   0.00000  Uiso   1.00
H1686  H     0.94067   0.63936   0.77571   0.00000  Uiso   1.00
H1687  H     0.99296   0.62329   0.78417   0.00000  Uiso   1.00
H1688  H     0.93734   0.38135   0.82642   0.00000  Uiso   1.00
H1689  H     0.93953   0.44283   0.83378   0.00000  Uiso   1.00
H1690  H     0.98636   0.40862   0.83347   0.00000  Uiso   1.00
H1691  H     0.72446   0.55373   0.66590   0.00000  Uiso   1.00
H1692  H     0.72684   0.61548   0.67079   0.00000  Uiso   1.00
H1693  H     0.67761   0.58783   0.66685   0.00000  Uiso   1.00
H1694  H     0.77686   0.35397   0.66954   0.00000  Uiso   1.00
H1695  H     0.76976   0.51153   0.88692   0.00000  Uiso   1.00
H1696  H     0.81149   0.66076   0.63044   0.00000  Uiso   1.00
H1697  H     0.81603   0.40443   0.58919   0.00000  Uiso   1.00
H1698  H     0.76594   0.37742   0.58947   0.00000  Uiso   1.00
H1699  H     0.77608   0.42495   0.62629   0.00000  Uiso   1.00
H1700  H     0.74091   0.63297   0.78657   0.00000  Uiso   1.00
H1701  H     0.75374   0.33340   0.83536   0.00000  Uiso   1.00
H1702  H     0.74529   0.59595   0.88336   0.00000  Uiso   1.00
H1703  H     0.69919   0.61076   0.85329   0.00000  Uiso   1.00
H1704  H     0.73039   0.56353   0.83428   0.00000  Uiso   1.00
H1705  H     0.86871   0.33354   0.85034   0.00000  Uiso   1.00
H1706  H     0.89775   0.48666   0.61320   0.00000  Uiso   1.00
H1707  H     0.82060   0.66219   0.88061   0.00000  Uiso   1.00
H1708  H     0.83275   0.40651   0.91237   0.00000  Uiso   1.00
H1709  H     0.87268   0.36592   0.92616   0.00000  Uiso   1.00
H1710  H     0.88175   0.40890   0.88321   0.00000  Uiso   1.00
H1711  H     0.92356   0.60528   0.67026   0.00000  Uiso   1.00
H1712  H     0.91454   0.66437   0.68497   0.00000  Uiso   1.00
H1713  H     0.88512   0.34505   0.60846   0.00000  Uiso   1.00
H1714  H     0.93580   0.65463   0.60536   0.00000  Uiso   1.00
H1715  H     0.89175   0.61787   0.59542   0.00000  Uiso   1.00
H1716  H     0.73254   0.52484   0.54043   0.00000  Uiso   1.00
H1717  H     0.93625   0.48389   0.95948   0.00000  Uiso   1.00
H1718  H     0.68289   0.47847   0.97769   0.00000  Uiso   1.00
H1719  H     0.72187   0.45400   0.94206   0.00000  Uiso   1.00
H1720  H     0.69310   0.49349   0.87592   0.00000  Uiso   1.00
N1721  N     0.83333   0.61736   0.75000   0.00000  Uiso   1.00
N1722  N     0.83333   0.38264   0.75000   0.00000  Uiso   1.00
O1723  O     0.77321   0.53958   0.75000   0.00000  Uiso   1.00
O1724  O     0.94434   0.48134   0.54680   0.00000  Uiso   1.00
O1725  O     0.70768   0.41647   0.76540   0.00000  Uiso   1.00
O1726  O     0.95927   0.58363   0.73920   0.00000  Uiso   1.00
O1727  O     0.95776   0.41796   0.77151   0.00000  Uiso   1.00
O1728  O     0.70845   0.58112   0.72788   0.00000  Uiso   1.00
O1729  O     0.83814   0.37859   0.66997   0.00000  Uiso   1.00
O1730  O     0.79644   0.61666   0.81793   0.00000  Uiso   1.00
O1731  O     0.82073   0.37821   0.82930   0.00000  Uiso   1.00
O1732  O     0.86256   0.61931   0.67721   0.00000  Uiso   1.00
O1733  O     0.89345   0.46042   0.75001   0.00000  Uiso   1.00
O1734  O     0.89345   0.53958   0.75001   0.00000  Uiso   1.00
O1735  O     0.77321   0.46042   0.75000   0.00000  Uiso   1.00
O1736  O     0.83332   0.53960   0.68513   0.00000  Uiso   1.00
O1737  O     0.83334   0.46040   0.81487   0.00000  Uiso   1.00
O1738  O     0.83334   0.53960   0.81487   0.00000  Uiso   1.00
O1739  O     0.83332   0.46040   0.68513   0.00000  Uiso   1.00
O1740  O     0.72473   0.52627   0.95293   0.00000  Uiso   1.00
C1741  C     0.08748   0.83313   0.74931   0.00000  Uiso   1.00
C1742  C     0.04277   0.83269   0.74889   0.00000  Uiso   1.00
C1743  C     0.17410   0.69107   0.71169   0.00000  Uiso   1.00
C1744  C     0.15044   0.97441   0.78480   0.00000  Uiso   1.00
C1745  C     0.15755   0.69009   0.78812   0.00000  Uiso   1.00
C1746  C     0.18129   0.97570   0.71422   0.00000  Uiso   1.00
C1747  C     0.16655   0.83367   0.66462   0.00000  Uiso   1.00
C1748  C     0.16745   0.83331   0.83537   0.00000  Uiso   1.00
C1749  C     0.20470   0.82996   0.90673   0.00000  Uiso   1.00
C1750  C     0.13082   0.84437   0.59316   0.00000  Uiso   1.00
C1751  C     0.16775   0.83399   0.88353   0.00000  Uiso   1.00
C1752  C     0.24584   0.83349   0.75134   0.00000  Uiso   1.00
C1753  C     0.16692   0.83485   0.61646   0.00000  Uiso   1.00
C1754  C     0.13106   0.84094   0.90607   0.00000  Uiso   1.00
C1755  C     0.20350   0.82674   0.59401   0.00000  Uiso   1.00
C1756  C     0.13056   0.84243   0.95275   0.00000  Uiso   1.00
C1757  C     0.20435   0.82759   0.54728   0.00000  Uiso   1.00
C1758  C     0.16757   0.83571   0.97656   0.00000  Uiso   1.00
C1759  C     0.16751   0.83567   0.52345   0.00000  Uiso   1.00
C1760  C     0.20471   0.82931   0.95339   0.00000  Uiso   1.00
C1761  C     0.13060   0.84390   0.54656   0.00000  Uiso   1.00
C1762  C     0.09380   0.85005   0.97602   0.00000  Uiso   1.00
C1763  C     0.09415   0.85141   0.52279   0.00000  Uiso   1.00
C1764  C     0.24112   0.82018   0.52394   0.00000  Uiso   1.00
C1765  C     0.03544   0.81816   0.94753   0.00000  Uiso   1.00
C1766  C     0.00772   0.82320   0.90678   0.00000  Uiso   1.00
C1767  C     0.28715   0.76709   0.54860   0.00000  Uiso   1.00
C1768  C     0.32529   0.76026   0.57723   0.00000  Uiso   1.00
C1769  C     0.03991   0.72363   0.72577   0.00000  Uiso   1.00
C1770  C     0.29487   0.94271   0.77897   0.00000  Uiso   1.00
C1771  C     0.28877   0.74634   0.81842   0.00000  Uiso   1.00
C1772  C     0.04241   0.91749   0.68076   0.00000  Uiso   1.00
C1773  C     0.13685   0.69374   0.64695   0.00000  Uiso   1.00
C1774  C     0.24112   0.82201   0.97714   0.00000  Uiso   1.00
C1775  C     0.12305   0.72739   0.61066   0.00000  Uiso   1.00
C1776  C     0.08880   0.96517   0.82023   0.00000  Uiso   1.00
C1777  C     0.06441   0.93170   0.84962   0.00000  Uiso   1.00
C1778  C     0.17531   0.68649   0.86333   0.00000  Uiso   1.00
C1779  C     0.19155   0.71926   0.89847   0.00000  Uiso   1.00
C1780  C     0.23575   0.96799   0.66520   0.00000  Uiso   1.00
C1781  C     0.23703   0.98051   0.61553   0.00000  Uiso   1.00
C1782  C     0.02093   0.79119   0.75767   0.00000  Uiso   1.00
C1783  C     0.31253   0.87534   0.74561   0.00000  Uiso   1.00
C1784  C     0.31176   0.79213   0.76151   0.00000  Uiso   1.00
C1785  C     0.02146   0.87413   0.74031   0.00000  Uiso   1.00
C1786  C     0.29057   0.83376   0.75314   0.00000  Uiso   1.00
Cu1787 Cu    0.16667   0.88022   0.75000   0.00000  Uiso   1.00
Cu1788 Cu    0.16667   0.78645   0.75000   0.00000  Uiso   1.00
H1789  H     0.23307   0.82591   0.88840   0.00000  Uiso   1.00
H1790  H     0.32120   0.79202   0.90383   0.00000  Uiso   1.00
H1791  H     0.32146   0.85423   0.91001   0.00000  Uiso   1.00
H1792  H     0.29348   0.75377   0.51446   0.00000  Uiso   1.00
H1793  H     0.26166   0.74656   0.56403   0.00000  Uiso   1.00
H1794  H     0.31975   0.77284   0.61170   0.00000  Uiso   1.00
H1795  H     0.33304   0.72291   0.57897   0.00000  Uiso   1.00
H1796  H     0.01823   0.77969   0.56245   0.00000  Uiso   1.00
H1797  H     0.05912   0.69253   0.73073   0.00000  Uiso   1.00
H1798  H     0.05270   0.74343   0.69673   0.00000  Uiso   1.00
H1799  H     0.00832   0.71146   0.71806   0.00000  Uiso   1.00
H1800  H     0.10279   0.85067   0.61142   0.00000  Uiso   1.00
H1801  H     0.28474   0.92204   0.80872   0.00000  Uiso   1.00
H1802  H     0.27400   0.97269   0.77571   0.00000  Uiso   1.00
H1803  H     0.32629   0.95663   0.78417   0.00000  Uiso   1.00
H1804  H     0.27067   0.71469   0.82642   0.00000  Uiso   1.00
H1805  H     0.27286   0.77616   0.83378   0.00000  Uiso   1.00
H1806  H     0.31970   0.74195   0.83347   0.00000  Uiso   1.00
H1807  H     0.05779   0.88706   0.66590   0.00000  Uiso   1.00
H1808  H     0.06017   0.94881   0.67079   0.00000  Uiso   1.00
H1809  H     0.01094   0.92117   0.66685   0.00000  Uiso   1.00
H1810  H     0.11019   0.68730   0.66954   0.00000  Uiso   1.00
H1811  H     0.10309   0.84487   0.88692   0.00000  Uiso   1.00
H1812  H     0.14482   0.99409   0.63044   0.00000  Uiso   1.00
H1813  H     0.14936   0.73777   0.58919   0.00000  Uiso   1.00
H1814  H     0.09927   0.71075   0.58947   0.00000  Uiso   1.00
H1815  H     0.10941   0.75828   0.62629   0.00000  Uiso   1.00
H1816  H     0.07424   0.96631   0.78657   0.00000  Uiso   1.00
H1817  H     0.08707   0.66674   0.83536   0.00000  Uiso   1.00
H1818  H     0.07862   0.92928   0.88336   0.00000  Uiso   1.00
H1819  H     0.03252   0.94410   0.85329   0.00000  Uiso   1.00
H1820  H     0.06373   0.89686   0.83428   0.00000  Uiso   1.00
H1821  H     0.20205   0.66687   0.85034   0.00000  Uiso   1.00
H1822  H     0.23108   0.81999   0.61320   0.00000  Uiso   1.00
H1823  H     0.15394   0.99552   0.88061   0.00000  Uiso   1.00
H1824  H     0.16609   0.73984   0.91237   0.00000  Uiso   1.00
H1825  H     0.20602   0.69926   0.92616   0.00000  Uiso   1.00
H1826  H     0.21509   0.74223   0.88321   0.00000  Uiso   1.00
H1827  H     0.25690   0.93861   0.67026   0.00000  Uiso   1.00
H1828  H     0.24788   0.99770   0.68497   0.00000  Uiso   1.00
H1829  H     0.21845   0.67838   0.60846   0.00000  Uiso   1.00
H1830  H     0.26914   0.98796   0.60536   0.00000  Uiso   1.00
H1831  H     0.22508   0.95120   0.59542   0.00000  Uiso   1.00
H1832  H     0.06587   0.85817   0.54043   0.00000  Uiso   1.00
H1833  H     0.26959   0.81723   0.95948   0.00000  Uiso   1.00
H1834  H     0.01622   0.81181   0.97769   0.00000  Uiso   1.00
H1835  H     0.05520   0.78734   0.94206   0.00000  Uiso   1.00
H1836  H     0.02644   0.82682   0.87592   0.00000  Uiso   1.00
N1837  N     0.16667   0.95069   0.75000   0.00000  Uiso   1.00
N1838  N     0.16667   0.71598   0.75000   0.00000  Uiso   1.00
O1839  O     0.10655   0.87291   0.75000   0.00000  Uiso   1.00
O1840  O     0.27767   0.81468   0.54680   0.00000  Uiso   1.00
O1841  O     0.04101   0.74980   0.76540   0.00000  Uiso   1.00
O1842  O     0.29261   0.91696   0.73920   0.00000  Uiso   1.00
O1843  O     0.29110   0.75130   0.77151   0.00000  Uiso   1.00
O1844  O     0.04178   0.91445   0.72788   0.00000  Uiso   1.00
O1845  O     0.17147   0.71193   0.66997   0.00000  Uiso   1.00
O1846  O     0.12978   0.94999   0.81793   0.00000  Uiso   1.00
O1847  O     0.15406   0.71154   0.82930   0.00000  Uiso   1.00
O1848  O     0.19589   0.95264   0.67721   0.00000  Uiso   1.00
O1849  O     0.22679   0.79375   0.75001   0.00000  Uiso   1.00
O1850  O     0.22679   0.87291   0.75001   0.00000  Uiso   1.00
O1851  O     0.10655   0.79375   0.75000   0.00000  Uiso   1.00
O1852  O     0.16666   0.87293   0.68513   0.00000  Uiso   1.00
O1853  O     0.16668   0.79373   0.81487   0.00000  Uiso   1.00
O1854  O     0.16668   0.87293   0.81487   0.00000  Uiso   1.00
O1855  O     0.16666   0.79373   0.68513   0.00000  Uiso   1.00
O1856  O     0.05807   0.85960   0.95293   0.00000  Uiso   1.00
C1857  C     0.42082   0.83313   0.74931   0.00000  Uiso   1.00
C1858  C     0.37610   0.83269   0.74889   0.00000  Uiso   1.00
C1859  C     0.50743   0.69107   0.71169   0.00000  Uiso   1.00
C1860  C     0.48377   0.97441   0.78480   0.00000  Uiso   1.00
C1861  C     0.49089   0.69009   0.78812   0.00000  Uiso   1.00
C1862  C     0.51462   0.97570   0.71422   0.00000  Uiso   1.00
C1863  C     0.49988   0.83367   0.66462   0.00000  Uiso   1.00
C1864  C     0.50079   0.83331   0.83537   0.00000  Uiso   1.00
C1865  C     0.53803   0.82996   0.90673   0.00000  Uiso   1.00
C1866  C     0.46415   0.84437   0.59316   0.00000  Uiso   1.00
C1867  C     0.50108   0.83399   0.88353   0.00000  Uiso   1.00
C1868  C     0.57918   0.83349   0.75134   0.00000  Uiso   1.00
C1869  C     0.50026   0.83485   0.61646   0.00000  Uiso   1.00
C1870  C     0.46440   0.84094   0.90607   0.00000  Uiso   1.00
C1871  C     0.53683   0.82674   0.59401   0.00000  Uiso   1.00
C1872  C     0.46389   0.84243   0.95275   0.00000  Uiso   1.00
C1873  C     0.53769   0.82759   0.54728   0.00000  Uiso   1.00
C1874  C     0.50090   0.83571   0.97656   0.00000  Uiso   1.00
C1875  C     0.50084   0.83567   0.52345   0.00000  Uiso   1.00
C1876  C     0.53804   0.82931   0.95339   0.00000  Uiso   1.00
C1877  C     0.46393   0.84390   0.54656   0.00000  Uiso   1.00
C1878  C     0.42713   0.85005   0.97602   0.00000  Uiso   1.00
C1879  C     0.42748   0.85141   0.52279   0.00000  Uiso   1.00
C1880  C     0.57445   0.82018   0.52394   0.00000  Uiso   1.00
C1881  C     0.36877   0.81816   0.94753   0.00000  Uiso   1.00
C1882  C     0.34105   0.82320   0.90678   0.00000  Uiso   1.00
C1883  C     0.62049   0.76709   0.54860   0.00000  Uiso   1.00
C1884  C     0.65862   0.76026   0.57723   0.00000  Uiso   1.00
C1885  C     0.37324   0.72363   0.72577   0.00000  Uiso   1.00
C1886  C     0.62820   0.94271   0.77897   0.00000  Uiso   1.00
C1887  C     0.62210   0.74634   0.81842   0.00000  Uiso   1.00
C1888  C     0.37574   0.91749   0.68076   0.00000  Uiso   1.00
C1889  C     0.47019   0.69374   0.64695   0.00000  Uiso   1.00
C1890  C     0.57445   0.82201   0.97714   0.00000  Uiso   1.00
C1891  C     0.45638   0.72739   0.61066   0.00000  Uiso   1.00
C1892  C     0.42213   0.96517   0.82023   0.00000  Uiso   1.00
C1893  C     0.39774   0.93170   0.84962   0.00000  Uiso   1.00
C1894  C     0.50864   0.68649   0.86333   0.00000  Uiso   1.00
C1895  C     0.52489   0.71926   0.89847   0.00000  Uiso   1.00
C1896  C     0.56908   0.96799   0.66520   0.00000  Uiso   1.00
C1897  C     0.57037   0.98051   0.61553   0.00000  Uiso   1.00
C1898  C     0.35426   0.79119   0.75767   0.00000  Uiso   1.00
C1899  C     0.64587   0.87534   0.74561   0.00000  Uiso   1.00
C1900  C     0.64510   0.79213   0.76151   0.00000  Uiso   1.00
C1901  C     0.35480   0.87413   0.74031   0.00000  Uiso   1.00
C1902  C     0.62390   0.83376   0.75314   0.00000  Uiso   1.00
Cu1903 Cu    0.50000   0.88022   0.75000   0.00000  Uiso   1.00
Cu1904 Cu    0.50000   0.78645   0.75000   0.00000  Uiso   1.00
H1905  H     0.56641   0.82591   0.88840   0.00000  Uiso   1.00
H1906  H     0.65454   0.79202   0.90383   0.00000  Uiso   1.00
H1907  H     0.65479   0.85423   0.91001   0.00000  Uiso   1.00
H1908  H     0.62681   0.75377   0.51446   0.00000  Uiso   1.00
H1909  H     0.59500   0.74656   0.56403   0.00000  Uiso   1.00
H1910  H     0.65309   0.77284   0.61170   0.00000  Uiso   1.00
H1911  H     0.66637   0.72291   0.57897   0.00000  Uiso   1.00
H1912  H     0.35157   0.77969   0.56245   0.00000  Uiso   1.00
H1913  H     0.39245   0.69253   0.73073   0.00000  Uiso   1.00
H1914  H     0.38604   0.74343   0.69673   0.00000  Uiso   1.00
H1915  H     0.34165   0.71146   0.71806   0.00000  Uiso   1.00
H1916  H     0.43612   0.85067   0.61142   0.00000  Uiso   1.00
H1917  H     0.61807   0.92204   0.80872   0.00000  Uiso   1.00
H1918  H     0.60733   0.97269   0.77571   0.00000  Uiso   1.00
H1919  H     0.65962   0.95663   0.78417   0.00000  Uiso   1.00
H1920  H     0.60401   0.71469   0.82642   0.00000  Uiso   1.00
H1921  H     0.60619   0.77616   0.83378   0.00000  Uiso   1.00
H1922  H     0.65303   0.74195   0.83347   0.00000  Uiso   1.00
H1923  H     0.39112   0.88706   0.66590   0.00000  Uiso   1.00
H1924  H     0.39350   0.94881   0.67079   0.00000  Uiso   1.00
H1925  H     0.34428   0.92117   0.66685   0.00000  Uiso   1.00
H1926  H     0.44353   0.68730   0.66954   0.00000  Uiso   1.00
H1927  H     0.43642   0.84487   0.88692   0.00000  Uiso   1.00
H1928  H     0.47816   0.99409   0.63044   0.00000  Uiso   1.00
H1929  H     0.48269   0.73777   0.58919   0.00000  Uiso   1.00
H1930  H     0.43261   0.71075   0.58947   0.00000  Uiso   1.00
H1931  H     0.44274   0.75828   0.62629   0.00000  Uiso   1.00
H1932  H     0.40757   0.96631   0.78657   0.00000  Uiso   1.00
H1933  H     0.42040   0.66674   0.83536   0.00000  Uiso   1.00
H1934  H     0.41196   0.92928   0.88336   0.00000  Uiso   1.00
H1935  H     0.36585   0.94410   0.85329   0.00000  Uiso   1.00
H1936  H     0.39706   0.89686   0.83428   0.00000  Uiso   1.00
H1937  H     0.53538   0.66687   0.85034   0.00000  Uiso   1.00
H1938  H     0.56442   0.81999   0.61320   0.00000  Uiso   1.00
H1939  H     0.48727   0.99552   0.88061   0.00000  Uiso   1.00
H1940  H     0.49942   0.73984   0.91237   0.00000  Uiso   1.00
H1941  H     0.53935   0.69926   0.92616   0.00000  Uiso   1.00
H1942  H     0.54842   0.74223   0.88321   0.00000  Uiso   1.00
H1943  H     0.59023   0.93861   0.67026   0.00000  Uiso   1.00
H1944  H     0.58121   0.99770   0.68497   0.00000  Uiso   1.00
H1945  H     0.55179   0.67838   0.60846   0.00000  Uiso   1.00
H1946  H     0.60247   0.98796   0.60536   0.00000  Uiso   1.00
H1947  H     0.55842   0.95120   0.59542   0.00000  Uiso   1.00
H1948  H     0.39921   0.85817   0.54043   0.00000  Uiso   1.00
H1949  H     0.60292   0.81723   0.95948   0.00000  Uiso   1.00
H1950  H     0.34956   0.81181   0.97769   0.00000  Uiso   1.00
H1951  H     0.38853   0.78734   0.94206   0.00000  Uiso   1.00
H1952  H     0.35977   0.82682   0.87592   0.00000  Uiso   1.00
N1953  N     0.50000   0.95069   0.75000   0.00000  Uiso   1.00
N1954  N     0.50000   0.71598   0.75000   0.00000  Uiso   1.00
O1955  O     0.43988   0.87291   0.75000   0.00000  Uiso   1.00
O1956  O     0.61100   0.81468   0.54680   0.00000  Uiso   1.00
O1957  O     0.37434   0.74980   0.76540   0.00000  Uiso   1.00
O1958  O     0.62594   0.91696   0.73920   0.00000  Uiso   1.00
O1959  O     0.62443   0.75130   0.77151   0.00000  Uiso   1.00
O1960  O     0.37511   0.91445   0.72788   0.00000  Uiso   1.00
O1961  O     0.50480   0.71193   0.66997   0.00000  Uiso   1.00
O1962  O     0.46311   0.94999   0.81793   0.00000  Uiso   1.00
O1963  O     0.48740   0.71154   0.82930   0.00000  Uiso   1.00
O1964  O     0.52922   0.95264   0.67721   0.00000  Uiso   1.00
O1965  O     0.56012   0.79375   0.75001   0.00000  Uiso   1.00
O1966  O     0.56012   0.87291   0.75001   0.00000  Uiso   1.00
O1967  O     0.43988   0.79375   0.75000   0.00000  Uiso   1.00
O1968  O     0.49999   0.87293   0.68513   0.00000  Uiso   1.00
O1969  O     0.50001   0.79373   0.81487   0.00000  Uiso   1.00
O1970  O     0.50001   0.87293   0.81487   0.00000  Uiso   1.00
O1971  O     0.49999   0.79373   0.68513   0.00000  Uiso   1.00
O1972  O     0.39140   0.85960   0.95293   0.00000  Uiso   1.00
C1973  C     0.75415   0.83313   0.74931   0.00000  Uiso   1.00
C1974  C     0.70943   0.83269   0.74889   0.00000  Uiso   1.00
C1975  C     0.84077   0.69107   0.71169   0.00000  Uiso   1.00
C1976  C     0.81711   0.97441   0.78480   0.00000  Uiso   1.00
C1977  C     0.82422   0.69009   0.78812   0.00000  Uiso   1.00
C1978  C     0.84795   0.97570   0.71422   0.00000  Uiso   1.00
C1979  C     0.83322   0.83367   0.66462   0.00000  Uiso   1.00
C1980  C     0.83412   0.83331   0.83537   0.00000  Uiso   1.00
C1981  C     0.87137   0.82996   0.90673   0.00000  Uiso   1.00
C1982  C     0.79748   0.84437   0.59316   0.00000  Uiso   1.00
C1983  C     0.83441   0.83399   0.88353   0.00000  Uiso   1.00
C1984  C     0.91251   0.83349   0.75134   0.00000  Uiso   1.00
C1985  C     0.83359   0.83485   0.61646   0.00000  Uiso   1.00
C1986  C     0.79773   0.84094   0.90607   0.00000  Uiso   1.00
C1987  C     0.87016   0.82674   0.59401   0.00000  Uiso   1.00
C1988  C     0.79722   0.84243   0.95275   0.00000  Uiso   1.00
C1989  C     0.87102   0.82759   0.54728   0.00000  Uiso   1.00
C1990  C     0.83423   0.83571   0.97656   0.00000  Uiso   1.00
C1991  C     0.83417   0.83567   0.52345   0.00000  Uiso   1.00
C1992  C     0.87138   0.82931   0.95339   0.00000  Uiso   1.00
C1993  C     0.79727   0.84390   0.54656   0.00000  Uiso   1.00
C1994  C     0.76046   0.85005   0.97602   0.00000  Uiso   1.00
C1995  C     0.76082   0.85141   0.52279   0.00000  Uiso   1.00
C1996  C     0.90779   0.82018   0.52394   0.00000  Uiso   1.00
C1997  C     0.70211   0.81816   0.94753   0.00000  Uiso   1.00
C1998  C     0.67439   0.82320   0.90678   0.00000  Uiso   1.00
C1999  C     0.95382   0.76709   0.54860   0.00000  Uiso   1.00
C2000  C     0.99196   0.76026   0.57723   0.00000  Uiso   1.00
C2001  C     0.70658   0.72363   0.72577   0.00000  Uiso   1.00
C2002  C     0.96153   0.94271   0.77897   0.00000  Uiso   1.00
C2003  C     0.95543   0.74634   0.81842   0.00000  Uiso   1.00
C2004  C     0.70907   0.91749   0.68076   0.00000  Uiso   1.00
C2005  C     0.80352   0.69374   0.64695   0.00000  Uiso   1.00
C2006  C     0.90779   0.82201   0.97714   0.00000  Uiso   1.00
C2007  C     0.78971   0.72739   0.61066   0.00000  Uiso   1.00
C2008  C     0.75546   0.96517   0.82023   0.00000  Uiso   1.00
C2009  C     0.73108   0.93170   0.84962   0.00000  Uiso   1.00
C2010  C     0.84197   0.68649   0.86333   0.00000  Uiso   1.00
C2011  C     0.85822   0.71926   0.89847   0.00000  Uiso   1.00
C2012  C     0.90241   0.96799   0.66520   0.00000  Uiso   1.00
C2013  C     0.90370   0.98051   0.61553   0.00000  Uiso   1.00
C2014  C     0.68760   0.79119   0.75767   0.00000  Uiso   1.00
C2015  C     0.97920   0.87534   0.74561   0.00000  Uiso   1.00
C2016  C     0.97843   0.79213   0.76151   0.00000  Uiso   1.00
C2017  C     0.68813   0.87413   0.74031   0.00000  Uiso   1.00
C2018  C     0.95724   0.83376   0.75314   0.00000  Uiso   1.00
Cu2019 Cu    0.83333   0.88022   0.75000   0.00000  Uiso   1.00
Cu2020 Cu    0.83333   0.78645   0.75000   0.00000  Uiso   1.00
H2021  H     0.89974   0.82591   0.88840   0.00000  Uiso   1.00
H2022  H     0.98787   0.79202   0.90383   0.00000  Uiso   1.00
H2023  H     0.98812   0.85423   0.91001   0.00000  Uiso   1.00
H2024  H     0.96015   0.75377   0.51446   0.00000  Uiso   1.00
H2025  H     0.92833   0.74656   0.56403   0.00000  Uiso   1.00
H2026  H     0.98642   0.77284   0.61170   0.00000  Uiso   1.00
H2027  H     0.99970   0.72291   0.57897   0.00000  Uiso   1.00
H2028  H     0.68490   0.77969   0.56245   0.00000  Uiso   1.00
H2029  H     0.72578   0.69253   0.73073   0.00000  Uiso   1.00
H2030  H     0.71937   0.74343   0.69673   0.00000  Uiso   1.00
H2031  H     0.67498   0.71146   0.71806   0.00000  Uiso   1.00
H2032  H     0.76946   0.85067   0.61142   0.00000  Uiso   1.00
H2033  H     0.95140   0.92204   0.80872   0.00000  Uiso   1.00
H2034  H     0.94067   0.97269   0.77571   0.00000  Uiso   1.00
H2035  H     0.99296   0.95663   0.78417   0.00000  Uiso   1.00
H2036  H     0.93734   0.71469   0.82642   0.00000  Uiso   1.00
H2037  H     0.93953   0.77616   0.83378   0.00000  Uiso   1.00
H2038  H     0.98636   0.74195   0.83347   0.00000  Uiso   1.00
H2039  H     0.72446   0.88706   0.66590   0.00000  Uiso   1.00
H2040  H     0.72684   0.94881   0.67079   0.00000  Uiso   1.00
H2041  H     0.67761   0.92117   0.66685   0.00000  Uiso   1.00
H2042  H     0.77686   0.68730   0.66954   0.00000  Uiso   1.00
H2043  H     0.76976   0.84487   0.88692   0.00000  Uiso   1.00
H2044  H     0.81149   0.99409   0.63044   0.00000  Uiso   1.00
H2045  H     0.81603   0.73777   0.58919   0.00000  Uiso   1.00
H2046  H     0.76594   0.71075   0.58947   0.00000  Uiso   1.00
H2047  H     0.77608   0.75828   0.62629   0.00000  Uiso   1.00
H2048  H     0.74091   0.96631   0.78657   0.00000  Uiso   1.00
H2049  H     0.75374   0.66674   0.83536   0.00000  Uiso   1.00
H2050  H     0.74529   0.92928   0.88336   0.00000  Uiso   1.00
H2051  H     0.69919   0.94410   0.85329   0.00000  Uiso   1.00
H2052  H     0.73039   0.89686   0.83428   0.00000  Uiso   1.00
H2053  H     0.86871   0.66687   0.85034   0.00000  Uiso   1.00
H2054  H     0.89775   0.81999   0.61320   0.00000  Uiso   1.00
H2055  H     0.82060   0.99552   0.88061   0.00000  Uiso   1.00
H2056  H     0.83275   0.73984   0.91237   0.00000  Uiso   1.00
H2057  H     0.87268   0.69926   0.92616   0.00000  Uiso   1.00
H2058  H     0.88175   0.74223   0.88321   0.00000  Uiso   1.00
H2059  H     0.92356   0.93861   0.67026   0.00000  Uiso   1.00
H2060  H     0.91454   0.99770   0.68497   0.00000  Uiso   1.00
H2061  H     0.88512   0.67838   0.60846   0.00000  Uiso   1.00
H2062  H     0.93580   0.98796   0.60536   0.00000  Uiso   1.00
H2063  H     0.89175   0.95120   0.59542   0.00000  Uiso   1.00
H2064  H     0.73254   0.85817   0.54043   0.00000  Uiso   1.00
H2065  H     0.93625   0.81723   0.95948   0.00000  Uiso   1.00
H2066  H     0.68289   0.81181   0.97769   0.00000  Uiso   1.00
H2067  H     0.72187   0.78734   0.94206   0.00000  Uiso   1.00
H2068  H     0.69310   0.82682   0.87592   0.00000  Uiso   1.00
N2069  N     0.83333   0.95069   0.75000   0.00000  Uiso   1.00
N2070  N     0.83333   0.71598   0.75000   0.00000  Uiso   1.00
O2071  O     0.77321   0.87291   0.75000   0.00000  Uiso   1.00
O2072  O     0.94434   0.81468   0.54680   0.00000  Uiso   1.00
O2073  O     0.70768   0.74980   0.76540   0.00000  Uiso   1.00
O2074  O     0.95927   0.91696   0.73920   0.00000  Uiso   1.00
O2075  O     0.95776   0.75130   0.77151   0.00000  Uiso   1.00
O2076  O     0.70845   0.91445   0.72788   0.00000  Uiso   1.00
O2077  O     0.83814   0.71193   0.66997   0.00000  Uiso   1.00
O2078  O     0.79644   0.94999   0.81793   0.00000  Uiso   1.00
O2079  O     0.82073   0.71154   0.82930   0.00000  Uiso   1.00
O2080  O     0.86256   0.95264   0.67721   0.00000  Uiso   1.00
O2081  O     0.89345   0.79375   0.75001   0.00000  Uiso   1.00
O2082  O     0.89345   0.87291   0.75001   0.00000  Uiso   1.00
O2083  O     0.77321   0.79375   0.75000   0.00000  Uiso   1.00
O2084  O     0.83332   0.87293   0.68513   0.00000  Uiso   1.00
O2085  O     0.83334   0.79373   0.81487   0.00000  Uiso   1.00
O2086  O     0.83334   0.87293   0.81487   0.00000  Uiso   1.00
O2087  O     0.83332   0.79373   0.68513   0.00000  Uiso   1.00
O2088  O     0.72473   0.85960   0.95293   0.00000  Uiso   1.00
loop_
_geom_bond_atom_site_label_1
_geom_bond_atom_site_label_2
_geom_bond_distance
_geom_bond_site_symmetry_2
_ccdc_geom_bond_type
C1     O99     1.303   .     A
C1     C2      1.460   .     S
C1     O111    1.301   .     A
C2     C45     1.410   .     A
C2     C42     1.412   .     A
C3     O105    1.381   .     S
C3     N98     1.381   .     A
C3     C702    1.429   1_545 S
C4     O106    1.383   .     S
C4     N97     1.362   .     A
C4     C353    1.437   .     S
C5     N98     1.387   .     A
C5     O107    1.389   .     S
C5     C700    1.437   1_545 S
C6     N97     1.368   .     A
C6     O108    1.384   .     S
C6     C351    1.429   .     S
C7     O112    1.295   .     A
C7     O115    1.300   .     A
C7     C13     1.439   .     S
C8     O114    1.293   .     A
C8     O113    1.303   .     A
C8     C11     1.439   .     S
C9     H49     1.085   .     S
C9     C20     1.394   .     A
C9     C11     1.395   .     A
C10    C21     1.393   .     A
C10    H60     1.084   .     S
C10    C13     1.396   .     A
C11    C14     1.392   .     A
C12    O110    1.302   .     A
C12    O109    1.302   .     A
C12    C46     1.461   .     S
C13    C15     1.393   .     A
C14    H71     1.083   .     S
C14    C16     1.396   .     A
C15    C17     1.396   .     A
C15    H82     1.085   .     S
C16    C22     1.408   .     A
C16    C18     1.415   .     A
C17    C19     1.416   .     A
C17    C24     1.409   .     A
C18    C20     1.412   .     A
C18    C1063   1.401   .     S
C19    C21     1.413   .     A
C19    C1062   1.401   1_554 S
C20    C34     1.399   .     A
C21    C23     1.402   .     A
C22    O116    1.382   .     S
C22    C1067   1.398   .     S
C23    H92     1.084   .     S
C23    C1066   1.398   1_554 S
C24    O100    1.383   .     S
C24    C1078   1.399   1_554 S
C25    H94     1.112   .     S
C25    O116    1.412   .     S
C25    C26     1.522   .     S
C25    H95     1.117   .     S
C26    H96     1.111   .     S
C26    H282    1.110   1_455 S
C26    H283    1.111   1_455 S
C27    O100    1.412   .     S
C27    H52     1.114   .     S
C27    H53     1.116   .     S
C27    C28     1.522   .     S
C28    H55     1.111   .     S
C28    H54     1.111   .     S
C28    H172    1.111   .     S
C29    H59     1.112   .     S
C29    O101    1.412   .     S
C29    H57     1.108   .     S
C29    H58     1.114   .     S
C30    H62     1.109   .     S
C30    H63     1.110   .     S
C30    O102    1.410   .     S
C30    H61     1.115   .     S
C31    H66     1.112   .     S
C31    O103    1.409   .     S
C31    H65     1.113   .     S
C31    H64     1.109   .     S
C32    O104    1.410   .     S
C32    H68     1.109   .     S
C32    H67     1.113   .     S
C32    H69     1.113   .     S
C33    H70     1.116   .     S
C33    O105    1.422   .     S
C33    C35     1.518   .     S
C33    H768    1.111   1_545 S
C34    H93     1.080   .     S
C34    C1068   1.399   .     S
C35    H74     1.111   .     S
C35    H75     1.108   .     S
C35    H73     1.111   .     S
C36    C37     1.521   .     S
C36    H76     1.112   .     S
C36    O106    1.413   .     S
C36    H425    1.111   .     S
C37    H79     1.110   .     S
C37    H80     1.110   .     S
C37    H78     1.110   .     S
C38    C39     1.514   .     S
C38    O107    1.424   .     S
C38    H81     1.117   .     S
C38    H779    1.110   1_545 S
C39    H84     1.110   .     S
C39    H85     1.111   .     S
C39    H86     1.107   .     S
C40    H87     1.107   .     S
C40    C41     1.524   .     S
C40    O108    1.417   .     S
C40    H88     1.117   .     S
C41    H91     1.111   .     S
C41    H90     1.111   .     S
C41    H437    1.109   .     S
C42    O101    1.385   .     S
C42    C276    1.393   1_455 S
C43    O102    1.383   .     S
C43    C46     1.410   .     A
C43    C161    1.390   .     S
C44    O103    1.384   .     S
C44    C46     1.412   .     A
C44    C158    1.393   .     S
C45    O104    1.384   .     S
C45    C275    1.390   1_455 S
Cu47   O114    1.947   .     S
Cu47   O112    1.952   .     S
Cu47   O99     1.973   .     S
Cu47   Cu48    2.709   .     S
Cu47   O110    1.976   .     S
Cu47   N97     2.036   .     S
Cu48   O115    1.947   .     S
Cu48   O109    1.973   .     S
Cu48   N98     2.036   .     S
Cu48   O111    1.976   .     S
Cu48   O113    1.952   .     S
H50    C142    1.110   .     S
H51    C142    1.111   .     S
H56    C260    1.111   1_455 S
H72    C381    1.111   .     S
H77    C732    1.111   1_545 S
H83    C386    1.110   .     S
H89    C737    1.109   1_545 S
C117   O215    1.303   .     A
C117   C118    1.460   .     S
C117   O227    1.301   .     A
C118   C161    1.410   .     A
C118   C158    1.412   .     A
C119   O221    1.381   .     S
C119   N214    1.381   .     A
C119   C818    1.429   1_545 S
C120   O222    1.383   .     S
C120   N213    1.362   .     A
C120   C469    1.437   .     S
C121   N214    1.387   .     A
C121   O223    1.389   .     S
C121   C816    1.437   1_545 S
C122   N213    1.368   .     A
C122   O224    1.384   .     S
C122   C467    1.429   .     S
C123   O228    1.295   .     A
C123   O231    1.300   .     A
C123   C129    1.439   .     S
C124   O230    1.293   .     A
C124   O229    1.303   .     A
C124   C127    1.439   .     S
C125   H165    1.085   .     S
C125   C136    1.394   .     A
C125   C127    1.395   .     A
C126   C137    1.393   .     A
C126   H176    1.084   .     S
C126   C129    1.396   .     A
C127   C130    1.392   .     A
C128   O226    1.302   .     A
C128   O225    1.302   .     A
C128   C162    1.461   .     S
C129   C131    1.393   .     A
C130   H187    1.083   .     S
C130   C132    1.396   .     A
C131   C133    1.396   .     A
C131   H198    1.085   .     S
C132   C138    1.408   .     A
C132   C134    1.415   .     A
C133   C135    1.416   .     A
C133   C140    1.409   .     A
C134   C136    1.412   .     A
C134   C1179   1.401   .     S
C135   C137    1.413   .     A
C135   C1178   1.401   1_554 S
C136   C150    1.399   .     A
C137   C139    1.402   .     A
C138   O232    1.382   .     S
C138   C1183   1.398   .     S
C139   H208    1.084   .     S
C139   C1182   1.398   1_554 S
C140   O216    1.383   .     S
C140   C1194   1.399   1_554 S
C141   H210    1.112   .     S
C141   O232    1.412   .     S
C141   C142    1.522   .     S
C141   H211    1.117   .     S
C142   H212    1.111   .     S
C143   O216    1.412   .     S
C143   H168    1.114   .     S
C143   H169    1.116   .     S
C143   C144    1.522   .     S
C144   H171    1.111   .     S
C144   H170    1.111   .     S
C144   H288    1.111   .     S
C145   H175    1.112   .     S
C145   O217    1.412   .     S
C145   H173    1.108   .     S
C145   H174    1.114   .     S
C146   H178    1.109   .     S
C146   H179    1.110   .     S
C146   O218    1.410   .     S
C146   H177    1.115   .     S
C147   H182    1.112   .     S
C147   O219    1.409   .     S
C147   H181    1.113   .     S
C147   H180    1.109   .     S
C148   O220    1.410   .     S
C148   H184    1.109   .     S
C148   H183    1.113   .     S
C148   H185    1.113   .     S
C149   H186    1.116   .     S
C149   O221    1.422   .     S
C149   C151    1.518   .     S
C149   H884    1.111   1_545 S
C150   H209    1.080   .     S
C150   C1184   1.399   .     S
C151   H190    1.111   .     S
C151   H191    1.108   .     S
C151   H189    1.111   .     S
C152   C153    1.521   .     S
C152   H192    1.112   .     S
C152   O222    1.413   .     S
C152   H541    1.111   .     S
C153   H195    1.110   .     S
C153   H196    1.110   .     S
C153   H194    1.110   .     S
C154   C155    1.514   .     S
C154   O223    1.424   .     S
C154   H197    1.117   .     S
C154   H895    1.110   1_545 S
C155   H200    1.110   .     S
C155   H201    1.111   .     S
C155   H202    1.107   .     S
C156   H203    1.107   .     S
C156   C157    1.524   .     S
C156   O224    1.417   .     S
C156   H204    1.117   .     S
C157   H207    1.111   .     S
C157   H206    1.111   .     S
C157   H553    1.109   .     S
C158   O217    1.385   .     S
C159   O218    1.383   .     S
C159   C162    1.410   .     A
C159   C277    1.390   .     S
C160   O219    1.384   .     S
C160   C162    1.412   .     A
C160   C274    1.393   .     S
C161   O220    1.384   .     S
Cu163  O230    1.947   .     S
Cu163  O228    1.952   .     S
Cu163  O215    1.973   .     S
Cu163  Cu164   2.709   .     S
Cu163  O226    1.976   .     S
Cu163  N213    2.036   .     S
Cu164  O231    1.947   .     S
Cu164  O225    1.973   .     S
Cu164  N214    2.036   .     S
Cu164  O227    1.976   .     S
Cu164  O229    1.952   .     S
H166   C258    1.110   .     S
H167   C258    1.111   .     S
H188   C497    1.111   .     S
H193   C848    1.111   1_545 S
H199   C502    1.110   .     S
H205   C853    1.109   1_545 S
C233   O331    1.303   .     A
C233   C234    1.460   .     S
C233   O343    1.301   .     A
C234   C277    1.410   .     A
C234   C274    1.412   .     A
C235   O337    1.381   .     S
C235   N330    1.381   .     A
C235   C934    1.429   1_545 S
C236   O338    1.383   .     S
C236   N329    1.362   .     A
C236   C585    1.437   .     S
C237   N330    1.387   .     A
C237   O339    1.389   .     S
C237   C932    1.437   1_545 S
C238   N329    1.368   .     A
C238   O340    1.384   .     S
C238   C583    1.429   .     S
C239   O344    1.295   .     A
C239   O347    1.300   .     A
C239   C245    1.439   .     S
C240   O346    1.293   .     A
C240   O345    1.303   .     A
C240   C243    1.439   .     S
C241   H281    1.085   .     S
C241   C252    1.394   .     A
C241   C243    1.395   .     A
C242   C253    1.393   .     A
C242   H292    1.084   .     S
C242   C245    1.396   .     A
C243   C246    1.392   .     A
C244   O342    1.302   .     A
C244   O341    1.302   .     A
C244   C278    1.461   .     S
C245   C247    1.393   .     A
C246   H303    1.083   .     S
C246   C248    1.396   .     A
C247   C249    1.396   .     A
C247   H314    1.085   .     S
C248   C254    1.408   .     A
C248   C250    1.415   .     A
C249   C251    1.416   .     A
C249   C256    1.409   .     A
C250   C252    1.412   .     A
C250   C1295   1.401   .     S
C251   C253    1.413   .     A
C251   C1294   1.401   1_554 S
C252   C266    1.399   .     A
C253   C255    1.402   .     A
C254   O348    1.382   .     S
C254   C1299   1.398   .     S
C255   H324    1.084   .     S
C255   C1298   1.398   1_554 S
C256   O332    1.383   .     S
C256   C1310   1.399   1_554 S
C257   H326    1.112   .     S
C257   O348    1.412   .     S
C257   C258    1.522   .     S
C257   H327    1.117   .     S
C258   H328    1.111   .     S
C259   O332    1.412   .     S
C259   H284    1.114   .     S
C259   H285    1.116   .     S
C259   C260    1.522   .     S
C260   H287    1.111   .     S
C260   H286    1.111   .     S
C260   H56     1.111   1_655 S
C261   H291    1.112   .     S
C261   O333    1.412   .     S
C261   H289    1.108   .     S
C261   H290    1.114   .     S
C262   H294    1.109   .     S
C262   H295    1.110   .     S
C262   O334    1.410   .     S
C262   H293    1.115   .     S
C263   H298    1.112   .     S
C263   O335    1.409   .     S
C263   H297    1.113   .     S
C263   H296    1.109   .     S
C264   O336    1.410   .     S
C264   H300    1.109   .     S
C264   H299    1.113   .     S
C264   H301    1.113   .     S
C265   H302    1.116   .     S
C265   O337    1.422   .     S
C265   C267    1.518   .     S
C265   H1000   1.111   1_545 S
C266   H325    1.080   .     S
C266   C1300   1.399   .     S
C267   H306    1.111   .     S
C267   H307    1.108   .     S
C267   H305    1.111   .     S
C268   C269    1.521   .     S
C268   H308    1.112   .     S
C268   O338    1.413   .     S
C268   H657    1.111   .     S
C269   H311    1.110   .     S
C269   H312    1.110   .     S
C269   H310    1.110   .     S
C270   C271    1.514   .     S
C270   O339    1.424   .     S
C270   H313    1.117   .     S
C270   H1011   1.110   1_545 S
C271   H316    1.110   .     S
C271   H317    1.111   .     S
C271   H318    1.107   .     S
C272   H319    1.107   .     S
C272   C273    1.524   .     S
C272   O340    1.417   .     S
C272   H320    1.117   .     S
C273   H323    1.111   .     S
C273   H322    1.111   .     S
C273   H669    1.109   .     S
C274   O333    1.385   .     S
C275   O334    1.383   .     S
C275   C278    1.410   .     A
C275   C45     1.390   1_655 S
C276   O335    1.384   .     S
C276   C278    1.412   .     A
C276   C42     1.393   1_655 S
C277   O336    1.384   .     S
Cu279  O346    1.947   .     S
Cu279  O344    1.952   .     S
Cu279  O331    1.973   .     S
Cu279  Cu280   2.709   .     S
Cu279  O342    1.976   .     S
Cu279  N329    2.036   .     S
Cu280  O347    1.947   .     S
Cu280  O341    1.973   .     S
Cu280  N330    2.036   .     S
Cu280  O343    1.976   .     S
Cu280  O345    1.952   .     S
H282   C26     1.110   1_655 S
H283   C26     1.111   1_655 S
H304   C613    1.111   .     S
H309   C964    1.111   1_545 S
H315   C618    1.110   .     S
H321   C969    1.109   1_545 S
C349   O447    1.303   .     A
C349   C350    1.460   .     S
C349   O459    1.301   .     A
C350   C393    1.410   .     A
C350   C390    1.412   .     A
C351   O453    1.381   .     S
C351   N446    1.381   .     A
C352   O454    1.383   .     S
C352   N445    1.362   .     A
C352   C701    1.437   .     S
C353   N446    1.387   .     A
C353   O455    1.389   .     S
C354   N445    1.368   .     A
C354   O456    1.384   .     S
C354   C699    1.429   .     S
C355   O460    1.295   .     A
C355   O463    1.300   .     A
C355   C361    1.439   .     S
C356   O462    1.293   .     A
C356   O461    1.303   .     A
C356   C359    1.439   .     S
C357   H397    1.085   .     S
C357   C368    1.394   .     A
C357   C359    1.395   .     A
C358   C369    1.393   .     A
C358   H408    1.084   .     S
C358   C361    1.396   .     A
C359   C362    1.392   .     A
C360   O458    1.302   .     A
C360   O457    1.302   .     A
C360   C394    1.461   .     S
C361   C363    1.393   .     A
C362   H419    1.083   .     S
C362   C364    1.396   .     A
C363   C365    1.396   .     A
C363   H430    1.085   .     S
C364   C370    1.408   .     A
C364   C366    1.415   .     A
C365   C367    1.416   .     A
C365   C372    1.409   .     A
C366   C368    1.412   .     A
C366   C1411   1.401   .     S
C367   C369    1.413   .     A
C367   C1410   1.401   1_554 S
C368   C382    1.399   .     A
C369   C371    1.402   .     A
C370   O464    1.382   .     S
C370   C1415   1.398   .     S
C371   H440    1.084   .     S
C371   C1414   1.398   1_554 S
C372   O448    1.383   .     S
C372   C1426   1.399   1_554 S
C373   H442    1.112   .     S
C373   O464    1.412   .     S
C373   C374    1.522   .     S
C373   H443    1.117   .     S
C374   H444    1.111   .     S
C374   H630    1.110   1_455 S
C374   H631    1.111   1_455 S
C375   O448    1.412   .     S
C375   H400    1.114   .     S
C375   H401    1.116   .     S
C375   C376    1.522   .     S
C376   H403    1.111   .     S
C376   H402    1.111   .     S
C376   H520    1.111   .     S
C377   H407    1.112   .     S
C377   O449    1.412   .     S
C377   H405    1.108   .     S
C377   H406    1.114   .     S
C378   H410    1.109   .     S
C378   H411    1.110   .     S
C378   O450    1.410   .     S
C378   H409    1.115   .     S
C379   H414    1.112   .     S
C379   O451    1.409   .     S
C379   H413    1.113   .     S
C379   H412    1.109   .     S
C380   O452    1.410   .     S
C380   H416    1.109   .     S
C380   H415    1.113   .     S
C380   H417    1.113   .     S
C381   H418    1.116   .     S
C381   O453    1.422   .     S
C381   C383    1.518   .     S
C382   H441    1.080   .     S
C382   C1416   1.399   .     S
C383   H422    1.111   .     S
C383   H423    1.108   .     S
C383   H421    1.111   .     S
C384   C385    1.521   .     S
C384   H424    1.112   .     S
C384   O454    1.413   .     S
C384   H773    1.111   .     S
C385   H427    1.110   .     S
C385   H428    1.110   .     S
C385   H426    1.110   .     S
C386   C387    1.514   .     S
C386   O455    1.424   .     S
C386   H429    1.117   .     S
C387   H432    1.110   .     S
C387   H433    1.111   .     S
C387   H434    1.107   .     S
C388   H435    1.107   .     S
C388   C389    1.524   .     S
C388   O456    1.417   .     S
C388   H436    1.117   .     S
C389   H439    1.111   .     S
C389   H438    1.111   .     S
C389   H785    1.109   .     S
C390   O449    1.385   .     S
C390   C624    1.393   1_455 S
C391   O450    1.383   .     S
C391   C394    1.410   .     A
C391   C509    1.390   .     S
C392   O451    1.384   .     S
C392   C394    1.412   .     A
C392   C506    1.393   .     S
C393   O452    1.384   .     S
C393   C623    1.390   1_455 S
Cu395  O462    1.947   .     S
Cu395  O460    1.952   .     S
Cu395  O447    1.973   .     S
Cu395  Cu396   2.709   .     S
Cu395  O458    1.976   .     S
Cu395  N445    2.036   .     S
Cu396  O463    1.947   .     S
Cu396  O457    1.973   .     S
Cu396  N446    2.036   .     S
Cu396  O459    1.976   .     S
Cu396  O461    1.952   .     S
H398   C490    1.110   .     S
H399   C490    1.111   .     S
H404   C608    1.111   1_455 S
H420   C729    1.111   .     S
H431   C734    1.110   .     S
C465   O563    1.303   .     A
C465   C466    1.460   .     S
C465   O575    1.301   .     A
C466   C509    1.410   .     A
C466   C506    1.412   .     A
C467   O569    1.381   .     S
C467   N562    1.381   .     A
C468   O570    1.383   .     S
C468   N561    1.362   .     A
C468   C817    1.437   .     S
C469   N562    1.387   .     A
C469   O571    1.389   .     S
C470   N561    1.368   .     A
C470   O572    1.384   .     S
C470   C815    1.429   .     S
C471   O576    1.295   .     A
C471   O579    1.300   .     A
C471   C477    1.439   .     S
C472   O578    1.293   .     A
C472   O577    1.303   .     A
C472   C475    1.439   .     S
C473   H513    1.085   .     S
C473   C484    1.394   .     A
C473   C475    1.395   .     A
C474   C485    1.393   .     A
C474   H524    1.084   .     S
C474   C477    1.396   .     A
C475   C478    1.392   .     A
C476   O574    1.302   .     A
C476   O573    1.302   .     A
C476   C510    1.461   .     S
C477   C479    1.393   .     A
C478   H535    1.083   .     S
C478   C480    1.396   .     A
C479   C481    1.396   .     A
C479   H546    1.085   .     S
C480   C486    1.408   .     A
C480   C482    1.415   .     A
C481   C483    1.416   .     A
C481   C488    1.409   .     A
C482   C484    1.412   .     A
C482   C1527   1.401   .     S
C483   C485    1.413   .     A
C483   C1526   1.401   1_554 S
C484   C498    1.399   .     A
C485   C487    1.402   .     A
C486   O580    1.382   .     S
C486   C1531   1.398   .     S
C487   H556    1.084   .     S
C487   C1530   1.398   1_554 S
C488   O564    1.383   .     S
C488   C1542   1.399   1_554 S
C489   H558    1.112   .     S
C489   O580    1.412   .     S
C489   C490    1.522   .     S
C489   H559    1.117   .     S
C490   H560    1.111   .     S
C491   O564    1.412   .     S
C491   H516    1.114   .     S
C491   H517    1.116   .     S
C491   C492    1.522   .     S
C492   H519    1.111   .     S
C492   H518    1.111   .     S
C492   H636    1.111   .     S
C493   H523    1.112   .     S
C493   O565    1.412   .     S
C493   H521    1.108   .     S
C493   H522    1.114   .     S
C494   H526    1.109   .     S
C494   H527    1.110   .     S
C494   O566    1.410   .     S
C494   H525    1.115   .     S
C495   H530    1.112   .     S
C495   O567    1.409   .     S
C495   H529    1.113   .     S
C495   H528    1.109   .     S
C496   O568    1.410   .     S
C496   H532    1.109   .     S
C496   H531    1.113   .     S
C496   H533    1.113   .     S
C497   H534    1.116   .     S
C497   O569    1.422   .     S
C497   C499    1.518   .     S
C498   H557    1.080   .     S
C498   C1532   1.399   .     S
C499   H538    1.111   .     S
C499   H539    1.108   .     S
C499   H537    1.111   .     S
C500   C501    1.521   .     S
C500   H540    1.112   .     S
C500   O570    1.413   .     S
C500   H889    1.111   .     S
C501   H543    1.110   .     S
C501   H544    1.110   .     S
C501   H542    1.110   .     S
C502   C503    1.514   .     S
C502   O571    1.424   .     S
C502   H545    1.117   .     S
C503   H548    1.110   .     S
C503   H549    1.111   .     S
C503   H550    1.107   .     S
C504   H551    1.107   .     S
C504   C505    1.524   .     S
C504   O572    1.417   .     S
C504   H552    1.117   .     S
C505   H555    1.111   .     S
C505   H554    1.111   .     S
C505   H901    1.109   .     S
C506   O565    1.385   .     S
C507   O566    1.383   .     S
C507   C510    1.410   .     A
C507   C625    1.390   .     S
C508   O567    1.384   .     S
C508   C510    1.412   .     A
C508   C622    1.393   .     S
C509   O568    1.384   .     S
Cu511  O578    1.947   .     S
Cu511  O576    1.952   .     S
Cu511  O563    1.973   .     S
Cu511  Cu512   2.709   .     S
Cu511  O574    1.976   .     S
Cu511  N561    2.036   .     S
Cu512  O579    1.947   .     S
Cu512  O573    1.973   .     S
Cu512  N562    2.036   .     S
Cu512  O575    1.976   .     S
Cu512  O577    1.952   .     S
H514   C606    1.110   .     S
H515   C606    1.111   .     S
H536   C845    1.111   .     S
H547   C850    1.110   .     S
C581   O679    1.303   .     A
C581   C582    1.460   .     S
C581   O691    1.301   .     A
C582   C625    1.410   .     A
C582   C622    1.412   .     A
C583   O685    1.381   .     S
C583   N678    1.381   .     A
C584   O686    1.383   .     S
C584   N677    1.362   .     A
C584   C933    1.437   .     S
C585   N678    1.387   .     A
C585   O687    1.389   .     S
C586   N677    1.368   .     A
C586   O688    1.384   .     S
C586   C931    1.429   .     S
C587   O692    1.295   .     A
C587   O695    1.300   .     A
C587   C593    1.439   .     S
C588   O694    1.293   .     A
C588   O693    1.303   .     A
C588   C591    1.439   .     S
C589   H629    1.085   .     S
C589   C600    1.394   .     A
C589   C591    1.395   .     A
C590   C601    1.393   .     A
C590   H640    1.084   .     S
C590   C593    1.396   .     A
C591   C594    1.392   .     A
C592   O690    1.302   .     A
C592   O689    1.302   .     A
C592   C626    1.461   .     S
C593   C595    1.393   .     A
C594   H651    1.083   .     S
C594   C596    1.396   .     A
C595   C597    1.396   .     A
C595   H662    1.085   .     S
C596   C602    1.408   .     A
C596   C598    1.415   .     A
C597   C599    1.416   .     A
C597   C604    1.409   .     A
C598   C600    1.412   .     A
C598   C1643   1.401   .     S
C599   C601    1.413   .     A
C599   C1642   1.401   1_554 S
C600   C614    1.399   .     A
C601   C603    1.402   .     A
C602   O696    1.382   .     S
C602   C1647   1.398   .     S
C603   H672    1.084   .     S
C603   C1646   1.398   1_554 S
C604   O680    1.383   .     S
C604   C1658   1.399   1_554 S
C605   H674    1.112   .     S
C605   O696    1.412   .     S
C605   C606    1.522   .     S
C605   H675    1.117   .     S
C606   H676    1.111   .     S
C607   O680    1.412   .     S
C607   H632    1.114   .     S
C607   H633    1.116   .     S
C607   C608    1.522   .     S
C608   H635    1.111   .     S
C608   H634    1.111   .     S
C608   H404    1.111   1_655 S
C609   H639    1.112   .     S
C609   O681    1.412   .     S
C609   H637    1.108   .     S
C609   H638    1.114   .     S
C610   H642    1.109   .     S
C610   H643    1.110   .     S
C610   O682    1.410   .     S
C610   H641    1.115   .     S
C611   H646    1.112   .     S
C611   O683    1.409   .     S
C611   H645    1.113   .     S
C611   H644    1.109   .     S
C612   O684    1.410   .     S
C612   H648    1.109   .     S
C612   H647    1.113   .     S
C612   H649    1.113   .     S
C613   H650    1.116   .     S
C613   O685    1.422   .     S
C613   C615    1.518   .     S
C614   H673    1.080   .     S
C614   C1648   1.399   .     S
C615   H654    1.111   .     S
C615   H655    1.108   .     S
C615   H653    1.111   .     S
C616   C617    1.521   .     S
C616   H656    1.112   .     S
C616   O686    1.413   .     S
C616   H1005   1.111   .     S
C617   H659    1.110   .     S
C617   H660    1.110   .     S
C617   H658    1.110   .     S
C618   C619    1.514   .     S
C618   O687    1.424   .     S
C618   H661    1.117   .     S
C619   H664    1.110   .     S
C619   H665    1.111   .     S
C619   H666    1.107   .     S
C620   H667    1.107   .     S
C620   C621    1.524   .     S
C620   O688    1.417   .     S
C620   H668    1.117   .     S
C621   H671    1.111   .     S
C621   H670    1.111   .     S
C621   H1017   1.109   .     S
C622   O681    1.385   .     S
C623   O682    1.383   .     S
C623   C626    1.410   .     A
C623   C393    1.390   1_655 S
C624   O683    1.384   .     S
C624   C626    1.412   .     A
C624   C390    1.393   1_655 S
C625   O684    1.384   .     S
Cu627  O694    1.947   .     S
Cu627  O692    1.952   .     S
Cu627  O679    1.973   .     S
Cu627  Cu628   2.709   .     S
Cu627  O690    1.976   .     S
Cu627  N677    2.036   .     S
Cu628  O695    1.947   .     S
Cu628  O689    1.973   .     S
Cu628  N678    2.036   .     S
Cu628  O691    1.976   .     S
Cu628  O693    1.952   .     S
H630   C374    1.110   1_655 S
H631   C374    1.111   1_655 S
H652   C961    1.111   .     S
H663   C966    1.110   .     S
C697   O795    1.303   .     A
C697   C698    1.460   .     S
C697   O807    1.301   .     A
C698   C741    1.410   .     A
C698   C738    1.412   .     A
C699   O801    1.381   .     S
C699   N794    1.381   .     A
C700   O802    1.383   .     S
C700   N793    1.362   .     A
C700   C5      1.437   1_565 S
C701   N794    1.387   .     A
C701   O803    1.389   .     S
C702   N793    1.368   .     A
C702   O804    1.384   .     S
C702   C3      1.429   1_565 S
C703   O808    1.295   .     A
C703   O811    1.300   .     A
C703   C709    1.439   .     S
C704   O810    1.293   .     A
C704   O809    1.303   .     A
C704   C707    1.439   .     S
C705   H745    1.085   .     S
C705   C716    1.394   .     A
C705   C707    1.395   .     A
C706   C717    1.393   .     A
C706   H756    1.084   .     S
C706   C709    1.396   .     A
C707   C710    1.392   .     A
C708   O806    1.302   .     A
C708   O805    1.302   .     A
C708   C742    1.461   .     S
C709   C711    1.393   .     A
C710   H767    1.083   .     S
C710   C712    1.396   .     A
C711   C713    1.396   .     A
C711   H778    1.085   .     S
C712   C718    1.408   .     A
C712   C714    1.415   .     A
C713   C715    1.416   .     A
C713   C720    1.409   .     A
C714   C716    1.412   .     A
C714   C1759   1.401   .     S
C715   C717    1.413   .     A
C715   C1758   1.401   1_554 S
C716   C730    1.399   .     A
C717   C719    1.402   .     A
C718   O812    1.382   .     S
C718   C1763   1.398   .     S
C719   H788    1.084   .     S
C719   C1762   1.398   1_554 S
C720   O796    1.383   .     S
C720   C1774   1.399   1_554 S
C721   H790    1.112   .     S
C721   O812    1.412   .     S
C721   C722    1.522   .     S
C721   H791    1.117   .     S
C722   H792    1.111   .     S
C722   H978    1.110   1_455 S
C722   H979    1.111   1_455 S
C723   O796    1.412   .     S
C723   H748    1.114   .     S
C723   H749    1.116   .     S
C723   C724    1.522   .     S
C724   H751    1.111   .     S
C724   H750    1.111   .     S
C724   H868    1.111   .     S
C725   H755    1.112   .     S
C725   O797    1.412   .     S
C725   H753    1.108   .     S
C725   H754    1.114   .     S
C726   H758    1.109   .     S
C726   H759    1.110   .     S
C726   O798    1.410   .     S
C726   H757    1.115   .     S
C727   H762    1.112   .     S
C727   O799    1.409   .     S
C727   H761    1.113   .     S
C727   H760    1.109   .     S
C728   O800    1.410   .     S
C728   H764    1.109   .     S
C728   H763    1.113   .     S
C728   H765    1.113   .     S
C729   H766    1.116   .     S
C729   O801    1.422   .     S
C729   C731    1.518   .     S
C730   H789    1.080   .     S
C730   C1764   1.399   .     S
C731   H770    1.111   .     S
C731   H771    1.108   .     S
C731   H769    1.111   .     S
C732   C733    1.521   .     S
C732   H772    1.112   .     S
C732   O802    1.413   .     S
C732   H77     1.111   1_565 S
C733   H775    1.110   .     S
C733   H776    1.110   .     S
C733   H774    1.110   .     S
C734   C735    1.514   .     S
C734   O803    1.424   .     S
C734   H777    1.117   .     S
C735   H780    1.110   .     S
C735   H781    1.111   .     S
C735   H782    1.107   .     S
C736   H783    1.107   .     S
C736   C737    1.524   .     S
C736   O804    1.417   .     S
C736   H784    1.117   .     S
C737   H787    1.111   .     S
C737   H786    1.111   .     S
C737   H89     1.109   1_565 S
C738   O797    1.385   .     S
C738   C972    1.393   1_455 S
C739   O798    1.383   .     S
C739   C742    1.410   .     A
C739   C857    1.390   .     S
C740   O799    1.384   .     S
C740   C742    1.412   .     A
C740   C854    1.393   .     S
C741   O800    1.384   .     S
C741   C971    1.390   1_455 S
Cu743  O810    1.947   .     S
Cu743  O808    1.952   .     S
Cu743  O795    1.973   .     S
Cu743  Cu744   2.709   .     S
Cu743  O806    1.976   .     S
Cu743  N793    2.036   .     S
Cu744  O811    1.947   .     S
Cu744  O805    1.973   .     S
Cu744  N794    2.036   .     S
Cu744  O807    1.976   .     S
Cu744  O809    1.952   .     S
H746   C838    1.110   .     S
H747   C838    1.111   .     S
H752   C956    1.111   1_455 S
H768   C33     1.111   1_565 S
H779   C38     1.110   1_565 S
C813   O911    1.303   .     A
C813   C814    1.460   .     S
C813   O923    1.301   .     A
C814   C857    1.410   .     A
C814   C854    1.412   .     A
C815   O917    1.381   .     S
C815   N910    1.381   .     A
C816   O918    1.383   .     S
C816   N909    1.362   .     A
C816   C121    1.437   1_565 S
C817   N910    1.387   .     A
C817   O919    1.389   .     S
C818   N909    1.368   .     A
C818   O920    1.384   .     S
C818   C119    1.429   1_565 S
C819   O924    1.295   .     A
C819   O927    1.300   .     A
C819   C825    1.439   .     S
C820   O926    1.293   .     A
C820   O925    1.303   .     A
C820   C823    1.439   .     S
C821   H861    1.085   .     S
C821   C832    1.394   .     A
C821   C823    1.395   .     A
C822   C833    1.393   .     A
C822   H872    1.084   .     S
C822   C825    1.396   .     A
C823   C826    1.392   .     A
C824   O922    1.302   .     A
C824   O921    1.302   .     A
C824   C858    1.461   .     S
C825   C827    1.393   .     A
C826   H883    1.083   .     S
C826   C828    1.396   .     A
C827   C829    1.396   .     A
C827   H894    1.085   .     S
C828   C834    1.408   .     A
C828   C830    1.415   .     A
C829   C831    1.416   .     A
C829   C836    1.409   .     A
C830   C832    1.412   .     A
C830   C1875   1.401   .     S
C831   C833    1.413   .     A
C831   C1874   1.401   1_554 S
C832   C846    1.399   .     A
C833   C835    1.402   .     A
C834   O928    1.382   .     S
C834   C1879   1.398   .     S
C835   H904    1.084   .     S
C835   C1878   1.398   1_554 S
C836   O912    1.383   .     S
C836   C1890   1.399   1_554 S
C837   H906    1.112   .     S
C837   O928    1.412   .     S
C837   C838    1.522   .     S
C837   H907    1.117   .     S
C838   H908    1.111   .     S
C839   O912    1.412   .     S
C839   H864    1.114   .     S
C839   H865    1.116   .     S
C839   C840    1.522   .     S
C840   H867    1.111   .     S
C840   H866    1.111   .     S
C840   H984    1.111   .     S
C841   H871    1.112   .     S
C841   O913    1.412   .     S
C841   H869    1.108   .     S
C841   H870    1.114   .     S
C842   H874    1.109   .     S
C842   H875    1.110   .     S
C842   O914    1.410   .     S
C842   H873    1.115   .     S
C843   H878    1.112   .     S
C843   O915    1.409   .     S
C843   H877    1.113   .     S
C843   H876    1.109   .     S
C844   O916    1.410   .     S
C844   H880    1.109   .     S
C844   H879    1.113   .     S
C844   H881    1.113   .     S
C845   H882    1.116   .     S
C845   O917    1.422   .     S
C845   C847    1.518   .     S
C846   H905    1.080   .     S
C846   C1880   1.399   .     S
C847   H886    1.111   .     S
C847   H887    1.108   .     S
C847   H885    1.111   .     S
C848   C849    1.521   .     S
C848   H888    1.112   .     S
C848   O918    1.413   .     S
C848   H193    1.111   1_565 S
C849   H891    1.110   .     S
C849   H892    1.110   .     S
C849   H890    1.110   .     S
C850   C851    1.514   .     S
C850   O919    1.424   .     S
C850   H893    1.117   .     S
C851   H896    1.110   .     S
C851   H897    1.111   .     S
C851   H898    1.107   .     S
C852   H899    1.107   .     S
C852   C853    1.524   .     S
C852   O920    1.417   .     S
C852   H900    1.117   .     S
C853   H903    1.111   .     S
C853   H902    1.111   .     S
C853   H205    1.109   1_565 S
C854   O913    1.385   .     S
C855   O914    1.383   .     S
C855   C858    1.410   .     A
C855   C973    1.390   .     S
C856   O915    1.384   .     S
C856   C858    1.412   .     A
C856   C970    1.393   .     S
C857   O916    1.384   .     S
Cu859  O926    1.947   .     S
Cu859  O924    1.952   .     S
Cu859  O911    1.973   .     S
Cu859  Cu860   2.709   .     S
Cu859  O922    1.976   .     S
Cu859  N909    2.036   .     S
Cu860  O927    1.947   .     S
Cu860  O921    1.973   .     S
Cu860  N910    2.036   .     S
Cu860  O923    1.976   .     S
Cu860  O925    1.952   .     S
H862   C954    1.110   .     S
H863   C954    1.111   .     S
H884   C149    1.111   1_565 S
H895   C154    1.110   1_565 S
C929   O1027   1.303   .     A
C929   C930    1.460   .     S
C929   O1039   1.301   .     A
C930   C973    1.410   .     A
C930   C970    1.412   .     A
C931   O1033   1.381   .     S
C931   N1026   1.381   .     A
C932   O1034   1.383   .     S
C932   N1025   1.362   .     A
C932   C237    1.437   1_565 S
C933   N1026   1.387   .     A
C933   O1035   1.389   .     S
C934   N1025   1.368   .     A
C934   O1036   1.384   .     S
C934   C235    1.429   1_565 S
C935   O1040   1.295   .     A
C935   O1043   1.300   .     A
C935   C941    1.439   .     S
C936   O1042   1.293   .     A
C936   O1041   1.303   .     A
C936   C939    1.439   .     S
C937   H977    1.085   .     S
C937   C948    1.394   .     A
C937   C939    1.395   .     A
C938   C949    1.393   .     A
C938   H988    1.084   .     S
C938   C941    1.396   .     A
C939   C942    1.392   .     A
C940   O1038   1.302   .     A
C940   O1037   1.302   .     A
C940   C974    1.461   .     S
C941   C943    1.393   .     A
C942   H999    1.083   .     S
C942   C944    1.396   .     A
C943   C945    1.396   .     A
C943   H1010   1.085   .     S
C944   C950    1.408   .     A
C944   C946    1.415   .     A
C945   C947    1.416   .     A
C945   C952    1.409   .     A
C946   C948    1.412   .     A
C946   C1991   1.401   .     S
C947   C949    1.413   .     A
C947   C1990   1.401   1_554 S
C948   C962    1.399   .     A
C949   C951    1.402   .     A
C950   O1044   1.382   .     S
C950   C1995   1.398   .     S
C951   H1020   1.084   .     S
C951   C1994   1.398   1_554 S
C952   O1028   1.383   .     S
C952   C2006   1.399   1_554 S
C953   H1022   1.112   .     S
C953   O1044   1.412   .     S
C953   C954    1.522   .     S
C953   H1023   1.117   .     S
C954   H1024   1.111   .     S
C955   O1028   1.412   .     S
C955   H980    1.114   .     S
C955   H981    1.116   .     S
C955   C956    1.522   .     S
C956   H983    1.111   .     S
C956   H982    1.111   .     S
C956   H752    1.111   1_655 S
C957   H987    1.112   .     S
C957   O1029   1.412   .     S
C957   H985    1.108   .     S
C957   H986    1.114   .     S
C958   H990    1.109   .     S
C958   H991    1.110   .     S
C958   O1030   1.410   .     S
C958   H989    1.115   .     S
C959   H994    1.112   .     S
C959   O1031   1.409   .     S
C959   H993    1.113   .     S
C959   H992    1.109   .     S
C960   O1032   1.410   .     S
C960   H996    1.109   .     S
C960   H995    1.113   .     S
C960   H997    1.113   .     S
C961   H998    1.116   .     S
C961   O1033   1.422   .     S
C961   C963    1.518   .     S
C962   H1021   1.080   .     S
C962   C1996   1.399   .     S
C963   H1002   1.111   .     S
C963   H1003   1.108   .     S
C963   H1001   1.111   .     S
C964   C965    1.521   .     S
C964   H1004   1.112   .     S
C964   O1034   1.413   .     S
C964   H309    1.111   1_565 S
C965   H1007   1.110   .     S
C965   H1008   1.110   .     S
C965   H1006   1.110   .     S
C966   C967    1.514   .     S
C966   O1035   1.424   .     S
C966   H1009   1.117   .     S
C967   H1012   1.110   .     S
C967   H1013   1.111   .     S
C967   H1014   1.107   .     S
C968   H1015   1.107   .     S
C968   C969    1.524   .     S
C968   O1036   1.417   .     S
C968   H1016   1.117   .     S
C969   H1019   1.111   .     S
C969   H1018   1.111   .     S
C969   H321    1.109   1_565 S
C970   O1029   1.385   .     S
C971   O1030   1.383   .     S
C971   C974    1.410   .     A
C971   C741    1.390   1_655 S
C972   O1031   1.384   .     S
C972   C974    1.412   .     A
C972   C738    1.393   1_655 S
C973   O1032   1.384   .     S
Cu975  O1042   1.947   .     S
Cu975  O1040   1.952   .     S
Cu975  O1027   1.973   .     S
Cu975  Cu976   2.709   .     S
Cu975  O1038   1.976   .     S
Cu975  N1025   2.036   .     S
Cu976  O1043   1.947   .     S
Cu976  O1037   1.973   .     S
Cu976  N1026   2.036   .     S
Cu976  O1039   1.976   .     S
Cu976  O1041   1.952   .     S
H978   C722    1.110   1_655 S
H979   C722    1.111   1_655 S
H1000  C265    1.111   1_565 S
H1011  C270    1.110   1_565 S
C1045  O1143   1.303   .     A
C1045  C1046   1.460   .     S
C1045  O1155   1.301   .     A
C1046  C1089   1.410   .     A
C1046  C1086   1.412   .     A
C1047  O1149   1.381   .     S
C1047  N1142   1.381   .     A
C1047  C1746   1.429   1_545 S
C1048  O1150   1.383   .     S
C1048  N1141   1.362   .     A
C1048  C1397   1.437   .     S
C1049  N1142   1.387   .     A
C1049  O1151   1.389   .     S
C1049  C1744   1.437   1_545 S
C1050  N1141   1.368   .     A
C1050  O1152   1.384   .     S
C1050  C1395   1.429   .     S
C1051  O1156   1.295   .     A
C1051  O1159   1.300   .     A
C1051  C1057   1.439   .     S
C1052  O1158   1.293   .     A
C1052  O1157   1.303   .     A
C1052  C1055   1.439   .     S
C1053  H1093   1.085   .     S
C1053  C1064   1.394   .     A
C1053  C1055   1.395   .     A
C1054  C1065   1.393   .     A
C1054  H1104   1.084   .     S
C1054  C1057   1.396   .     A
C1055  C1058   1.392   .     A
C1056  O1154   1.302   .     A
C1056  O1153   1.302   .     A
C1056  C1090   1.461   .     S
C1057  C1059   1.393   .     A
C1058  H1115   1.083   .     S
C1058  C1060   1.396   .     A
C1059  C1061   1.396   .     A
C1059  H1126   1.085   .     S
C1060  C1066   1.408   .     A
C1060  C1062   1.415   .     A
C1061  C1063   1.416   .     A
C1061  C1068   1.409   .     A
C1062  C1064   1.412   .     A
C1062  C19     1.401   1_556 S
C1063  C1065   1.413   .     A
C1064  C1078   1.399   .     A
C1065  C1067   1.402   .     A
C1066  O1160   1.382   .     S
C1066  C23     1.398   1_556 S
C1067  H1136   1.084   .     S
C1068  O1144   1.383   .     S
C1069  H1138   1.112   .     S
C1069  O1160   1.412   .     S
C1069  C1070   1.522   .     S
C1069  H1139   1.117   .     S
C1070  H1140   1.111   .     S
C1070  H1326   1.110   1_455 S
C1070  H1327   1.111   1_455 S
C1071  O1144   1.412   .     S
C1071  H1096   1.114   .     S
C1071  H1097   1.116   .     S
C1071  C1072   1.522   .     S
C1072  H1099   1.111   .     S
C1072  H1098   1.111   .     S
C1072  H1216   1.111   .     S
C1073  H1103   1.112   .     S
C1073  O1145   1.412   .     S
C1073  H1101   1.108   .     S
C1073  H1102   1.114   .     S
C1074  H1106   1.109   .     S
C1074  H1107   1.110   .     S
C1074  O1146   1.410   .     S
C1074  H1105   1.115   .     S
C1075  H1110   1.112   .     S
C1075  O1147   1.409   .     S
C1075  H1109   1.113   .     S
C1075  H1108   1.109   .     S
C1076  O1148   1.410   .     S
C1076  H1112   1.109   .     S
C1076  H1111   1.113   .     S
C1076  H1113   1.113   .     S
C1077  H1114   1.116   .     S
C1077  O1149   1.422   .     S
C1077  C1079   1.518   .     S
C1077  H1812   1.111   1_545 S
C1078  H1137   1.080   .     S
C1078  C24     1.399   1_556 S
C1079  H1118   1.111   .     S
C1079  H1119   1.108   .     S
C1079  H1117   1.111   .     S
C1080  C1081   1.521   .     S
C1080  H1120   1.112   .     S
C1080  O1150   1.413   .     S
C1080  H1469   1.111   .     S
C1081  H1123   1.110   .     S
C1081  H1124   1.110   .     S
C1081  H1122   1.110   .     S
C1082  C1083   1.514   .     S
C1082  O1151   1.424   .     S
C1082  H1125   1.117   .     S
C1082  H1823   1.110   1_545 S
C1083  H1128   1.110   .     S
C1083  H1129   1.111   .     S
C1083  H1130   1.107   .     S
C1084  H1131   1.107   .     S
C1084  C1085   1.524   .     S
C1084  O1152   1.417   .     S
C1084  H1132   1.117   .     S
C1085  H1135   1.111   .     S
C1085  H1134   1.111   .     S
C1085  H1481   1.109   .     S
C1086  O1145   1.385   .     S
C1086  C1320   1.393   1_455 S
C1087  O1146   1.383   .     S
C1087  C1090   1.410   .     A
C1087  C1205   1.390   .     S
C1088  O1147   1.384   .     S
C1088  C1090   1.412   .     A
C1088  C1202   1.393   .     S
C1089  O1148   1.384   .     S
C1089  C1319   1.390   1_455 S
Cu1091 O1158   1.947   .     S
Cu1091 O1156   1.952   .     S
Cu1091 O1143   1.973   .     S
Cu1091 Cu1092  2.709   .     S
Cu1091 O1154   1.976   .     S
Cu1091 N1141   2.036   .     S
Cu1092 O1159   1.947   .     S
Cu1092 O1153   1.973   .     S
Cu1092 N1142   2.036   .     S
Cu1092 O1155   1.976   .     S
Cu1092 O1157   1.952   .     S
H1094  C1186   1.110   .     S
H1095  C1186   1.111   .     S
H1100  C1304   1.111   1_455 S
H1116  C1425   1.111   .     S
H1121  C1776   1.111   1_545 S
H1127  C1430   1.110   .     S
H1133  C1781   1.109   1_545 S
C1161  O1259   1.303   .     A
C1161  C1162   1.460   .     S
C1161  O1271   1.301   .     A
C1162  C1205   1.410   .     A
C1162  C1202   1.412   .     A
C1163  O1265   1.381   .     S
C1163  N1258   1.381   .     A
C1163  C1862   1.429   1_545 S
C1164  O1266   1.383   .     S
C1164  N1257   1.362   .     A
C1164  C1513   1.437   .     S
C1165  N1258   1.387   .     A
C1165  O1267   1.389   .     S
C1165  C1860   1.437   1_545 S
C1166  N1257   1.368   .     A
C1166  O1268   1.384   .     S
C1166  C1511   1.429   .     S
C1167  O1272   1.295   .     A
C1167  O1275   1.300   .     A
C1167  C1173   1.439   .     S
C1168  O1274   1.293   .     A
C1168  O1273   1.303   .     A
C1168  C1171   1.439   .     S
C1169  H1209   1.085   .     S
C1169  C1180   1.394   .     A
C1169  C1171   1.395   .     A
C1170  C1181   1.393   .     A
C1170  H1220   1.084   .     S
C1170  C1173   1.396   .     A
C1171  C1174   1.392   .     A
C1172  O1270   1.302   .     A
C1172  O1269   1.302   .     A
C1172  C1206   1.461   .     S
C1173  C1175   1.393   .     A
C1174  H1231   1.083   .     S
C1174  C1176   1.396   .     A
C1175  C1177   1.396   .     A
C1175  H1242   1.085   .     S
C1176  C1182   1.408   .     A
C1176  C1178   1.415   .     A
C1177  C1179   1.416   .     A
C1177  C1184   1.409   .     A
C1178  C1180   1.412   .     A
C1178  C135    1.401   1_556 S
C1179  C1181   1.413   .     A
C1180  C1194   1.399   .     A
C1181  C1183   1.402   .     A
C1182  O1276   1.382   .     S
C1182  C139    1.398   1_556 S
C1183  H1252   1.084   .     S
C1184  O1260   1.383   .     S
C1185  H1254   1.112   .     S
C1185  O1276   1.412   .     S
C1185  C1186   1.522   .     S
C1185  H1255   1.117   .     S
C1186  H1256   1.111   .     S
C1187  O1260   1.412   .     S
C1187  H1212   1.114   .     S
C1187  H1213   1.116   .     S
C1187  C1188   1.522   .     S
C1188  H1215   1.111   .     S
C1188  H1214   1.111   .     S
C1188  H1332   1.111   .     S
C1189  H1219   1.112   .     S
C1189  O1261   1.412   .     S
C1189  H1217   1.108   .     S
C1189  H1218   1.114   .     S
C1190  H1222   1.109   .     S
C1190  H1223   1.110   .     S
C1190  O1262   1.410   .     S
C1190  H1221   1.115   .     S
C1191  H1226   1.112   .     S
C1191  O1263   1.409   .     S
C1191  H1225   1.113   .     S
C1191  H1224   1.109   .     S
C1192  O1264   1.410   .     S
C1192  H1228   1.109   .     S
C1192  H1227   1.113   .     S
C1192  H1229   1.113   .     S
C1193  H1230   1.116   .     S
C1193  O1265   1.422   .     S
C1193  C1195   1.518   .     S
C1193  H1928   1.111   1_545 S
C1194  H1253   1.080   .     S
C1194  C140    1.399   1_556 S
C1195  H1234   1.111   .     S
C1195  H1235   1.108   .     S
C1195  H1233   1.111   .     S
C1196  C1197   1.521   .     S
C1196  H1236   1.112   .     S
C1196  O1266   1.413   .     S
C1196  H1585   1.111   .     S
C1197  H1239   1.110   .     S
C1197  H1240   1.110   .     S
C1197  H1238   1.110   .     S
C1198  C1199   1.514   .     S
C1198  O1267   1.424   .     S
C1198  H1241   1.117   .     S
C1198  H1939   1.110   1_545 S
C1199  H1244   1.110   .     S
C1199  H1245   1.111   .     S
C1199  H1246   1.107   .     S
C1200  H1247   1.107   .     S
C1200  C1201   1.524   .     S
C1200  O1268   1.417   .     S
C1200  H1248   1.117   .     S
C1201  H1251   1.111   .     S
C1201  H1250   1.111   .     S
C1201  H1597   1.109   .     S
C1202  O1261   1.385   .     S
C1203  O1262   1.383   .     S
C1203  C1206   1.410   .     A
C1203  C1321   1.390   .     S
C1204  O1263   1.384   .     S
C1204  C1206   1.412   .     A
C1204  C1318   1.393   .     S
C1205  O1264   1.384   .     S
Cu1207 O1274   1.947   .     S
Cu1207 O1272   1.952   .     S
Cu1207 O1259   1.973   .     S
Cu1207 Cu1208  2.709   .     S
Cu1207 O1270   1.976   .     S
Cu1207 N1257   2.036   .     S
Cu1208 O1275   1.947   .     S
Cu1208 O1269   1.973   .     S
Cu1208 N1258   2.036   .     S
Cu1208 O1271   1.976   .     S
Cu1208 O1273   1.952   .     S
H1210  C1302   1.110   .     S
H1211  C1302   1.111   .     S
H1232  C1541   1.111   .     S
H1237  C1892   1.111   1_545 S
H1243  C1546   1.110   .     S
H1249  C1897   1.109   1_545 S
C1277  O1375   1.303   .     A
C1277  C1278   1.460   .     S
C1277  O1387   1.301   .     A
C1278  C1321   1.410   .     A
C1278  C1318   1.412   .     A
C1279  O1381   1.381   .     S
C1279  N1374   1.381   .     A
C1279  C1978   1.429   1_545 S
C1280  O1382   1.383   .     S
C1280  N1373   1.362   .     A
C1280  C1629   1.437   .     S
C1281  N1374   1.387   .     A
C1281  O1383   1.389   .     S
C1281  C1976   1.437   1_545 S
C1282  N1373   1.368   .     A
C1282  O1384   1.384   .     S
C1282  C1627   1.429   .     S
C1283  O1388   1.295   .     A
C1283  O1391   1.300   .     A
C1283  C1289   1.439   .     S
C1284  O1390   1.293   .     A
C1284  O1389   1.303   .     A
C1284  C1287   1.439   .     S
C1285  H1325   1.085   .     S
C1285  C1296   1.394   .     A
C1285  C1287   1.395   .     A
C1286  C1297   1.393   .     A
C1286  H1336   1.084   .     S
C1286  C1289   1.396   .     A
C1287  C1290   1.392   .     A
C1288  O1386   1.302   .     A
C1288  O1385   1.302   .     A
C1288  C1322   1.461   .     S
C1289  C1291   1.393   .     A
C1290  H1347   1.083   .     S
C1290  C1292   1.396   .     A
C1291  C1293   1.396   .     A
C1291  H1358   1.085   .     S
C1292  C1298   1.408   .     A
C1292  C1294   1.415   .     A
C1293  C1295   1.416   .     A
C1293  C1300   1.409   .     A
C1294  C1296   1.412   .     A
C1294  C251    1.401   1_556 S
C1295  C1297   1.413   .     A
C1296  C1310   1.399   .     A
C1297  C1299   1.402   .     A
C1298  O1392   1.382   .     S
C1298  C255    1.398   1_556 S
C1299  H1368   1.084   .     S
C1300  O1376   1.383   .     S
C1301  H1370   1.112   .     S
C1301  O1392   1.412   .     S
C1301  C1302   1.522   .     S
C1301  H1371   1.117   .     S
C1302  H1372   1.111   .     S
C1303  O1376   1.412   .     S
C1303  H1328   1.114   .     S
C1303  H1329   1.116   .     S
C1303  C1304   1.522   .     S
C1304  H1331   1.111   .     S
C1304  H1330   1.111   .     S
C1304  H1100   1.111   1_655 S
C1305  H1335   1.112   .     S
C1305  O1377   1.412   .     S
C1305  H1333   1.108   .     S
C1305  H1334   1.114   .     S
C1306  H1338   1.109   .     S
C1306  H1339   1.110   .     S
C1306  O1378   1.410   .     S
C1306  H1337   1.115   .     S
C1307  H1342   1.112   .     S
C1307  O1379   1.409   .     S
C1307  H1341   1.113   .     S
C1307  H1340   1.109   .     S
C1308  O1380   1.410   .     S
C1308  H1344   1.109   .     S
C1308  H1343   1.113   .     S
C1308  H1345   1.113   .     S
C1309  H1346   1.116   .     S
C1309  O1381   1.422   .     S
C1309  C1311   1.518   .     S
C1309  H2044   1.111   1_545 S
C1310  H1369   1.080   .     S
C1310  C256    1.399   1_556 S
C1311  H1350   1.111   .     S
C1311  H1351   1.108   .     S
C1311  H1349   1.111   .     S
C1312  C1313   1.521   .     S
C1312  H1352   1.112   .     S
C1312  O1382   1.413   .     S
C1312  H1701   1.111   .     S
C1313  H1355   1.110   .     S
C1313  H1356   1.110   .     S
C1313  H1354   1.110   .     S
C1314  C1315   1.514   .     S
C1314  O1383   1.424   .     S
C1314  H1357   1.117   .     S
C1314  H2055   1.110   1_545 S
C1315  H1360   1.110   .     S
C1315  H1361   1.111   .     S
C1315  H1362   1.107   .     S
C1316  H1363   1.107   .     S
C1316  C1317   1.524   .     S
C1316  O1384   1.417   .     S
C1316  H1364   1.117   .     S
C1317  H1367   1.111   .     S
C1317  H1366   1.111   .     S
C1317  H1713   1.109   .     S
C1318  O1377   1.385   .     S
C1319  O1378   1.383   .     S
C1319  C1322   1.410   .     A
C1319  C1089   1.390   1_655 S
C1320  O1379   1.384   .     S
C1320  C1322   1.412   .     A
C1320  C1086   1.393   1_655 S
C1321  O1380   1.384   .     S
Cu1323 O1390   1.947   .     S
Cu1323 O1388   1.952   .     S
Cu1323 O1375   1.973   .     S
Cu1323 Cu1324  2.709   .     S
Cu1323 O1386   1.976   .     S
Cu1323 N1373   2.036   .     S
Cu1324 O1391   1.947   .     S
Cu1324 O1385   1.973   .     S
Cu1324 N1374   2.036   .     S
Cu1324 O1387   1.976   .     S
Cu1324 O1389   1.952   .     S
H1326  C1070   1.110   1_655 S
H1327  C1070   1.111   1_655 S
H1348  C1657   1.111   .     S
H1353  C2008   1.111   1_545 S
H1359  C1662   1.110   .     S
H1365  C2013   1.109   1_545 S
C1393  O1491   1.303   .     A
C1393  C1394   1.460   .     S
C1393  O1503   1.301   .     A
C1394  C1437   1.410   .     A
C1394  C1434   1.412   .     A
C1395  O1497   1.381   .     S
C1395  N1490   1.381   .     A
C1396  O1498   1.383   .     S
C1396  N1489   1.362   .     A
C1396  C1745   1.437   .     S
C1397  N1490   1.387   .     A
C1397  O1499   1.389   .     S
C1398  N1489   1.368   .     A
C1398  O1500   1.384   .     S
C1398  C1743   1.429   .     S
C1399  O1504   1.295   .     A
C1399  O1507   1.300   .     A
C1399  C1405   1.439   .     S
C1400  O1506   1.293   .     A
C1400  O1505   1.303   .     A
C1400  C1403   1.439   .     S
C1401  H1441   1.085   .     S
C1401  C1412   1.394   .     A
C1401  C1403   1.395   .     A
C1402  C1413   1.393   .     A
C1402  H1452   1.084   .     S
C1402  C1405   1.396   .     A
C1403  C1406   1.392   .     A
C1404  O1502   1.302   .     A
C1404  O1501   1.302   .     A
C1404  C1438   1.461   .     S
C1405  C1407   1.393   .     A
C1406  H1463   1.083   .     S
C1406  C1408   1.396   .     A
C1407  C1409   1.396   .     A
C1407  H1474   1.085   .     S
C1408  C1414   1.408   .     A
C1408  C1410   1.415   .     A
C1409  C1411   1.416   .     A
C1409  C1416   1.409   .     A
C1410  C1412   1.412   .     A
C1410  C367    1.401   1_556 S
C1411  C1413   1.413   .     A
C1412  C1426   1.399   .     A
C1413  C1415   1.402   .     A
C1414  O1508   1.382   .     S
C1414  C371    1.398   1_556 S
C1415  H1484   1.084   .     S
C1416  O1492   1.383   .     S
C1417  H1486   1.112   .     S
C1417  O1508   1.412   .     S
C1417  C1418   1.522   .     S
C1417  H1487   1.117   .     S
C1418  H1488   1.111   .     S
C1418  H1674   1.110   1_455 S
C1418  H1675   1.111   1_455 S
C1419  O1492   1.412   .     S
C1419  H1444   1.114   .     S
C1419  H1445   1.116   .     S
C1419  C1420   1.522   .     S
C1420  H1447   1.111   .     S
C1420  H1446   1.111   .     S
C1420  H1564   1.111   .     S
C1421  H1451   1.112   .     S
C1421  O1493   1.412   .     S
C1421  H1449   1.108   .     S
C1421  H1450   1.114   .     S
C1422  H1454   1.109   .     S
C1422  H1455   1.110   .     S
C1422  O1494   1.410   .     S
C1422  H1453   1.115   .     S
C1423  H1458   1.112   .     S
C1423  O1495   1.409   .     S
C1423  H1457   1.113   .     S
C1423  H1456   1.109   .     S
C1424  O1496   1.410   .     S
C1424  H1460   1.109   .     S
C1424  H1459   1.113   .     S
C1424  H1461   1.113   .     S
C1425  H1462   1.116   .     S
C1425  O1497   1.422   .     S
C1425  C1427   1.518   .     S
C1426  H1485   1.080   .     S
C1426  C372    1.399   1_556 S
C1427  H1466   1.111   .     S
C1427  H1467   1.108   .     S
C1427  H1465   1.111   .     S
C1428  C1429   1.521   .     S
C1428  H1468   1.112   .     S
C1428  O1498   1.413   .     S
C1428  H1817   1.111   .     S
C1429  H1471   1.110   .     S
C1429  H1472   1.110   .     S
C1429  H1470   1.110   .     S
C1430  C1431   1.514   .     S
C1430  O1499   1.424   .     S
C1430  H1473   1.117   .     S
C1431  H1476   1.110   .     S
C1431  H1477   1.111   .     S
C1431  H1478   1.107   .     S
C1432  H1479   1.107   .     S
C1432  C1433   1.524   .     S
C1432  O1500   1.417   .     S
C1432  H1480   1.117   .     S
C1433  H1483   1.111   .     S
C1433  H1482   1.111   .     S
C1433  H1829   1.109   .     S
C1434  O1493   1.385   .     S
C1434  C1668   1.393   1_455 S
C1435  O1494   1.383   .     S
C1435  C1438   1.410   .     A
C1435  C1553   1.390   .     S
C1436  O1495   1.384   .     S
C1436  C1438   1.412   .     A
C1436  C1550   1.393   .     S
C1437  O1496   1.384   .     S
C1437  C1667   1.390   1_455 S
Cu1439 O1506   1.947   .     S
Cu1439 O1504   1.952   .     S
Cu1439 O1491   1.973   .     S
Cu1439 Cu1440  2.709   .     S
Cu1439 O1502   1.976   .     S
Cu1439 N1489   2.036   .     S
Cu1440 O1507   1.947   .     S
Cu1440 O1501   1.973   .     S
Cu1440 N1490   2.036   .     S
Cu1440 O1503   1.976   .     S
Cu1440 O1505   1.952   .     S
H1442  C1534   1.110   .     S
H1443  C1534   1.111   .     S
H1448  C1652   1.111   1_455 S
H1464  C1773   1.111   .     S
H1475  C1778   1.110   .     S
C1509  O1607   1.303   .     A
C1509  C1510   1.460   .     S
C1509  O1619   1.301   .     A
C1510  C1553   1.410   .     A
C1510  C1550   1.412   .     A
C1511  O1613   1.381   .     S
C1511  N1606   1.381   .     A
C1512  O1614   1.383   .     S
C1512  N1605   1.362   .     A
C1512  C1861   1.437   .     S
C1513  N1606   1.387   .     A
C1513  O1615   1.389   .     S
C1514  N1605   1.368   .     A
C1514  O1616   1.384   .     S
C1514  C1859   1.429   .     S
C1515  O1620   1.295   .     A
C1515  O1623   1.300   .     A
C1515  C1521   1.439   .     S
C1516  O1622   1.293   .     A
C1516  O1621   1.303   .     A
C1516  C1519   1.439   .     S
C1517  H1557   1.085   .     S
C1517  C1528   1.394   .     A
C1517  C1519   1.395   .     A
C1518  C1529   1.393   .     A
C1518  H1568   1.084   .     S
C1518  C1521   1.396   .     A
C1519  C1522   1.392   .     A
C1520  O1618   1.302   .     A
C1520  O1617   1.302   .     A
C1520  C1554   1.461   .     S
C1521  C1523   1.393   .     A
C1522  H1579   1.083   .     S
C1522  C1524   1.396   .     A
C1523  C1525   1.396   .     A
C1523  H1590   1.085   .     S
C1524  C1530   1.408   .     A
C1524  C1526   1.415   .     A
C1525  C1527   1.416   .     A
C1525  C1532   1.409   .     A
C1526  C1528   1.412   .     A
C1526  C483    1.401   1_556 S
C1527  C1529   1.413   .     A
C1528  C1542   1.399   .     A
C1529  C1531   1.402   .     A
C1530  O1624   1.382   .     S
C1530  C487    1.398   1_556 S
C1531  H1600   1.084   .     S
C1532  O1608   1.383   .     S
C1533  H1602   1.112   .     S
C1533  O1624   1.412   .     S
C1533  C1534   1.522   .     S
C1533  H1603   1.117   .     S
C1534  H1604   1.111   .     S
C1535  O1608   1.412   .     S
C1535  H1560   1.114   .     S
C1535  H1561   1.116   .     S
C1535  C1536   1.522   .     S
C1536  H1563   1.111   .     S
C1536  H1562   1.111   .     S
C1536  H1680   1.111   .     S
C1537  H1567   1.112   .     S
C1537  O1609   1.412   .     S
C1537  H1565   1.108   .     S
C1537  H1566   1.114   .     S
C1538  H1570   1.109   .     S
C1538  H1571   1.110   .     S
C1538  O1610   1.410   .     S
C1538  H1569   1.115   .     S
C1539  H1574   1.112   .     S
C1539  O1611   1.409   .     S
C1539  H1573   1.113   .     S
C1539  H1572   1.109   .     S
C1540  O1612   1.410   .     S
C1540  H1576   1.109   .     S
C1540  H1575   1.113   .     S
C1540  H1577   1.113   .     S
C1541  H1578   1.116   .     S
C1541  O1613   1.422   .     S
C1541  C1543   1.518   .     S
C1542  H1601   1.080   .     S
C1542  C488    1.399   1_556 S
C1543  H1582   1.111   .     S
C1543  H1583   1.108   .     S
C1543  H1581   1.111   .     S
C1544  C1545   1.521   .     S
C1544  H1584   1.112   .     S
C1544  O1614   1.413   .     S
C1544  H1933   1.111   .     S
C1545  H1587   1.110   .     S
C1545  H1588   1.110   .     S
C1545  H1586   1.110   .     S
C1546  C1547   1.514   .     S
C1546  O1615   1.424   .     S
C1546  H1589   1.117   .     S
C1547  H1592   1.110   .     S
C1547  H1593   1.111   .     S
C1547  H1594   1.107   .     S
C1548  H1595   1.107   .     S
C1548  C1549   1.524   .     S
C1548  O1616   1.417   .     S
C1548  H1596   1.117   .     S
C1549  H1599   1.111   .     S
C1549  H1598   1.111   .     S
C1549  H1945   1.109   .     S
C1550  O1609   1.385   .     S
C1551  O1610   1.383   .     S
C1551  C1554   1.410   .     A
C1551  C1669   1.390   .     S
C1552  O1611   1.384   .     S
C1552  C1554   1.412   .     A
C1552  C1666   1.393   .     S
C1553  O1612   1.384   .     S
Cu1555 O1622   1.947   .     S
Cu1555 O1620   1.952   .     S
Cu1555 O1607   1.973   .     S
Cu1555 Cu1556  2.709   .     S
Cu1555 O1618   1.976   .     S
Cu1555 N1605   2.036   .     S
Cu1556 O1623   1.947   .     S
Cu1556 O1617   1.973   .     S
Cu1556 N1606   2.036   .     S
Cu1556 O1619   1.976   .     S
Cu1556 O1621   1.952   .     S
H1558  C1650   1.110   .     S
H1559  C1650   1.111   .     S
H1580  C1889   1.111   .     S
H1591  C1894   1.110   .     S
C1625  O1723   1.303   .     A
C1625  C1626   1.460   .     S
C1625  O1735   1.301   .     A
C1626  C1669   1.410   .     A
C1626  C1666   1.412   .     A
C1627  O1729   1.381   .     S
C1627  N1722   1.381   .     A
C1628  O1730   1.383   .     S
C1628  N1721   1.362   .     A
C1628  C1977   1.437   .     S
C1629  N1722   1.387   .     A
C1629  O1731   1.389   .     S
C1630  N1721   1.368   .     A
C1630  O1732   1.384   .     S
C1630  C1975   1.429   .     S
C1631  O1736   1.295   .     A
C1631  O1739   1.300   .     A
C1631  C1637   1.439   .     S
C1632  O1738   1.293   .     A
C1632  O1737   1.303   .     A
C1632  C1635   1.439   .     S
C1633  H1673   1.085   .     S
C1633  C1644   1.394   .     A
C1633  C1635   1.395   .     A
C1634  C1645   1.393   .     A
C1634  H1684   1.084   .     S
C1634  C1637   1.396   .     A
C1635  C1638   1.392   .     A
C1636  O1734   1.302   .     A
C1636  O1733   1.302   .     A
C1636  C1670   1.461   .     S
C1637  C1639   1.393   .     A
C1638  H1695   1.083   .     S
C1638  C1640   1.396   .     A
C1639  C1641   1.396   .     A
C1639  H1706   1.085   .     S
C1640  C1646   1.408   .     A
C1640  C1642   1.415   .     A
C1641  C1643   1.416   .     A
C1641  C1648   1.409   .     A
C1642  C1644   1.412   .     A
C1642  C599    1.401   1_556 S
C1643  C1645   1.413   .     A
C1644  C1658   1.399   .     A
C1645  C1647   1.402   .     A
C1646  O1740   1.382   .     S
C1646  C603    1.398   1_556 S
C1647  H1716   1.084   .     S
C1648  O1724   1.383   .     S
C1649  H1718   1.112   .     S
C1649  O1740   1.412   .     S
C1649  C1650   1.522   .     S
C1649  H1719   1.117   .     S
C1650  H1720   1.111   .     S
C1651  O1724   1.412   .     S
C1651  H1676   1.114   .     S
C1651  H1677   1.116   .     S
C1651  C1652   1.522   .     S
C1652  H1679   1.111   .     S
C1652  H1678   1.111   .     S
C1652  H1448   1.111   1_655 S
C1653  H1683   1.112   .     S
C1653  O1725   1.412   .     S
C1653  H1681   1.108   .     S
C1653  H1682   1.114   .     S
C1654  H1686   1.109   .     S
C1654  H1687   1.110   .     S
C1654  O1726   1.410   .     S
C1654  H1685   1.115   .     S
C1655  H1690   1.112   .     S
C1655  O1727   1.409   .     S
C1655  H1689   1.113   .     S
C1655  H1688   1.109   .     S
C1656  O1728   1.410   .     S
C1656  H1692   1.109   .     S
C1656  H1691   1.113   .     S
C1656  H1693   1.113   .     S
C1657  H1694   1.116   .     S
C1657  O1729   1.422   .     S
C1657  C1659   1.518   .     S
C1658  H1717   1.080   .     S
C1658  C604    1.399   1_556 S
C1659  H1698   1.111   .     S
C1659  H1699   1.108   .     S
C1659  H1697   1.111   .     S
C1660  C1661   1.521   .     S
C1660  H1700   1.112   .     S
C1660  O1730   1.413   .     S
C1660  H2049   1.111   .     S
C1661  H1703   1.110   .     S
C1661  H1704   1.110   .     S
C1661  H1702   1.110   .     S
C1662  C1663   1.514   .     S
C1662  O1731   1.424   .     S
C1662  H1705   1.117   .     S
C1663  H1708   1.110   .     S
C1663  H1709   1.111   .     S
C1663  H1710   1.107   .     S
C1664  H1711   1.107   .     S
C1664  C1665   1.524   .     S
C1664  O1732   1.417   .     S
C1664  H1712   1.117   .     S
C1665  H1715   1.111   .     S
C1665  H1714   1.111   .     S
C1665  H2061   1.109   .     S
C1666  O1725   1.385   .     S
C1667  O1726   1.383   .     S
C1667  C1670   1.410   .     A
C1667  C1437   1.390   1_655 S
C1668  O1727   1.384   .     S
C1668  C1670   1.412   .     A
C1668  C1434   1.393   1_655 S
C1669  O1728   1.384   .     S
Cu1671 O1738   1.947   .     S
Cu1671 O1736   1.952   .     S
Cu1671 O1723   1.973   .     S
Cu1671 Cu1672  2.709   .     S
Cu1671 O1734   1.976   .     S
Cu1671 N1721   2.036   .     S
Cu1672 O1739   1.947   .     S
Cu1672 O1733   1.973   .     S
Cu1672 N1722   2.036   .     S
Cu1672 O1735   1.976   .     S
Cu1672 O1737   1.952   .     S
H1674  C1418   1.110   1_655 S
H1675  C1418   1.111   1_655 S
H1696  C2005   1.111   .     S
H1707  C2010   1.110   .     S
C1741  O1839   1.303   .     A
C1741  C1742   1.460   .     S
C1741  O1851   1.301   .     A
C1742  C1785   1.410   .     A
C1742  C1782   1.412   .     A
C1743  O1845   1.381   .     S
C1743  N1838   1.381   .     A
C1744  O1846   1.383   .     S
C1744  N1837   1.362   .     A
C1744  C1049   1.437   1_565 S
C1745  N1838   1.387   .     A
C1745  O1847   1.389   .     S
C1746  N1837   1.368   .     A
C1746  O1848   1.384   .     S
C1746  C1047   1.429   1_565 S
C1747  O1852   1.295   .     A
C1747  O1855   1.300   .     A
C1747  C1753   1.439   .     S
C1748  O1854   1.293   .     A
C1748  O1853   1.303   .     A
C1748  C1751   1.439   .     S
C1749  H1789   1.085   .     S
C1749  C1760   1.394   .     A
C1749  C1751   1.395   .     A
C1750  C1761   1.393   .     A
C1750  H1800   1.084   .     S
C1750  C1753   1.396   .     A
C1751  C1754   1.392   .     A
C1752  O1850   1.302   .     A
C1752  O1849   1.302   .     A
C1752  C1786   1.461   .     S
C1753  C1755   1.393   .     A
C1754  H1811   1.083   .     S
C1754  C1756   1.396   .     A
C1755  C1757   1.396   .     A
C1755  H1822   1.085   .     S
C1756  C1762   1.408   .     A
C1756  C1758   1.415   .     A
C1757  C1759   1.416   .     A
C1757  C1764   1.409   .     A
C1758  C1760   1.412   .     A
C1758  C715    1.401   1_556 S
C1759  C1761   1.413   .     A
C1760  C1774   1.399   .     A
C1761  C1763   1.402   .     A
C1762  O1856   1.382   .     S
C1762  C719    1.398   1_556 S
C1763  H1832   1.084   .     S
C1764  O1840   1.383   .     S
C1765  H1834   1.112   .     S
C1765  O1856   1.412   .     S
C1765  C1766   1.522   .     S
C1765  H1835   1.117   .     S
C1766  H1836   1.111   .     S
C1766  H2022   1.110   1_455 S
C1766  H2023   1.111   1_455 S
C1767  O1840   1.412   .     S
C1767  H1792   1.114   .     S
C1767  H1793   1.116   .     S
C1767  C1768   1.522   .     S
C1768  H1795   1.111   .     S
C1768  H1794   1.111   .     S
C1768  H1912   1.111   .     S
C1769  H1799   1.112   .     S
C1769  O1841   1.412   .     S
C1769  H1797   1.108   .     S
C1769  H1798   1.114   .     S
C1770  H1802   1.109   .     S
C1770  H1803   1.110   .     S
C1770  O1842   1.410   .     S
C1770  H1801   1.115   .     S
C1771  H1806   1.112   .     S
C1771  O1843   1.409   .     S
C1771  H1805   1.113   .     S
C1771  H1804   1.109   .     S
C1772  O1844   1.410   .     S
C1772  H1808   1.109   .     S
C1772  H1807   1.113   .     S
C1772  H1809   1.113   .     S
C1773  H1810   1.116   .     S
C1773  O1845   1.422   .     S
C1773  C1775   1.518   .     S
C1774  H1833   1.080   .     S
C1774  C720    1.399   1_556 S
C1775  H1814   1.111   .     S
C1775  H1815   1.108   .     S
C1775  H1813   1.111   .     S
C1776  C1777   1.521   .     S
C1776  H1816   1.112   .     S
C1776  O1846   1.413   .     S
C1776  H1121   1.111   1_565 S
C1777  H1819   1.110   .     S
C1777  H1820   1.110   .     S
C1777  H1818   1.110   .     S
C1778  C1779   1.514   .     S
C1778  O1847   1.424   .     S
C1778  H1821   1.117   .     S
C1779  H1824   1.110   .     S
C1779  H1825   1.111   .     S
C1779  H1826   1.107   .     S
C1780  H1827   1.107   .     S
C1780  C1781   1.524   .     S
C1780  O1848   1.417   .     S
C1780  H1828   1.117   .     S
C1781  H1831   1.111   .     S
C1781  H1830   1.111   .     S
C1781  H1133   1.109   1_565 S
C1782  O1841   1.385   .     S
C1782  C2016   1.393   1_455 S
C1783  O1842   1.383   .     S
C1783  C1786   1.410   .     A
C1783  C1901   1.390   .     S
C1784  O1843   1.384   .     S
C1784  C1786   1.412   .     A
C1784  C1898   1.393   .     S
C1785  O1844   1.384   .     S
C1785  C2015   1.390   1_455 S
Cu1787 O1854   1.947   .     S
Cu1787 O1852   1.952   .     S
Cu1787 O1839   1.973   .     S
Cu1787 Cu1788  2.709   .     S
Cu1787 O1850   1.976   .     S
Cu1787 N1837   2.036   .     S
Cu1788 O1855   1.947   .     S
Cu1788 O1849   1.973   .     S
Cu1788 N1838   2.036   .     S
Cu1788 O1851   1.976   .     S
Cu1788 O1853   1.952   .     S
H1790  C1882   1.110   .     S
H1791  C1882   1.111   .     S
H1796  C2000   1.111   1_455 S
H1812  C1077   1.111   1_565 S
H1823  C1082   1.110   1_565 S
C1857  O1955   1.303   .     A
C1857  C1858   1.460   .     S
C1857  O1967   1.301   .     A
C1858  C1901   1.410   .     A
C1858  C1898   1.412   .     A
C1859  O1961   1.381   .     S
C1859  N1954   1.381   .     A
C1860  O1962   1.383   .     S
C1860  N1953   1.362   .     A
C1860  C1165   1.437   1_565 S
C1861  N1954   1.387   .     A
C1861  O1963   1.389   .     S
C1862  N1953   1.368   .     A
C1862  O1964   1.384   .     S
C1862  C1163   1.429   1_565 S
C1863  O1968   1.295   .     A
C1863  O1971   1.300   .     A
C1863  C1869   1.439   .     S
C1864  O1970   1.293   .     A
C1864  O1969   1.303   .     A
C1864  C1867   1.439   .     S
C1865  H1905   1.085   .     S
C1865  C1876   1.394   .     A
C1865  C1867   1.395   .     A
C1866  C1877   1.393   .     A
C1866  H1916   1.084   .     S
C1866  C1869   1.396   .     A
C1867  C1870   1.392   .     A
C1868  O1966   1.302   .     A
C1868  O1965   1.302   .     A
C1868  C1902   1.461   .     S
C1869  C1871   1.393   .     A
C1870  H1927   1.083   .     S
C1870  C1872   1.396   .     A
C1871  C1873   1.396   .     A
C1871  H1938   1.085   .     S
C1872  C1878   1.408   .     A
C1872  C1874   1.415   .     A
C1873  C1875   1.416   .     A
C1873  C1880   1.409   .     A
C1874  C1876   1.412   .     A
C1874  C831    1.401   1_556 S
C1875  C1877   1.413   .     A
C1876  C1890   1.399   .     A
C1877  C1879   1.402   .     A
C1878  O1972   1.382   .     S
C1878  C835    1.398   1_556 S
C1879  H1948   1.084   .     S
C1880  O1956   1.383   .     S
C1881  H1950   1.112   .     S
C1881  O1972   1.412   .     S
C1881  C1882   1.522   .     S
C1881  H1951   1.117   .     S
C1882  H1952   1.111   .     S
C1883  O1956   1.412   .     S
C1883  H1908   1.114   .     S
C1883  H1909   1.116   .     S
C1883  C1884   1.522   .     S
C1884  H1911   1.111   .     S
C1884  H1910   1.111   .     S
C1884  H2028   1.111   .     S
C1885  H1915   1.112   .     S
C1885  O1957   1.412   .     S
C1885  H1913   1.108   .     S
C1885  H1914   1.114   .     S
C1886  H1918   1.109   .     S
C1886  H1919   1.110   .     S
C1886  O1958   1.410   .     S
C1886  H1917   1.115   .     S
C1887  H1922   1.112   .     S
C1887  O1959   1.409   .     S
C1887  H1921   1.113   .     S
C1887  H1920   1.109   .     S
C1888  O1960   1.410   .     S
C1888  H1924   1.109   .     S
C1888  H1923   1.113   .     S
C1888  H1925   1.113   .     S
C1889  H1926   1.116   .     S
C1889  O1961   1.422   .     S
C1889  C1891   1.518   .     S
C1890  H1949   1.080   .     S
C1890  C836    1.399   1_556 S
C1891  H1930   1.111   .     S
C1891  H1931   1.108   .     S
C1891  H1929   1.111   .     S
C1892  C1893   1.521   .     S
C1892  H1932   1.112   .     S
C1892  O1962   1.413   .     S
C1892  H1237   1.111   1_565 S
C1893  H1935   1.110   .     S
C1893  H1936   1.110   .     S
C1893  H1934   1.110   .     S
C1894  C1895   1.514   .     S
C1894  O1963   1.424   .     S
C1894  H1937   1.117   .     S
C1895  H1940   1.110   .     S
C1895  H1941   1.111   .     S
C1895  H1942   1.107   .     S
C1896  H1943   1.107   .     S
C1896  C1897   1.524   .     S
C1896  O1964   1.417   .     S
C1896  H1944   1.117   .     S
C1897  H1947   1.111   .     S
C1897  H1946   1.111   .     S
C1897  H1249   1.109   1_565 S
C1898  O1957   1.385   .     S
C1899  O1958   1.383   .     S
C1899  C1902   1.410   .     A
C1899  C2017   1.390   .     S
C1900  O1959   1.384   .     S
C1900  C1902   1.412   .     A
C1900  C2014   1.393   .     S
C1901  O1960   1.384   .     S
Cu1903 O1970   1.947   .     S
Cu1903 O1968   1.952   .     S
Cu1903 O1955   1.973   .     S
Cu1903 Cu1904  2.709   .     S
Cu1903 O1966   1.976   .     S
Cu1903 N1953   2.036   .     S
Cu1904 O1971   1.947   .     S
Cu1904 O1965   1.973   .     S
Cu1904 N1954   2.036   .     S
Cu1904 O1967   1.976   .     S
Cu1904 O1969   1.952   .     S
H1906  C1998   1.110   .     S
H1907  C1998   1.111   .     S
H1928  C1193   1.111   1_565 S
H1939  C1198   1.110   1_565 S
C1973  O2071   1.303   .     A
C1973  C1974   1.460   .     S
C1973  O2083   1.301   .     A
C1974  C2017   1.410   .     A
C1974  C2014   1.412   .     A
C1975  O2077   1.381   .     S
C1975  N2070   1.381   .     A
C1976  O2078   1.383   .     S
C1976  N2069   1.362   .     A
C1976  C1281   1.437   1_565 S
C1977  N2070   1.387   .     A
C1977  O2079   1.389   .     S
C1978  N2069   1.368   .     A
C1978  O2080   1.384   .     S
C1978  C1279   1.429   1_565 S
C1979  O2084   1.295   .     A
C1979  O2087   1.300   .     A
C1979  C1985   1.439   .     S
C1980  O2086   1.293   .     A
C1980  O2085   1.303   .     A
C1980  C1983   1.439   .     S
C1981  H2021   1.085   .     S
C1981  C1992   1.394   .     A
C1981  C1983   1.395   .     A
C1982  C1993   1.393   .     A
C1982  H2032   1.084   .     S
C1982  C1985   1.396   .     A
C1983  C1986   1.392   .     A
C1984  O2082   1.302   .     A
C1984  O2081   1.302   .     A
C1984  C2018   1.461   .     S
C1985  C1987   1.393   .     A
C1986  H2043   1.083   .     S
C1986  C1988   1.396   .     A
C1987  C1989   1.396   .     A
C1987  H2054   1.085   .     S
C1988  C1994   1.408   .     A
C1988  C1990   1.415   .     A
C1989  C1991   1.416   .     A
C1989  C1996   1.409   .     A
C1990  C1992   1.412   .     A
C1990  C947    1.401   1_556 S
C1991  C1993   1.413   .     A
C1992  C2006   1.399   .     A
C1993  C1995   1.402   .     A
C1994  O2088   1.382   .     S
C1994  C951    1.398   1_556 S
C1995  H2064   1.084   .     S
C1996  O2072   1.383   .     S
C1997  H2066   1.112   .     S
C1997  O2088   1.412   .     S
C1997  C1998   1.522   .     S
C1997  H2067   1.117   .     S
C1998  H2068   1.111   .     S
C1999  O2072   1.412   .     S
C1999  H2024   1.114   .     S
C1999  H2025   1.116   .     S
C1999  C2000   1.522   .     S
C2000  H2027   1.111   .     S
C2000  H2026   1.111   .     S
C2000  H1796   1.111   1_655 S
C2001  H2031   1.112   .     S
C2001  O2073   1.412   .     S
C2001  H2029   1.108   .     S
C2001  H2030   1.114   .     S
C2002  H2034   1.109   .     S
C2002  H2035   1.110   .     S
C2002  O2074   1.410   .     S
C2002  H2033   1.115   .     S
C2003  H2038   1.112   .     S
C2003  O2075   1.409   .     S
C2003  H2037   1.113   .     S
C2003  H2036   1.109   .     S
C2004  O2076   1.410   .     S
C2004  H2040   1.109   .     S
C2004  H2039   1.113   .     S
C2004  H2041   1.113   .     S
C2005  H2042   1.116   .     S
C2005  O2077   1.422   .     S
C2005  C2007   1.518   .     S
C2006  H2065   1.080   .     S
C2006  C952    1.399   1_556 S
C2007  H2046   1.111   .     S
C2007  H2047   1.108   .     S
C2007  H2045   1.111   .     S
C2008  C2009   1.521   .     S
C2008  H2048   1.112   .     S
C2008  O2078   1.413   .     S
C2008  H1353   1.111   1_565 S
C2009  H2051   1.110   .     S
C2009  H2052   1.110   .     S
C2009  H2050   1.110   .     S
C2010  C2011   1.514   .     S
C2010  O2079   1.424   .     S
C2010  H2053   1.117   .     S
C2011  H2056   1.110   .     S
C2011  H2057   1.111   .     S
C2011  H2058   1.107   .     S
C2012  H2059   1.107   .     S
C2012  C2013   1.524   .     S
C2012  O2080   1.417   .     S
C2012  H2060   1.117   .     S
C2013  H2063   1.111   .     S
C2013  H2062   1.111   .     S
C2013  H1365   1.109   1_565 S
C2014  O2073   1.385   .     S
C2015  O2074   1.383   .     S
C2015  C2018   1.410   .     A
C2015  C1785   1.390   1_655 S
C2016  O2075   1.384   .     S
C2016  C2018   1.412   .     A
C2016  C1782   1.393   1_655 S
C2017  O2076   1.384   .     S
Cu2019 O2086   1.947   .     S
Cu2019 O2084   1.952   .     S
Cu2019 O2071   1.973   .     S
Cu2019 Cu2020  2.709   .     S
Cu2019 O2082   1.976   .     S
Cu2019 N2069   2.036   .     S
Cu2020 O2087   1.947   .     S
Cu2020 O2081   1.973   .     S
Cu2020 N2070   2.036   .     S
Cu2020 O2083   1.976   .     S
Cu2020 O2085   1.952   .     S
H2022  C1766   1.110   1_655 S
H2023  C1766   1.111   1_655 S
H2044  C1309   1.111   1_565 S
H2055  C1314   1.110   1_565 S
