data_str_m2_o1_o17_pcu_sym.39
_audit_creation_date              2020-01-03
_audit_creation_method            'Materials Studio'
_symmetry_space_group_name_H-M    'P1'
_symmetry_Int_Tables_number       1
_symmetry_cell_setting            triclinic
loop_
_symmetry_equiv_pos_as_xyz
  x,y,z
_cell_length_a                    32.4906
_cell_length_b                    28.5666
_cell_length_c                    30.0874
_cell_angle_alpha                 90.2456
_cell_angle_beta                  90.0105
_cell_angle_gamma                 89.9517
loop_
_atom_site_label
_atom_site_type_symbol
_atom_site_fract_x
_atom_site_fract_y
_atom_site_fract_z
_atom_site_U_iso_or_equiv
_atom_site_adp_type
_atom_site_occupancy
C1     C     0.08736   0.16668   0.24992   0.00000  Uiso   1.00
C2     C     0.04274   0.16668   0.24989   0.00000  Uiso   1.00
C3     C     0.13964   0.02470   0.22409   0.00000  Uiso   1.00
C4     C     0.19369   0.30864   0.27591   0.00000  Uiso   1.00
C5     C     0.19369   0.02490   0.27592   0.00000  Uiso   1.00
C6     C     0.13965   0.30844   0.22408   0.00000  Uiso   1.00
C7     C     0.16549   0.16656   0.16450   0.00000  Uiso   1.00
C8     C     0.16784   0.16677   0.33550   0.00000  Uiso   1.00
C9     C     0.20148   0.18923   0.40722   0.00000  Uiso   1.00
C10    C     0.13185   0.14410   0.09278   0.00000  Uiso   1.00
C11    C     0.16921   0.16704   0.38375   0.00000  Uiso   1.00
C12    C     0.24598   0.16666   0.25008   0.00000  Uiso   1.00
C13    C     0.16412   0.16629   0.11625   0.00000  Uiso   1.00
C14    C     0.13802   0.14332   0.40608   0.00000  Uiso   1.00
C15    C     0.19531   0.19002   0.09392   0.00000  Uiso   1.00
C16    C     0.13712   0.14261   0.45220   0.00000  Uiso   1.00
C17    C     0.19621   0.19073   0.04780   0.00000  Uiso   1.00
C18    C     0.16762   0.16656   0.47659   0.00000  Uiso   1.00
C19    C     0.16571   0.16677   0.02341   0.00000  Uiso   1.00
C20    C     0.19996   0.19025   0.45427   0.00000  Uiso   1.00
C21    C     0.13338   0.14308   0.04573   0.00000  Uiso   1.00
C22    C     0.10591   0.11834   0.47416   0.00000  Uiso   1.00
C23    C     0.10422   0.11814   0.02031   0.00000  Uiso   1.00
C24    C     0.22742   0.21500   0.02584   0.00000  Uiso   1.00
C25    C     0.23729   0.20823   0.38219   0.00000  Uiso   1.00
C26    C     0.09604   0.12509   0.11781   0.00000  Uiso   1.00
C27    C     0.22911   0.21519   0.47969   0.00000  Uiso   1.00
C28    C     0.02133   0.12418   0.24786   0.00000  Uiso   1.00
C29    C     0.31201   0.20915   0.25214   0.00000  Uiso   1.00
C30    C     0.31208   0.12416   0.24800   0.00000  Uiso   1.00
C31    C     0.02125   0.20917   0.25200   0.00000  Uiso   1.00
C32    C     0.29059   0.16665   0.25011   0.00000  Uiso   1.00
Cu33   Cu    0.16667   0.21355   0.25000   0.00000  Uiso   1.00
Cu34   Cu    0.16667   0.11978   0.25000   0.00000  Uiso   1.00
H35    H     0.11410   0.12562   0.38724   0.00000  Uiso   1.00
H36    H     0.03724   0.24239   0.25364   0.00000  Uiso   1.00
H37    H     0.11795   0.04326   0.20337   0.00000  Uiso   1.00
H38    H     0.21538   0.29007   0.29663   0.00000  Uiso   1.00
H39    H     0.21532   0.04365   0.29671   0.00000  Uiso   1.00
H40    H     0.11801   0.28968   0.20329   0.00000  Uiso   1.00
H41    H     0.23270   0.22759   0.35173   0.00000  Uiso   1.00
H42    H     0.10063   0.10574   0.14828   0.00000  Uiso   1.00
H43    H     0.21922   0.20772   0.11275   0.00000  Uiso   1.00
H44    H     0.08276   0.09920   0.45557   0.00000  Uiso   1.00
H45    H     0.25057   0.23413   0.04443   0.00000  Uiso   1.00
H46    H     0.08022   0.09758   0.03557   0.00000  Uiso   1.00
H47    H     0.25312   0.23574   0.46443   0.00000  Uiso   1.00
H48    H     0.03737   0.09097   0.24610   0.00000  Uiso   1.00
H49    H     0.29596   0.24237   0.25390   0.00000  Uiso   1.00
H50    H     0.29609   0.09094   0.24636   0.00000  Uiso   1.00
N51    N     0.16667   0.28402   0.25000   0.00000  Uiso   1.00
N52    N     0.16667   0.04931   0.25000   0.00000  Uiso   1.00
O53    O     0.10655   0.20625   0.25000   0.00000  Uiso   1.00
O54    O     0.06084   0.13299   0.10576   0.00000  Uiso   1.00
O55    O     0.22679   0.12709   0.25001   0.00000  Uiso   1.00
O56    O     0.22679   0.20625   0.25001   0.00000  Uiso   1.00
O57    O     0.10655   0.12709   0.25000   0.00000  Uiso   1.00
O58    O     0.16666   0.20627   0.18513   0.00000  Uiso   1.00
O59    O     0.16668   0.12707   0.31487   0.00000  Uiso   1.00
O60    O     0.16668   0.20627   0.31487   0.00000  Uiso   1.00
O61    O     0.16666   0.12707   0.18513   0.00000  Uiso   1.00
O62    O     0.27249   0.20032   0.39424   0.00000  Uiso   1.00
C63    C     0.42069   0.16668   0.24992   0.00000  Uiso   1.00
C64    C     0.37608   0.16668   0.24989   0.00000  Uiso   1.00
C65    C     0.47297   0.02470   0.22409   0.00000  Uiso   1.00
C66    C     0.52703   0.30864   0.27591   0.00000  Uiso   1.00
C67    C     0.52702   0.02490   0.27592   0.00000  Uiso   1.00
C68    C     0.47298   0.30844   0.22408   0.00000  Uiso   1.00
C69    C     0.49883   0.16656   0.16450   0.00000  Uiso   1.00
C70    C     0.50117   0.16677   0.33550   0.00000  Uiso   1.00
C71    C     0.53481   0.18923   0.40722   0.00000  Uiso   1.00
C72    C     0.46519   0.14410   0.09278   0.00000  Uiso   1.00
C73    C     0.50254   0.16704   0.38375   0.00000  Uiso   1.00
C74    C     0.57931   0.16666   0.25008   0.00000  Uiso   1.00
C75    C     0.49746   0.16629   0.11625   0.00000  Uiso   1.00
C76    C     0.47135   0.14332   0.40608   0.00000  Uiso   1.00
C77    C     0.52864   0.19002   0.09392   0.00000  Uiso   1.00
C78    C     0.47045   0.14261   0.45220   0.00000  Uiso   1.00
C79    C     0.52954   0.19073   0.04780   0.00000  Uiso   1.00
C80    C     0.50095   0.16656   0.47659   0.00000  Uiso   1.00
C81    C     0.49905   0.16677   0.02341   0.00000  Uiso   1.00
C82    C     0.53329   0.19025   0.45427   0.00000  Uiso   1.00
C83    C     0.46671   0.14308   0.04573   0.00000  Uiso   1.00
C84    C     0.43924   0.11834   0.47416   0.00000  Uiso   1.00
C85    C     0.43756   0.11814   0.02031   0.00000  Uiso   1.00
C86    C     0.56076   0.21500   0.02584   0.00000  Uiso   1.00
C87    C     0.57063   0.20823   0.38219   0.00000  Uiso   1.00
C88    C     0.42938   0.12509   0.11781   0.00000  Uiso   1.00
C89    C     0.56244   0.21519   0.47969   0.00000  Uiso   1.00
C90    C     0.35466   0.12418   0.24786   0.00000  Uiso   1.00
C91    C     0.64534   0.20915   0.25214   0.00000  Uiso   1.00
C92    C     0.64541   0.12416   0.24800   0.00000  Uiso   1.00
C93    C     0.35459   0.20917   0.25200   0.00000  Uiso   1.00
C94    C     0.62392   0.16665   0.25011   0.00000  Uiso   1.00
Cu95   Cu    0.50000   0.21355   0.25000   0.00000  Uiso   1.00
Cu96   Cu    0.50000   0.11978   0.25000   0.00000  Uiso   1.00
H97    H     0.44744   0.12562   0.38724   0.00000  Uiso   1.00
H98    H     0.37058   0.24239   0.25364   0.00000  Uiso   1.00
H99    H     0.45129   0.04326   0.20337   0.00000  Uiso   1.00
H100   H     0.54871   0.29007   0.29663   0.00000  Uiso   1.00
H101   H     0.54866   0.04365   0.29671   0.00000  Uiso   1.00
H102   H     0.45134   0.28968   0.20329   0.00000  Uiso   1.00
H103   H     0.56604   0.22759   0.35173   0.00000  Uiso   1.00
H104   H     0.43397   0.10574   0.14828   0.00000  Uiso   1.00
H105   H     0.55256   0.20772   0.11275   0.00000  Uiso   1.00
H106   H     0.41610   0.09920   0.45557   0.00000  Uiso   1.00
H107   H     0.58390   0.23413   0.04443   0.00000  Uiso   1.00
H108   H     0.41355   0.09758   0.03557   0.00000  Uiso   1.00
H109   H     0.58645   0.23574   0.46443   0.00000  Uiso   1.00
H110   H     0.37071   0.09097   0.24610   0.00000  Uiso   1.00
H111   H     0.62930   0.24237   0.25390   0.00000  Uiso   1.00
H112   H     0.62942   0.09094   0.24636   0.00000  Uiso   1.00
N113   N     0.50000   0.28402   0.25000   0.00000  Uiso   1.00
N114   N     0.50000   0.04931   0.25000   0.00000  Uiso   1.00
O115   O     0.43988   0.20625   0.25000   0.00000  Uiso   1.00
O116   O     0.39418   0.13299   0.10576   0.00000  Uiso   1.00
O117   O     0.56012   0.12709   0.25001   0.00000  Uiso   1.00
O118   O     0.56012   0.20625   0.25001   0.00000  Uiso   1.00
O119   O     0.43988   0.12709   0.25000   0.00000  Uiso   1.00
O120   O     0.49999   0.20627   0.18513   0.00000  Uiso   1.00
O121   O     0.50001   0.12707   0.31487   0.00000  Uiso   1.00
O122   O     0.50001   0.20627   0.31487   0.00000  Uiso   1.00
O123   O     0.49999   0.12707   0.18513   0.00000  Uiso   1.00
O124   O     0.60583   0.20032   0.39424   0.00000  Uiso   1.00
C125   C     0.75402   0.16668   0.24992   0.00000  Uiso   1.00
C126   C     0.70941   0.16668   0.24989   0.00000  Uiso   1.00
C127   C     0.80631   0.02470   0.22409   0.00000  Uiso   1.00
C128   C     0.86036   0.30864   0.27591   0.00000  Uiso   1.00
C129   C     0.86035   0.02490   0.27592   0.00000  Uiso   1.00
C130   C     0.80631   0.30844   0.22408   0.00000  Uiso   1.00
C131   C     0.83216   0.16656   0.16450   0.00000  Uiso   1.00
C132   C     0.83451   0.16677   0.33550   0.00000  Uiso   1.00
C133   C     0.86815   0.18923   0.40722   0.00000  Uiso   1.00
C134   C     0.79852   0.14410   0.09278   0.00000  Uiso   1.00
C135   C     0.83588   0.16704   0.38375   0.00000  Uiso   1.00
C136   C     0.91264   0.16666   0.25008   0.00000  Uiso   1.00
C137   C     0.83079   0.16629   0.11625   0.00000  Uiso   1.00
C138   C     0.80469   0.14332   0.40608   0.00000  Uiso   1.00
C139   C     0.86197   0.19002   0.09392   0.00000  Uiso   1.00
C140   C     0.80379   0.14261   0.45220   0.00000  Uiso   1.00
C141   C     0.86288   0.19073   0.04780   0.00000  Uiso   1.00
C142   C     0.83429   0.16656   0.47659   0.00000  Uiso   1.00
C143   C     0.83238   0.16677   0.02341   0.00000  Uiso   1.00
C144   C     0.86662   0.19025   0.45427   0.00000  Uiso   1.00
C145   C     0.80004   0.14308   0.04573   0.00000  Uiso   1.00
C146   C     0.77258   0.11834   0.47416   0.00000  Uiso   1.00
C147   C     0.77089   0.11814   0.02031   0.00000  Uiso   1.00
C148   C     0.89409   0.21500   0.02584   0.00000  Uiso   1.00
C149   C     0.90396   0.20823   0.38219   0.00000  Uiso   1.00
C150   C     0.76271   0.12509   0.11781   0.00000  Uiso   1.00
C151   C     0.89578   0.21519   0.47969   0.00000  Uiso   1.00
C152   C     0.68799   0.12418   0.24786   0.00000  Uiso   1.00
C153   C     0.97868   0.20915   0.25214   0.00000  Uiso   1.00
C154   C     0.97875   0.12416   0.24800   0.00000  Uiso   1.00
C155   C     0.68792   0.20917   0.25200   0.00000  Uiso   1.00
C156   C     0.95726   0.16665   0.25011   0.00000  Uiso   1.00
Cu157  Cu    0.83333   0.21355   0.25000   0.00000  Uiso   1.00
Cu158  Cu    0.83333   0.11978   0.25000   0.00000  Uiso   1.00
H159   H     0.78077   0.12562   0.38724   0.00000  Uiso   1.00
H160   H     0.70391   0.24239   0.25364   0.00000  Uiso   1.00
H161   H     0.78462   0.04326   0.20337   0.00000  Uiso   1.00
H162   H     0.88205   0.29007   0.29663   0.00000  Uiso   1.00
H163   H     0.88199   0.04365   0.29671   0.00000  Uiso   1.00
H164   H     0.78468   0.28968   0.20329   0.00000  Uiso   1.00
H165   H     0.89937   0.22759   0.35173   0.00000  Uiso   1.00
H166   H     0.76730   0.10574   0.14828   0.00000  Uiso   1.00
H167   H     0.88589   0.20772   0.11275   0.00000  Uiso   1.00
H168   H     0.74943   0.09920   0.45557   0.00000  Uiso   1.00
H169   H     0.91724   0.23413   0.04443   0.00000  Uiso   1.00
H170   H     0.74688   0.09758   0.03557   0.00000  Uiso   1.00
H171   H     0.91979   0.23574   0.46443   0.00000  Uiso   1.00
H172   H     0.70404   0.09097   0.24610   0.00000  Uiso   1.00
H173   H     0.96263   0.24237   0.25390   0.00000  Uiso   1.00
H174   H     0.96276   0.09094   0.24636   0.00000  Uiso   1.00
N175   N     0.83333   0.28402   0.25000   0.00000  Uiso   1.00
N176   N     0.83333   0.04931   0.25000   0.00000  Uiso   1.00
O177   O     0.77321   0.20625   0.25000   0.00000  Uiso   1.00
O178   O     0.72751   0.13299   0.10576   0.00000  Uiso   1.00
O179   O     0.89345   0.12709   0.25001   0.00000  Uiso   1.00
O180   O     0.89345   0.20625   0.25001   0.00000  Uiso   1.00
O181   O     0.77321   0.12709   0.25000   0.00000  Uiso   1.00
O182   O     0.83332   0.20627   0.18513   0.00000  Uiso   1.00
O183   O     0.83334   0.12707   0.31487   0.00000  Uiso   1.00
O184   O     0.83334   0.20627   0.31487   0.00000  Uiso   1.00
O185   O     0.83332   0.12707   0.18513   0.00000  Uiso   1.00
O186   O     0.93916   0.20032   0.39424   0.00000  Uiso   1.00
C187   C     0.08736   0.50001   0.24992   0.00000  Uiso   1.00
C188   C     0.04274   0.50002   0.24989   0.00000  Uiso   1.00
C189   C     0.13964   0.35803   0.22409   0.00000  Uiso   1.00
C190   C     0.19369   0.64197   0.27591   0.00000  Uiso   1.00
C191   C     0.19369   0.35823   0.27592   0.00000  Uiso   1.00
C192   C     0.13965   0.64177   0.22408   0.00000  Uiso   1.00
C193   C     0.16549   0.49989   0.16450   0.00000  Uiso   1.00
C194   C     0.16784   0.50011   0.33550   0.00000  Uiso   1.00
C195   C     0.20148   0.52256   0.40722   0.00000  Uiso   1.00
C196   C     0.13185   0.47743   0.09278   0.00000  Uiso   1.00
C197   C     0.16921   0.50038   0.38375   0.00000  Uiso   1.00
C198   C     0.24598   0.49999   0.25008   0.00000  Uiso   1.00
C199   C     0.16412   0.49962   0.11625   0.00000  Uiso   1.00
C200   C     0.13802   0.47666   0.40608   0.00000  Uiso   1.00
C201   C     0.19531   0.52335   0.09392   0.00000  Uiso   1.00
C202   C     0.13712   0.47594   0.45220   0.00000  Uiso   1.00
C203   C     0.19621   0.52406   0.04780   0.00000  Uiso   1.00
C204   C     0.16762   0.49990   0.47659   0.00000  Uiso   1.00
C205   C     0.16571   0.50010   0.02341   0.00000  Uiso   1.00
C206   C     0.19996   0.52358   0.45427   0.00000  Uiso   1.00
C207   C     0.13338   0.47641   0.04573   0.00000  Uiso   1.00
C208   C     0.10591   0.45167   0.47416   0.00000  Uiso   1.00
C209   C     0.10422   0.45147   0.02031   0.00000  Uiso   1.00
C210   C     0.22742   0.54833   0.02584   0.00000  Uiso   1.00
C211   C     0.23729   0.54157   0.38219   0.00000  Uiso   1.00
C212   C     0.09604   0.45842   0.11781   0.00000  Uiso   1.00
C213   C     0.22911   0.54852   0.47969   0.00000  Uiso   1.00
C214   C     0.02133   0.45751   0.24786   0.00000  Uiso   1.00
C215   C     0.31201   0.54249   0.25214   0.00000  Uiso   1.00
C216   C     0.31208   0.45750   0.24800   0.00000  Uiso   1.00
C217   C     0.02125   0.54250   0.25200   0.00000  Uiso   1.00
C218   C     0.29059   0.49998   0.25011   0.00000  Uiso   1.00
Cu219  Cu    0.16667   0.54689   0.25000   0.00000  Uiso   1.00
Cu220  Cu    0.16667   0.45311   0.25000   0.00000  Uiso   1.00
H221   H     0.11410   0.45896   0.38724   0.00000  Uiso   1.00
H222   H     0.03724   0.57573   0.25364   0.00000  Uiso   1.00
H223   H     0.11795   0.37660   0.20337   0.00000  Uiso   1.00
H224   H     0.21538   0.62340   0.29663   0.00000  Uiso   1.00
H225   H     0.21532   0.37699   0.29671   0.00000  Uiso   1.00
H226   H     0.11801   0.62301   0.20329   0.00000  Uiso   1.00
H227   H     0.23270   0.56092   0.35173   0.00000  Uiso   1.00
H228   H     0.10063   0.43908   0.14828   0.00000  Uiso   1.00
H229   H     0.21922   0.54105   0.11275   0.00000  Uiso   1.00
H230   H     0.08276   0.43254   0.45557   0.00000  Uiso   1.00
H231   H     0.25057   0.56747   0.04443   0.00000  Uiso   1.00
H232   H     0.08022   0.43092   0.03557   0.00000  Uiso   1.00
H233   H     0.25312   0.56907   0.46443   0.00000  Uiso   1.00
H234   H     0.03737   0.42430   0.24610   0.00000  Uiso   1.00
H235   H     0.29596   0.57570   0.25390   0.00000  Uiso   1.00
H236   H     0.29609   0.42427   0.24636   0.00000  Uiso   1.00
N237   N     0.16667   0.61736   0.25000   0.00000  Uiso   1.00
N238   N     0.16667   0.38264   0.25000   0.00000  Uiso   1.00
O239   O     0.10655   0.53958   0.25000   0.00000  Uiso   1.00
O240   O     0.06084   0.46632   0.10576   0.00000  Uiso   1.00
O241   O     0.22679   0.46042   0.25001   0.00000  Uiso   1.00
O242   O     0.22679   0.53958   0.25001   0.00000  Uiso   1.00
O243   O     0.10655   0.46042   0.25000   0.00000  Uiso   1.00
O244   O     0.16666   0.53960   0.18513   0.00000  Uiso   1.00
O245   O     0.16668   0.46040   0.31487   0.00000  Uiso   1.00
O246   O     0.16668   0.53960   0.31487   0.00000  Uiso   1.00
O247   O     0.16666   0.46040   0.18513   0.00000  Uiso   1.00
O248   O     0.27249   0.53365   0.39424   0.00000  Uiso   1.00
C249   C     0.42069   0.50001   0.24992   0.00000  Uiso   1.00
C250   C     0.37608   0.50002   0.24989   0.00000  Uiso   1.00
C251   C     0.47297   0.35803   0.22409   0.00000  Uiso   1.00
C252   C     0.52703   0.64197   0.27591   0.00000  Uiso   1.00
C253   C     0.52702   0.35823   0.27592   0.00000  Uiso   1.00
C254   C     0.47298   0.64177   0.22408   0.00000  Uiso   1.00
C255   C     0.49883   0.49989   0.16450   0.00000  Uiso   1.00
C256   C     0.50117   0.50011   0.33550   0.00000  Uiso   1.00
C257   C     0.53481   0.52256   0.40722   0.00000  Uiso   1.00
C258   C     0.46519   0.47743   0.09278   0.00000  Uiso   1.00
C259   C     0.50254   0.50038   0.38375   0.00000  Uiso   1.00
C260   C     0.57931   0.49999   0.25008   0.00000  Uiso   1.00
C261   C     0.49746   0.49962   0.11625   0.00000  Uiso   1.00
C262   C     0.47135   0.47666   0.40608   0.00000  Uiso   1.00
C263   C     0.52864   0.52335   0.09392   0.00000  Uiso   1.00
C264   C     0.47045   0.47594   0.45220   0.00000  Uiso   1.00
C265   C     0.52954   0.52406   0.04780   0.00000  Uiso   1.00
C266   C     0.50095   0.49990   0.47659   0.00000  Uiso   1.00
C267   C     0.49905   0.50010   0.02341   0.00000  Uiso   1.00
C268   C     0.53329   0.52358   0.45427   0.00000  Uiso   1.00
C269   C     0.46671   0.47641   0.04573   0.00000  Uiso   1.00
C270   C     0.43924   0.45167   0.47416   0.00000  Uiso   1.00
C271   C     0.43756   0.45147   0.02031   0.00000  Uiso   1.00
C272   C     0.56076   0.54833   0.02584   0.00000  Uiso   1.00
C273   C     0.57063   0.54157   0.38219   0.00000  Uiso   1.00
C274   C     0.42938   0.45842   0.11781   0.00000  Uiso   1.00
C275   C     0.56244   0.54852   0.47969   0.00000  Uiso   1.00
C276   C     0.35466   0.45751   0.24786   0.00000  Uiso   1.00
C277   C     0.64534   0.54249   0.25214   0.00000  Uiso   1.00
C278   C     0.64541   0.45750   0.24800   0.00000  Uiso   1.00
C279   C     0.35459   0.54250   0.25200   0.00000  Uiso   1.00
C280   C     0.62392   0.49998   0.25011   0.00000  Uiso   1.00
Cu281  Cu    0.50000   0.54689   0.25000   0.00000  Uiso   1.00
Cu282  Cu    0.50000   0.45311   0.25000   0.00000  Uiso   1.00
H283   H     0.44744   0.45896   0.38724   0.00000  Uiso   1.00
H284   H     0.37058   0.57573   0.25364   0.00000  Uiso   1.00
H285   H     0.45129   0.37660   0.20337   0.00000  Uiso   1.00
H286   H     0.54871   0.62340   0.29663   0.00000  Uiso   1.00
H287   H     0.54866   0.37699   0.29671   0.00000  Uiso   1.00
H288   H     0.45134   0.62301   0.20329   0.00000  Uiso   1.00
H289   H     0.56604   0.56092   0.35173   0.00000  Uiso   1.00
H290   H     0.43397   0.43908   0.14828   0.00000  Uiso   1.00
H291   H     0.55256   0.54105   0.11275   0.00000  Uiso   1.00
H292   H     0.41610   0.43254   0.45557   0.00000  Uiso   1.00
H293   H     0.58390   0.56747   0.04443   0.00000  Uiso   1.00
H294   H     0.41355   0.43092   0.03557   0.00000  Uiso   1.00
H295   H     0.58645   0.56907   0.46443   0.00000  Uiso   1.00
H296   H     0.37071   0.42430   0.24610   0.00000  Uiso   1.00
H297   H     0.62930   0.57570   0.25390   0.00000  Uiso   1.00
H298   H     0.62942   0.42427   0.24636   0.00000  Uiso   1.00
N299   N     0.50000   0.61736   0.25000   0.00000  Uiso   1.00
N300   N     0.50000   0.38264   0.25000   0.00000  Uiso   1.00
O301   O     0.43988   0.53958   0.25000   0.00000  Uiso   1.00
O302   O     0.39418   0.46632   0.10576   0.00000  Uiso   1.00
O303   O     0.56012   0.46042   0.25001   0.00000  Uiso   1.00
O304   O     0.56012   0.53958   0.25001   0.00000  Uiso   1.00
O305   O     0.43988   0.46042   0.25000   0.00000  Uiso   1.00
O306   O     0.49999   0.53960   0.18513   0.00000  Uiso   1.00
O307   O     0.50001   0.46040   0.31487   0.00000  Uiso   1.00
O308   O     0.50001   0.53960   0.31487   0.00000  Uiso   1.00
O309   O     0.49999   0.46040   0.18513   0.00000  Uiso   1.00
O310   O     0.60583   0.53365   0.39424   0.00000  Uiso   1.00
C311   C     0.75402   0.50001   0.24992   0.00000  Uiso   1.00
C312   C     0.70941   0.50002   0.24989   0.00000  Uiso   1.00
C313   C     0.80631   0.35803   0.22409   0.00000  Uiso   1.00
C314   C     0.86036   0.64197   0.27591   0.00000  Uiso   1.00
C315   C     0.86035   0.35823   0.27592   0.00000  Uiso   1.00
C316   C     0.80631   0.64177   0.22408   0.00000  Uiso   1.00
C317   C     0.83216   0.49989   0.16450   0.00000  Uiso   1.00
C318   C     0.83451   0.50011   0.33550   0.00000  Uiso   1.00
C319   C     0.86815   0.52256   0.40722   0.00000  Uiso   1.00
C320   C     0.79852   0.47743   0.09278   0.00000  Uiso   1.00
C321   C     0.83588   0.50038   0.38375   0.00000  Uiso   1.00
C322   C     0.91264   0.49999   0.25008   0.00000  Uiso   1.00
C323   C     0.83079   0.49962   0.11625   0.00000  Uiso   1.00
C324   C     0.80469   0.47666   0.40608   0.00000  Uiso   1.00
C325   C     0.86197   0.52335   0.09392   0.00000  Uiso   1.00
C326   C     0.80379   0.47594   0.45220   0.00000  Uiso   1.00
C327   C     0.86288   0.52406   0.04780   0.00000  Uiso   1.00
C328   C     0.83429   0.49990   0.47659   0.00000  Uiso   1.00
C329   C     0.83238   0.50010   0.02341   0.00000  Uiso   1.00
C330   C     0.86662   0.52358   0.45427   0.00000  Uiso   1.00
C331   C     0.80004   0.47641   0.04573   0.00000  Uiso   1.00
C332   C     0.77258   0.45167   0.47416   0.00000  Uiso   1.00
C333   C     0.77089   0.45147   0.02031   0.00000  Uiso   1.00
C334   C     0.89409   0.54833   0.02584   0.00000  Uiso   1.00
C335   C     0.90396   0.54157   0.38219   0.00000  Uiso   1.00
C336   C     0.76271   0.45842   0.11781   0.00000  Uiso   1.00
C337   C     0.89578   0.54852   0.47969   0.00000  Uiso   1.00
C338   C     0.68799   0.45751   0.24786   0.00000  Uiso   1.00
C339   C     0.97868   0.54249   0.25214   0.00000  Uiso   1.00
C340   C     0.97875   0.45750   0.24800   0.00000  Uiso   1.00
C341   C     0.68792   0.54250   0.25200   0.00000  Uiso   1.00
C342   C     0.95726   0.49998   0.25011   0.00000  Uiso   1.00
Cu343  Cu    0.83333   0.54689   0.25000   0.00000  Uiso   1.00
Cu344  Cu    0.83333   0.45311   0.25000   0.00000  Uiso   1.00
H345   H     0.78077   0.45896   0.38724   0.00000  Uiso   1.00
H346   H     0.70391   0.57573   0.25364   0.00000  Uiso   1.00
H347   H     0.78462   0.37660   0.20337   0.00000  Uiso   1.00
H348   H     0.88205   0.62340   0.29663   0.00000  Uiso   1.00
H349   H     0.88199   0.37699   0.29671   0.00000  Uiso   1.00
H350   H     0.78468   0.62301   0.20329   0.00000  Uiso   1.00
H351   H     0.89937   0.56092   0.35173   0.00000  Uiso   1.00
H352   H     0.76730   0.43908   0.14828   0.00000  Uiso   1.00
H353   H     0.88589   0.54105   0.11275   0.00000  Uiso   1.00
H354   H     0.74943   0.43254   0.45557   0.00000  Uiso   1.00
H355   H     0.91724   0.56747   0.04443   0.00000  Uiso   1.00
H356   H     0.74688   0.43092   0.03557   0.00000  Uiso   1.00
H357   H     0.91979   0.56907   0.46443   0.00000  Uiso   1.00
H358   H     0.70404   0.42430   0.24610   0.00000  Uiso   1.00
H359   H     0.96263   0.57570   0.25390   0.00000  Uiso   1.00
H360   H     0.96276   0.42427   0.24636   0.00000  Uiso   1.00
N361   N     0.83333   0.61736   0.25000   0.00000  Uiso   1.00
N362   N     0.83333   0.38264   0.25000   0.00000  Uiso   1.00
O363   O     0.77321   0.53958   0.25000   0.00000  Uiso   1.00
O364   O     0.72751   0.46632   0.10576   0.00000  Uiso   1.00
O365   O     0.89345   0.46042   0.25001   0.00000  Uiso   1.00
O366   O     0.89345   0.53958   0.25001   0.00000  Uiso   1.00
O367   O     0.77321   0.46042   0.25000   0.00000  Uiso   1.00
O368   O     0.83332   0.53960   0.18513   0.00000  Uiso   1.00
O369   O     0.83334   0.46040   0.31487   0.00000  Uiso   1.00
O370   O     0.83334   0.53960   0.31487   0.00000  Uiso   1.00
O371   O     0.83332   0.46040   0.18513   0.00000  Uiso   1.00
O372   O     0.93916   0.53365   0.39424   0.00000  Uiso   1.00
C373   C     0.08736   0.83334   0.24992   0.00000  Uiso   1.00
C374   C     0.04274   0.83335   0.24989   0.00000  Uiso   1.00
C375   C     0.13964   0.69136   0.22409   0.00000  Uiso   1.00
C376   C     0.19369   0.97530   0.27591   0.00000  Uiso   1.00
C377   C     0.19369   0.69156   0.27592   0.00000  Uiso   1.00
C378   C     0.13965   0.97510   0.22408   0.00000  Uiso   1.00
C379   C     0.16549   0.83323   0.16450   0.00000  Uiso   1.00
C380   C     0.16784   0.83344   0.33550   0.00000  Uiso   1.00
C381   C     0.20148   0.85590   0.40722   0.00000  Uiso   1.00
C382   C     0.13185   0.81076   0.09278   0.00000  Uiso   1.00
C383   C     0.16921   0.83371   0.38375   0.00000  Uiso   1.00
C384   C     0.24598   0.83332   0.25008   0.00000  Uiso   1.00
C385   C     0.16412   0.83296   0.11625   0.00000  Uiso   1.00
C386   C     0.13802   0.80999   0.40608   0.00000  Uiso   1.00
C387   C     0.19531   0.85668   0.09392   0.00000  Uiso   1.00
C388   C     0.13712   0.80928   0.45220   0.00000  Uiso   1.00
C389   C     0.19621   0.85739   0.04780   0.00000  Uiso   1.00
C390   C     0.16762   0.83323   0.47659   0.00000  Uiso   1.00
C391   C     0.16571   0.83343   0.02341   0.00000  Uiso   1.00
C392   C     0.19996   0.85692   0.45427   0.00000  Uiso   1.00
C393   C     0.13338   0.80974   0.04573   0.00000  Uiso   1.00
C394   C     0.10591   0.78500   0.47416   0.00000  Uiso   1.00
C395   C     0.10422   0.78480   0.02031   0.00000  Uiso   1.00
C396   C     0.22742   0.88166   0.02584   0.00000  Uiso   1.00
C397   C     0.23729   0.87490   0.38219   0.00000  Uiso   1.00
C398   C     0.09604   0.79175   0.11781   0.00000  Uiso   1.00
C399   C     0.22911   0.88186   0.47969   0.00000  Uiso   1.00
C400   C     0.02133   0.79085   0.24786   0.00000  Uiso   1.00
C401   C     0.31201   0.87582   0.25214   0.00000  Uiso   1.00
C402   C     0.31208   0.79083   0.24800   0.00000  Uiso   1.00
C403   C     0.02125   0.87584   0.25200   0.00000  Uiso   1.00
C404   C     0.29059   0.83332   0.25011   0.00000  Uiso   1.00
Cu405  Cu    0.16667   0.88022   0.25000   0.00000  Uiso   1.00
Cu406  Cu    0.16667   0.78645   0.25000   0.00000  Uiso   1.00
H407   H     0.11410   0.79229   0.38724   0.00000  Uiso   1.00
H408   H     0.03724   0.90906   0.25364   0.00000  Uiso   1.00
H409   H     0.11795   0.70993   0.20337   0.00000  Uiso   1.00
H410   H     0.21538   0.95674   0.29663   0.00000  Uiso   1.00
H411   H     0.21532   0.71032   0.29671   0.00000  Uiso   1.00
H412   H     0.11801   0.95635   0.20329   0.00000  Uiso   1.00
H413   H     0.23270   0.89426   0.35173   0.00000  Uiso   1.00
H414   H     0.10063   0.77241   0.14828   0.00000  Uiso   1.00
H415   H     0.21922   0.87439   0.11275   0.00000  Uiso   1.00
H416   H     0.08276   0.76587   0.45557   0.00000  Uiso   1.00
H417   H     0.25057   0.90080   0.04443   0.00000  Uiso   1.00
H418   H     0.08022   0.76425   0.03557   0.00000  Uiso   1.00
H419   H     0.25312   0.90241   0.46443   0.00000  Uiso   1.00
H420   H     0.03737   0.75763   0.24610   0.00000  Uiso   1.00
H421   H     0.29596   0.90903   0.25390   0.00000  Uiso   1.00
H422   H     0.29609   0.75761   0.24636   0.00000  Uiso   1.00
N423   N     0.16667   0.95069   0.25000   0.00000  Uiso   1.00
N424   N     0.16667   0.71598   0.25000   0.00000  Uiso   1.00
O425   O     0.10655   0.87291   0.25000   0.00000  Uiso   1.00
O426   O     0.06084   0.79965   0.10576   0.00000  Uiso   1.00
O427   O     0.22679   0.79375   0.25001   0.00000  Uiso   1.00
O428   O     0.22679   0.87291   0.25001   0.00000  Uiso   1.00
O429   O     0.10655   0.79375   0.25000   0.00000  Uiso   1.00
O430   O     0.16666   0.87293   0.18513   0.00000  Uiso   1.00
O431   O     0.16668   0.79373   0.31487   0.00000  Uiso   1.00
O432   O     0.16668   0.87293   0.31487   0.00000  Uiso   1.00
O433   O     0.16666   0.79373   0.18513   0.00000  Uiso   1.00
O434   O     0.27249   0.86699   0.39424   0.00000  Uiso   1.00
C435   C     0.42069   0.83334   0.24992   0.00000  Uiso   1.00
C436   C     0.37608   0.83335   0.24989   0.00000  Uiso   1.00
C437   C     0.47297   0.69136   0.22409   0.00000  Uiso   1.00
C438   C     0.52703   0.97530   0.27591   0.00000  Uiso   1.00
C439   C     0.52702   0.69156   0.27592   0.00000  Uiso   1.00
C440   C     0.47298   0.97510   0.22408   0.00000  Uiso   1.00
C441   C     0.49883   0.83323   0.16450   0.00000  Uiso   1.00
C442   C     0.50117   0.83344   0.33550   0.00000  Uiso   1.00
C443   C     0.53481   0.85590   0.40722   0.00000  Uiso   1.00
C444   C     0.46519   0.81076   0.09278   0.00000  Uiso   1.00
C445   C     0.50254   0.83371   0.38375   0.00000  Uiso   1.00
C446   C     0.57931   0.83332   0.25008   0.00000  Uiso   1.00
C447   C     0.49746   0.83296   0.11625   0.00000  Uiso   1.00
C448   C     0.47135   0.80999   0.40608   0.00000  Uiso   1.00
C449   C     0.52864   0.85668   0.09392   0.00000  Uiso   1.00
C450   C     0.47045   0.80928   0.45220   0.00000  Uiso   1.00
C451   C     0.52954   0.85739   0.04780   0.00000  Uiso   1.00
C452   C     0.50095   0.83323   0.47659   0.00000  Uiso   1.00
C453   C     0.49905   0.83343   0.02341   0.00000  Uiso   1.00
C454   C     0.53329   0.85692   0.45427   0.00000  Uiso   1.00
C455   C     0.46671   0.80974   0.04573   0.00000  Uiso   1.00
C456   C     0.43924   0.78500   0.47416   0.00000  Uiso   1.00
C457   C     0.43756   0.78480   0.02031   0.00000  Uiso   1.00
C458   C     0.56076   0.88166   0.02584   0.00000  Uiso   1.00
C459   C     0.57063   0.87490   0.38219   0.00000  Uiso   1.00
C460   C     0.42938   0.79175   0.11781   0.00000  Uiso   1.00
C461   C     0.56244   0.88186   0.47969   0.00000  Uiso   1.00
C462   C     0.35466   0.79085   0.24786   0.00000  Uiso   1.00
C463   C     0.64534   0.87582   0.25214   0.00000  Uiso   1.00
C464   C     0.64541   0.79083   0.24800   0.00000  Uiso   1.00
C465   C     0.35459   0.87584   0.25200   0.00000  Uiso   1.00
C466   C     0.62392   0.83332   0.25011   0.00000  Uiso   1.00
Cu467  Cu    0.50000   0.88022   0.25000   0.00000  Uiso   1.00
Cu468  Cu    0.50000   0.78645   0.25000   0.00000  Uiso   1.00
H469   H     0.44744   0.79229   0.38724   0.00000  Uiso   1.00
H470   H     0.37058   0.90906   0.25364   0.00000  Uiso   1.00
H471   H     0.45129   0.70993   0.20337   0.00000  Uiso   1.00
H472   H     0.54871   0.95674   0.29663   0.00000  Uiso   1.00
H473   H     0.54866   0.71032   0.29671   0.00000  Uiso   1.00
H474   H     0.45134   0.95635   0.20329   0.00000  Uiso   1.00
H475   H     0.56604   0.89426   0.35173   0.00000  Uiso   1.00
H476   H     0.43397   0.77241   0.14828   0.00000  Uiso   1.00
H477   H     0.55256   0.87439   0.11275   0.00000  Uiso   1.00
H478   H     0.41610   0.76587   0.45557   0.00000  Uiso   1.00
H479   H     0.58390   0.90080   0.04443   0.00000  Uiso   1.00
H480   H     0.41355   0.76425   0.03557   0.00000  Uiso   1.00
H481   H     0.58645   0.90241   0.46443   0.00000  Uiso   1.00
H482   H     0.37071   0.75763   0.24610   0.00000  Uiso   1.00
H483   H     0.62930   0.90903   0.25390   0.00000  Uiso   1.00
H484   H     0.62942   0.75761   0.24636   0.00000  Uiso   1.00
N485   N     0.50000   0.95069   0.25000   0.00000  Uiso   1.00
N486   N     0.50000   0.71598   0.25000   0.00000  Uiso   1.00
O487   O     0.43988   0.87291   0.25000   0.00000  Uiso   1.00
O488   O     0.39418   0.79965   0.10576   0.00000  Uiso   1.00
O489   O     0.56012   0.79375   0.25001   0.00000  Uiso   1.00
O490   O     0.56012   0.87291   0.25001   0.00000  Uiso   1.00
O491   O     0.43988   0.79375   0.25000   0.00000  Uiso   1.00
O492   O     0.49999   0.87293   0.18513   0.00000  Uiso   1.00
O493   O     0.50001   0.79373   0.31487   0.00000  Uiso   1.00
O494   O     0.50001   0.87293   0.31487   0.00000  Uiso   1.00
O495   O     0.49999   0.79373   0.18513   0.00000  Uiso   1.00
O496   O     0.60583   0.86699   0.39424   0.00000  Uiso   1.00
C497   C     0.75402   0.83334   0.24992   0.00000  Uiso   1.00
C498   C     0.70941   0.83335   0.24989   0.00000  Uiso   1.00
C499   C     0.80631   0.69136   0.22409   0.00000  Uiso   1.00
C500   C     0.86036   0.97530   0.27591   0.00000  Uiso   1.00
C501   C     0.86035   0.69156   0.27592   0.00000  Uiso   1.00
C502   C     0.80631   0.97510   0.22408   0.00000  Uiso   1.00
C503   C     0.83216   0.83323   0.16450   0.00000  Uiso   1.00
C504   C     0.83451   0.83344   0.33550   0.00000  Uiso   1.00
C505   C     0.86815   0.85590   0.40722   0.00000  Uiso   1.00
C506   C     0.79852   0.81076   0.09278   0.00000  Uiso   1.00
C507   C     0.83588   0.83371   0.38375   0.00000  Uiso   1.00
C508   C     0.91264   0.83332   0.25008   0.00000  Uiso   1.00
C509   C     0.83079   0.83296   0.11625   0.00000  Uiso   1.00
C510   C     0.80469   0.80999   0.40608   0.00000  Uiso   1.00
C511   C     0.86197   0.85668   0.09392   0.00000  Uiso   1.00
C512   C     0.80379   0.80928   0.45220   0.00000  Uiso   1.00
C513   C     0.86288   0.85739   0.04780   0.00000  Uiso   1.00
C514   C     0.83429   0.83323   0.47659   0.00000  Uiso   1.00
C515   C     0.83238   0.83343   0.02341   0.00000  Uiso   1.00
C516   C     0.86662   0.85692   0.45427   0.00000  Uiso   1.00
C517   C     0.80004   0.80974   0.04573   0.00000  Uiso   1.00
C518   C     0.77258   0.78500   0.47416   0.00000  Uiso   1.00
C519   C     0.77089   0.78480   0.02031   0.00000  Uiso   1.00
C520   C     0.89409   0.88166   0.02584   0.00000  Uiso   1.00
C521   C     0.90396   0.87490   0.38219   0.00000  Uiso   1.00
C522   C     0.76271   0.79175   0.11781   0.00000  Uiso   1.00
C523   C     0.89578   0.88186   0.47969   0.00000  Uiso   1.00
C524   C     0.68799   0.79085   0.24786   0.00000  Uiso   1.00
C525   C     0.97868   0.87582   0.25214   0.00000  Uiso   1.00
C526   C     0.97875   0.79083   0.24800   0.00000  Uiso   1.00
C527   C     0.68792   0.87584   0.25200   0.00000  Uiso   1.00
C528   C     0.95726   0.83332   0.25011   0.00000  Uiso   1.00
Cu529  Cu    0.83333   0.88022   0.25000   0.00000  Uiso   1.00
Cu530  Cu    0.83333   0.78645   0.25000   0.00000  Uiso   1.00
H531   H     0.78077   0.79229   0.38724   0.00000  Uiso   1.00
H532   H     0.70391   0.90906   0.25364   0.00000  Uiso   1.00
H533   H     0.78462   0.70993   0.20337   0.00000  Uiso   1.00
H534   H     0.88205   0.95674   0.29663   0.00000  Uiso   1.00
H535   H     0.88199   0.71032   0.29671   0.00000  Uiso   1.00
H536   H     0.78468   0.95635   0.20329   0.00000  Uiso   1.00
H537   H     0.89937   0.89426   0.35173   0.00000  Uiso   1.00
H538   H     0.76730   0.77241   0.14828   0.00000  Uiso   1.00
H539   H     0.88589   0.87439   0.11275   0.00000  Uiso   1.00
H540   H     0.74943   0.76587   0.45557   0.00000  Uiso   1.00
H541   H     0.91724   0.90080   0.04443   0.00000  Uiso   1.00
H542   H     0.74688   0.76425   0.03557   0.00000  Uiso   1.00
H543   H     0.91979   0.90241   0.46443   0.00000  Uiso   1.00
H544   H     0.70404   0.75763   0.24610   0.00000  Uiso   1.00
H545   H     0.96263   0.90903   0.25390   0.00000  Uiso   1.00
H546   H     0.96276   0.75761   0.24636   0.00000  Uiso   1.00
N547   N     0.83333   0.95069   0.25000   0.00000  Uiso   1.00
N548   N     0.83333   0.71598   0.25000   0.00000  Uiso   1.00
O549   O     0.77321   0.87291   0.25000   0.00000  Uiso   1.00
O550   O     0.72751   0.79965   0.10576   0.00000  Uiso   1.00
O551   O     0.89345   0.79375   0.25001   0.00000  Uiso   1.00
O552   O     0.89345   0.87291   0.25001   0.00000  Uiso   1.00
O553   O     0.77321   0.79375   0.25000   0.00000  Uiso   1.00
O554   O     0.83332   0.87293   0.18513   0.00000  Uiso   1.00
O555   O     0.83334   0.79373   0.31487   0.00000  Uiso   1.00
O556   O     0.83334   0.87293   0.31487   0.00000  Uiso   1.00
O557   O     0.83332   0.79373   0.18513   0.00000  Uiso   1.00
O558   O     0.93916   0.86699   0.39424   0.00000  Uiso   1.00
C559   C     0.08736   0.16668   0.74992   0.00000  Uiso   1.00
C560   C     0.04274   0.16668   0.74989   0.00000  Uiso   1.00
C561   C     0.13964   0.02470   0.72409   0.00000  Uiso   1.00
C562   C     0.19369   0.30864   0.77591   0.00000  Uiso   1.00
C563   C     0.19369   0.02490   0.77592   0.00000  Uiso   1.00
C564   C     0.13965   0.30844   0.72408   0.00000  Uiso   1.00
C565   C     0.16549   0.16656   0.66450   0.00000  Uiso   1.00
C566   C     0.16784   0.16677   0.83550   0.00000  Uiso   1.00
C567   C     0.20148   0.18923   0.90722   0.00000  Uiso   1.00
C568   C     0.13185   0.14410   0.59278   0.00000  Uiso   1.00
C569   C     0.16921   0.16704   0.88375   0.00000  Uiso   1.00
C570   C     0.24598   0.16666   0.75008   0.00000  Uiso   1.00
C571   C     0.16412   0.16629   0.61625   0.00000  Uiso   1.00
C572   C     0.13802   0.14332   0.90608   0.00000  Uiso   1.00
C573   C     0.19531   0.19002   0.59392   0.00000  Uiso   1.00
C574   C     0.13712   0.14261   0.95220   0.00000  Uiso   1.00
C575   C     0.19621   0.19073   0.54780   0.00000  Uiso   1.00
C576   C     0.16762   0.16656   0.97659   0.00000  Uiso   1.00
C577   C     0.16571   0.16677   0.52341   0.00000  Uiso   1.00
C578   C     0.19996   0.19025   0.95427   0.00000  Uiso   1.00
C579   C     0.13338   0.14308   0.54573   0.00000  Uiso   1.00
C580   C     0.10591   0.11834   0.97416   0.00000  Uiso   1.00
C581   C     0.10422   0.11814   0.52031   0.00000  Uiso   1.00
C582   C     0.22742   0.21500   0.52584   0.00000  Uiso   1.00
C583   C     0.23729   0.20823   0.88219   0.00000  Uiso   1.00
C584   C     0.09604   0.12509   0.61781   0.00000  Uiso   1.00
C585   C     0.22911   0.21519   0.97969   0.00000  Uiso   1.00
C586   C     0.02133   0.12418   0.74786   0.00000  Uiso   1.00
C587   C     0.31201   0.20915   0.75214   0.00000  Uiso   1.00
C588   C     0.31208   0.12416   0.74800   0.00000  Uiso   1.00
C589   C     0.02125   0.20917   0.75200   0.00000  Uiso   1.00
C590   C     0.29059   0.16665   0.75011   0.00000  Uiso   1.00
Cu591  Cu    0.16667   0.21355   0.75000   0.00000  Uiso   1.00
Cu592  Cu    0.16667   0.11978   0.75000   0.00000  Uiso   1.00
H593   H     0.11410   0.12562   0.88724   0.00000  Uiso   1.00
H594   H     0.03724   0.24239   0.75364   0.00000  Uiso   1.00
H595   H     0.11795   0.04326   0.70337   0.00000  Uiso   1.00
H596   H     0.21538   0.29007   0.79663   0.00000  Uiso   1.00
H597   H     0.21532   0.04365   0.79671   0.00000  Uiso   1.00
H598   H     0.11801   0.28968   0.70329   0.00000  Uiso   1.00
H599   H     0.23270   0.22759   0.85173   0.00000  Uiso   1.00
H600   H     0.10063   0.10574   0.64828   0.00000  Uiso   1.00
H601   H     0.21922   0.20772   0.61275   0.00000  Uiso   1.00
H602   H     0.08276   0.09920   0.95557   0.00000  Uiso   1.00
H603   H     0.25057   0.23413   0.54443   0.00000  Uiso   1.00
H604   H     0.08022   0.09758   0.53557   0.00000  Uiso   1.00
H605   H     0.25312   0.23574   0.96443   0.00000  Uiso   1.00
H606   H     0.03737   0.09097   0.74610   0.00000  Uiso   1.00
H607   H     0.29596   0.24237   0.75390   0.00000  Uiso   1.00
H608   H     0.29609   0.09094   0.74636   0.00000  Uiso   1.00
N609   N     0.16667   0.28402   0.75000   0.00000  Uiso   1.00
N610   N     0.16667   0.04931   0.75000   0.00000  Uiso   1.00
O611   O     0.10655   0.20625   0.75000   0.00000  Uiso   1.00
O612   O     0.06084   0.13299   0.60576   0.00000  Uiso   1.00
O613   O     0.22679   0.12709   0.75001   0.00000  Uiso   1.00
O614   O     0.22679   0.20625   0.75001   0.00000  Uiso   1.00
O615   O     0.10655   0.12709   0.75000   0.00000  Uiso   1.00
O616   O     0.16666   0.20627   0.68513   0.00000  Uiso   1.00
O617   O     0.16668   0.12707   0.81487   0.00000  Uiso   1.00
O618   O     0.16668   0.20627   0.81487   0.00000  Uiso   1.00
O619   O     0.16666   0.12707   0.68513   0.00000  Uiso   1.00
O620   O     0.27249   0.20032   0.89424   0.00000  Uiso   1.00
C621   C     0.42069   0.16668   0.74992   0.00000  Uiso   1.00
C622   C     0.37608   0.16668   0.74989   0.00000  Uiso   1.00
C623   C     0.47297   0.02470   0.72409   0.00000  Uiso   1.00
C624   C     0.52703   0.30864   0.77591   0.00000  Uiso   1.00
C625   C     0.52702   0.02490   0.77592   0.00000  Uiso   1.00
C626   C     0.47298   0.30844   0.72408   0.00000  Uiso   1.00
C627   C     0.49883   0.16656   0.66450   0.00000  Uiso   1.00
C628   C     0.50117   0.16677   0.83550   0.00000  Uiso   1.00
C629   C     0.53481   0.18923   0.90722   0.00000  Uiso   1.00
C630   C     0.46519   0.14410   0.59278   0.00000  Uiso   1.00
C631   C     0.50254   0.16704   0.88375   0.00000  Uiso   1.00
C632   C     0.57931   0.16666   0.75008   0.00000  Uiso   1.00
C633   C     0.49746   0.16629   0.61625   0.00000  Uiso   1.00
C634   C     0.47135   0.14332   0.90608   0.00000  Uiso   1.00
C635   C     0.52864   0.19002   0.59392   0.00000  Uiso   1.00
C636   C     0.47045   0.14261   0.95220   0.00000  Uiso   1.00
C637   C     0.52954   0.19073   0.54780   0.00000  Uiso   1.00
C638   C     0.50095   0.16656   0.97659   0.00000  Uiso   1.00
C639   C     0.49905   0.16677   0.52341   0.00000  Uiso   1.00
C640   C     0.53329   0.19025   0.95427   0.00000  Uiso   1.00
C641   C     0.46671   0.14308   0.54573   0.00000  Uiso   1.00
C642   C     0.43924   0.11834   0.97416   0.00000  Uiso   1.00
C643   C     0.43756   0.11814   0.52031   0.00000  Uiso   1.00
C644   C     0.56076   0.21500   0.52584   0.00000  Uiso   1.00
C645   C     0.57063   0.20823   0.88219   0.00000  Uiso   1.00
C646   C     0.42938   0.12509   0.61781   0.00000  Uiso   1.00
C647   C     0.56244   0.21519   0.97969   0.00000  Uiso   1.00
C648   C     0.35466   0.12418   0.74786   0.00000  Uiso   1.00
C649   C     0.64534   0.20915   0.75214   0.00000  Uiso   1.00
C650   C     0.64541   0.12416   0.74800   0.00000  Uiso   1.00
C651   C     0.35459   0.20917   0.75200   0.00000  Uiso   1.00
C652   C     0.62392   0.16665   0.75011   0.00000  Uiso   1.00
Cu653  Cu    0.50000   0.21355   0.75000   0.00000  Uiso   1.00
Cu654  Cu    0.50000   0.11978   0.75000   0.00000  Uiso   1.00
H655   H     0.44744   0.12562   0.88724   0.00000  Uiso   1.00
H656   H     0.37058   0.24239   0.75364   0.00000  Uiso   1.00
H657   H     0.45129   0.04326   0.70337   0.00000  Uiso   1.00
H658   H     0.54871   0.29007   0.79663   0.00000  Uiso   1.00
H659   H     0.54866   0.04365   0.79671   0.00000  Uiso   1.00
H660   H     0.45134   0.28968   0.70329   0.00000  Uiso   1.00
H661   H     0.56604   0.22759   0.85173   0.00000  Uiso   1.00
H662   H     0.43397   0.10574   0.64828   0.00000  Uiso   1.00
H663   H     0.55256   0.20772   0.61275   0.00000  Uiso   1.00
H664   H     0.41610   0.09920   0.95557   0.00000  Uiso   1.00
H665   H     0.58390   0.23413   0.54443   0.00000  Uiso   1.00
H666   H     0.41355   0.09758   0.53557   0.00000  Uiso   1.00
H667   H     0.58645   0.23574   0.96443   0.00000  Uiso   1.00
H668   H     0.37071   0.09097   0.74610   0.00000  Uiso   1.00
H669   H     0.62930   0.24237   0.75390   0.00000  Uiso   1.00
H670   H     0.62942   0.09094   0.74636   0.00000  Uiso   1.00
N671   N     0.50000   0.28402   0.75000   0.00000  Uiso   1.00
N672   N     0.50000   0.04931   0.75000   0.00000  Uiso   1.00
O673   O     0.43988   0.20625   0.75000   0.00000  Uiso   1.00
O674   O     0.39418   0.13299   0.60576   0.00000  Uiso   1.00
O675   O     0.56012   0.12709   0.75001   0.00000  Uiso   1.00
O676   O     0.56012   0.20625   0.75001   0.00000  Uiso   1.00
O677   O     0.43988   0.12709   0.75000   0.00000  Uiso   1.00
O678   O     0.49999   0.20627   0.68513   0.00000  Uiso   1.00
O679   O     0.50001   0.12707   0.81487   0.00000  Uiso   1.00
O680   O     0.50001   0.20627   0.81487   0.00000  Uiso   1.00
O681   O     0.49999   0.12707   0.68513   0.00000  Uiso   1.00
O682   O     0.60583   0.20032   0.89424   0.00000  Uiso   1.00
C683   C     0.75402   0.16668   0.74992   0.00000  Uiso   1.00
C684   C     0.70941   0.16668   0.74989   0.00000  Uiso   1.00
C685   C     0.80631   0.02470   0.72409   0.00000  Uiso   1.00
C686   C     0.86036   0.30864   0.77591   0.00000  Uiso   1.00
C687   C     0.86035   0.02490   0.77592   0.00000  Uiso   1.00
C688   C     0.80631   0.30844   0.72408   0.00000  Uiso   1.00
C689   C     0.83216   0.16656   0.66450   0.00000  Uiso   1.00
C690   C     0.83451   0.16677   0.83550   0.00000  Uiso   1.00
C691   C     0.86815   0.18923   0.90722   0.00000  Uiso   1.00
C692   C     0.79852   0.14410   0.59278   0.00000  Uiso   1.00
C693   C     0.83588   0.16704   0.88375   0.00000  Uiso   1.00
C694   C     0.91264   0.16666   0.75008   0.00000  Uiso   1.00
C695   C     0.83079   0.16629   0.61625   0.00000  Uiso   1.00
C696   C     0.80469   0.14332   0.90608   0.00000  Uiso   1.00
C697   C     0.86197   0.19002   0.59392   0.00000  Uiso   1.00
C698   C     0.80379   0.14261   0.95220   0.00000  Uiso   1.00
C699   C     0.86288   0.19073   0.54780   0.00000  Uiso   1.00
C700   C     0.83429   0.16656   0.97659   0.00000  Uiso   1.00
C701   C     0.83238   0.16677   0.52341   0.00000  Uiso   1.00
C702   C     0.86662   0.19025   0.95427   0.00000  Uiso   1.00
C703   C     0.80004   0.14308   0.54573   0.00000  Uiso   1.00
C704   C     0.77258   0.11834   0.97416   0.00000  Uiso   1.00
C705   C     0.77089   0.11814   0.52031   0.00000  Uiso   1.00
C706   C     0.89409   0.21500   0.52584   0.00000  Uiso   1.00
C707   C     0.90396   0.20823   0.88219   0.00000  Uiso   1.00
C708   C     0.76271   0.12509   0.61781   0.00000  Uiso   1.00
C709   C     0.89578   0.21519   0.97969   0.00000  Uiso   1.00
C710   C     0.68799   0.12418   0.74786   0.00000  Uiso   1.00
C711   C     0.97868   0.20915   0.75214   0.00000  Uiso   1.00
C712   C     0.97875   0.12416   0.74800   0.00000  Uiso   1.00
C713   C     0.68792   0.20917   0.75200   0.00000  Uiso   1.00
C714   C     0.95726   0.16665   0.75011   0.00000  Uiso   1.00
Cu715  Cu    0.83333   0.21355   0.75000   0.00000  Uiso   1.00
Cu716  Cu    0.83333   0.11978   0.75000   0.00000  Uiso   1.00
H717   H     0.78077   0.12562   0.88724   0.00000  Uiso   1.00
H718   H     0.70391   0.24239   0.75364   0.00000  Uiso   1.00
H719   H     0.78462   0.04326   0.70337   0.00000  Uiso   1.00
H720   H     0.88205   0.29007   0.79663   0.00000  Uiso   1.00
H721   H     0.88199   0.04365   0.79671   0.00000  Uiso   1.00
H722   H     0.78468   0.28968   0.70329   0.00000  Uiso   1.00
H723   H     0.89937   0.22759   0.85173   0.00000  Uiso   1.00
H724   H     0.76730   0.10574   0.64828   0.00000  Uiso   1.00
H725   H     0.88589   0.20772   0.61275   0.00000  Uiso   1.00
H726   H     0.74943   0.09920   0.95557   0.00000  Uiso   1.00
H727   H     0.91724   0.23413   0.54443   0.00000  Uiso   1.00
H728   H     0.74688   0.09758   0.53557   0.00000  Uiso   1.00
H729   H     0.91979   0.23574   0.96443   0.00000  Uiso   1.00
H730   H     0.70404   0.09097   0.74610   0.00000  Uiso   1.00
H731   H     0.96263   0.24237   0.75390   0.00000  Uiso   1.00
H732   H     0.96276   0.09094   0.74636   0.00000  Uiso   1.00
N733   N     0.83333   0.28402   0.75000   0.00000  Uiso   1.00
N734   N     0.83333   0.04931   0.75000   0.00000  Uiso   1.00
O735   O     0.77321   0.20625   0.75000   0.00000  Uiso   1.00
O736   O     0.72751   0.13299   0.60576   0.00000  Uiso   1.00
O737   O     0.89345   0.12709   0.75001   0.00000  Uiso   1.00
O738   O     0.89345   0.20625   0.75001   0.00000  Uiso   1.00
O739   O     0.77321   0.12709   0.75000   0.00000  Uiso   1.00
O740   O     0.83332   0.20627   0.68513   0.00000  Uiso   1.00
O741   O     0.83334   0.12707   0.81487   0.00000  Uiso   1.00
O742   O     0.83334   0.20627   0.81487   0.00000  Uiso   1.00
O743   O     0.83332   0.12707   0.68513   0.00000  Uiso   1.00
O744   O     0.93916   0.20032   0.89424   0.00000  Uiso   1.00
C745   C     0.08736   0.50001   0.74992   0.00000  Uiso   1.00
C746   C     0.04274   0.50002   0.74989   0.00000  Uiso   1.00
C747   C     0.13964   0.35803   0.72409   0.00000  Uiso   1.00
C748   C     0.19369   0.64197   0.77591   0.00000  Uiso   1.00
C749   C     0.19369   0.35823   0.77592   0.00000  Uiso   1.00
C750   C     0.13965   0.64177   0.72408   0.00000  Uiso   1.00
C751   C     0.16549   0.49989   0.66450   0.00000  Uiso   1.00
C752   C     0.16784   0.50011   0.83550   0.00000  Uiso   1.00
C753   C     0.20148   0.52256   0.90722   0.00000  Uiso   1.00
C754   C     0.13185   0.47743   0.59278   0.00000  Uiso   1.00
C755   C     0.16921   0.50038   0.88375   0.00000  Uiso   1.00
C756   C     0.24598   0.49999   0.75008   0.00000  Uiso   1.00
C757   C     0.16412   0.49962   0.61625   0.00000  Uiso   1.00
C758   C     0.13802   0.47666   0.90608   0.00000  Uiso   1.00
C759   C     0.19531   0.52335   0.59392   0.00000  Uiso   1.00
C760   C     0.13712   0.47594   0.95220   0.00000  Uiso   1.00
C761   C     0.19621   0.52406   0.54780   0.00000  Uiso   1.00
C762   C     0.16762   0.49990   0.97659   0.00000  Uiso   1.00
C763   C     0.16571   0.50010   0.52341   0.00000  Uiso   1.00
C764   C     0.19996   0.52358   0.95427   0.00000  Uiso   1.00
C765   C     0.13338   0.47641   0.54573   0.00000  Uiso   1.00
C766   C     0.10591   0.45167   0.97416   0.00000  Uiso   1.00
C767   C     0.10422   0.45147   0.52031   0.00000  Uiso   1.00
C768   C     0.22742   0.54833   0.52584   0.00000  Uiso   1.00
C769   C     0.23729   0.54157   0.88219   0.00000  Uiso   1.00
C770   C     0.09604   0.45842   0.61781   0.00000  Uiso   1.00
C771   C     0.22911   0.54852   0.97969   0.00000  Uiso   1.00
C772   C     0.02133   0.45751   0.74786   0.00000  Uiso   1.00
C773   C     0.31201   0.54249   0.75214   0.00000  Uiso   1.00
C774   C     0.31208   0.45750   0.74800   0.00000  Uiso   1.00
C775   C     0.02125   0.54250   0.75200   0.00000  Uiso   1.00
C776   C     0.29059   0.49998   0.75011   0.00000  Uiso   1.00
Cu777  Cu    0.16667   0.54689   0.75000   0.00000  Uiso   1.00
Cu778  Cu    0.16667   0.45311   0.75000   0.00000  Uiso   1.00
H779   H     0.11410   0.45896   0.88724   0.00000  Uiso   1.00
H780   H     0.03724   0.57573   0.75364   0.00000  Uiso   1.00
H781   H     0.11795   0.37660   0.70337   0.00000  Uiso   1.00
H782   H     0.21538   0.62340   0.79663   0.00000  Uiso   1.00
H783   H     0.21532   0.37699   0.79671   0.00000  Uiso   1.00
H784   H     0.11801   0.62301   0.70329   0.00000  Uiso   1.00
H785   H     0.23270   0.56092   0.85173   0.00000  Uiso   1.00
H786   H     0.10063   0.43908   0.64828   0.00000  Uiso   1.00
H787   H     0.21922   0.54105   0.61275   0.00000  Uiso   1.00
H788   H     0.08276   0.43254   0.95557   0.00000  Uiso   1.00
H789   H     0.25057   0.56747   0.54443   0.00000  Uiso   1.00
H790   H     0.08022   0.43092   0.53557   0.00000  Uiso   1.00
H791   H     0.25312   0.56907   0.96443   0.00000  Uiso   1.00
H792   H     0.03737   0.42430   0.74610   0.00000  Uiso   1.00
H793   H     0.29596   0.57570   0.75390   0.00000  Uiso   1.00
H794   H     0.29609   0.42427   0.74636   0.00000  Uiso   1.00
N795   N     0.16667   0.61736   0.75000   0.00000  Uiso   1.00
N796   N     0.16667   0.38264   0.75000   0.00000  Uiso   1.00
O797   O     0.10655   0.53958   0.75000   0.00000  Uiso   1.00
O798   O     0.06084   0.46632   0.60576   0.00000  Uiso   1.00
O799   O     0.22679   0.46042   0.75001   0.00000  Uiso   1.00
O800   O     0.22679   0.53958   0.75001   0.00000  Uiso   1.00
O801   O     0.10655   0.46042   0.75000   0.00000  Uiso   1.00
O802   O     0.16666   0.53960   0.68513   0.00000  Uiso   1.00
O803   O     0.16668   0.46040   0.81487   0.00000  Uiso   1.00
O804   O     0.16668   0.53960   0.81487   0.00000  Uiso   1.00
O805   O     0.16666   0.46040   0.68513   0.00000  Uiso   1.00
O806   O     0.27249   0.53365   0.89424   0.00000  Uiso   1.00
C807   C     0.42069   0.50001   0.74992   0.00000  Uiso   1.00
C808   C     0.37608   0.50002   0.74989   0.00000  Uiso   1.00
C809   C     0.47297   0.35803   0.72409   0.00000  Uiso   1.00
C810   C     0.52703   0.64197   0.77591   0.00000  Uiso   1.00
C811   C     0.52702   0.35823   0.77592   0.00000  Uiso   1.00
C812   C     0.47298   0.64177   0.72408   0.00000  Uiso   1.00
C813   C     0.49883   0.49989   0.66450   0.00000  Uiso   1.00
C814   C     0.50117   0.50011   0.83550   0.00000  Uiso   1.00
C815   C     0.53481   0.52256   0.90722   0.00000  Uiso   1.00
C816   C     0.46519   0.47743   0.59278   0.00000  Uiso   1.00
C817   C     0.50254   0.50038   0.88375   0.00000  Uiso   1.00
C818   C     0.57931   0.49999   0.75008   0.00000  Uiso   1.00
C819   C     0.49746   0.49962   0.61625   0.00000  Uiso   1.00
C820   C     0.47135   0.47666   0.90608   0.00000  Uiso   1.00
C821   C     0.52864   0.52335   0.59392   0.00000  Uiso   1.00
C822   C     0.47045   0.47594   0.95220   0.00000  Uiso   1.00
C823   C     0.52954   0.52406   0.54780   0.00000  Uiso   1.00
C824   C     0.50095   0.49990   0.97659   0.00000  Uiso   1.00
C825   C     0.49905   0.50010   0.52341   0.00000  Uiso   1.00
C826   C     0.53329   0.52358   0.95427   0.00000  Uiso   1.00
C827   C     0.46671   0.47641   0.54573   0.00000  Uiso   1.00
C828   C     0.43924   0.45167   0.97416   0.00000  Uiso   1.00
C829   C     0.43756   0.45147   0.52031   0.00000  Uiso   1.00
C830   C     0.56076   0.54833   0.52584   0.00000  Uiso   1.00
C831   C     0.57063   0.54157   0.88219   0.00000  Uiso   1.00
C832   C     0.42938   0.45842   0.61781   0.00000  Uiso   1.00
C833   C     0.56244   0.54852   0.97969   0.00000  Uiso   1.00
C834   C     0.35466   0.45751   0.74786   0.00000  Uiso   1.00
C835   C     0.64534   0.54249   0.75214   0.00000  Uiso   1.00
C836   C     0.64541   0.45750   0.74800   0.00000  Uiso   1.00
C837   C     0.35459   0.54250   0.75200   0.00000  Uiso   1.00
C838   C     0.62392   0.49998   0.75011   0.00000  Uiso   1.00
Cu839  Cu    0.50000   0.54689   0.75000   0.00000  Uiso   1.00
Cu840  Cu    0.50000   0.45311   0.75000   0.00000  Uiso   1.00
H841   H     0.44744   0.45896   0.88724   0.00000  Uiso   1.00
H842   H     0.37058   0.57573   0.75364   0.00000  Uiso   1.00
H843   H     0.45129   0.37660   0.70337   0.00000  Uiso   1.00
H844   H     0.54871   0.62340   0.79663   0.00000  Uiso   1.00
H845   H     0.54866   0.37699   0.79671   0.00000  Uiso   1.00
H846   H     0.45134   0.62301   0.70329   0.00000  Uiso   1.00
H847   H     0.56604   0.56092   0.85173   0.00000  Uiso   1.00
H848   H     0.43397   0.43908   0.64828   0.00000  Uiso   1.00
H849   H     0.55256   0.54105   0.61275   0.00000  Uiso   1.00
H850   H     0.41610   0.43254   0.95557   0.00000  Uiso   1.00
H851   H     0.58390   0.56747   0.54443   0.00000  Uiso   1.00
H852   H     0.41355   0.43092   0.53557   0.00000  Uiso   1.00
H853   H     0.58645   0.56907   0.96443   0.00000  Uiso   1.00
H854   H     0.37071   0.42430   0.74610   0.00000  Uiso   1.00
H855   H     0.62930   0.57570   0.75390   0.00000  Uiso   1.00
H856   H     0.62942   0.42427   0.74636   0.00000  Uiso   1.00
N857   N     0.50000   0.61736   0.75000   0.00000  Uiso   1.00
N858   N     0.50000   0.38264   0.75000   0.00000  Uiso   1.00
O859   O     0.43988   0.53958   0.75000   0.00000  Uiso   1.00
O860   O     0.39418   0.46632   0.60576   0.00000  Uiso   1.00
O861   O     0.56012   0.46042   0.75001   0.00000  Uiso   1.00
O862   O     0.56012   0.53958   0.75001   0.00000  Uiso   1.00
O863   O     0.43988   0.46042   0.75000   0.00000  Uiso   1.00
O864   O     0.49999   0.53960   0.68513   0.00000  Uiso   1.00
O865   O     0.50001   0.46040   0.81487   0.00000  Uiso   1.00
O866   O     0.50001   0.53960   0.81487   0.00000  Uiso   1.00
O867   O     0.49999   0.46040   0.68513   0.00000  Uiso   1.00
O868   O     0.60583   0.53365   0.89424   0.00000  Uiso   1.00
C869   C     0.75402   0.50001   0.74992   0.00000  Uiso   1.00
C870   C     0.70941   0.50002   0.74989   0.00000  Uiso   1.00
C871   C     0.80631   0.35803   0.72409   0.00000  Uiso   1.00
C872   C     0.86036   0.64197   0.77591   0.00000  Uiso   1.00
C873   C     0.86035   0.35823   0.77592   0.00000  Uiso   1.00
C874   C     0.80631   0.64177   0.72408   0.00000  Uiso   1.00
C875   C     0.83216   0.49989   0.66450   0.00000  Uiso   1.00
C876   C     0.83451   0.50011   0.83550   0.00000  Uiso   1.00
C877   C     0.86815   0.52256   0.90722   0.00000  Uiso   1.00
C878   C     0.79852   0.47743   0.59278   0.00000  Uiso   1.00
C879   C     0.83588   0.50038   0.88375   0.00000  Uiso   1.00
C880   C     0.91264   0.49999   0.75008   0.00000  Uiso   1.00
C881   C     0.83079   0.49962   0.61625   0.00000  Uiso   1.00
C882   C     0.80469   0.47666   0.90608   0.00000  Uiso   1.00
C883   C     0.86197   0.52335   0.59392   0.00000  Uiso   1.00
C884   C     0.80379   0.47594   0.95220   0.00000  Uiso   1.00
C885   C     0.86288   0.52406   0.54780   0.00000  Uiso   1.00
C886   C     0.83429   0.49990   0.97659   0.00000  Uiso   1.00
C887   C     0.83238   0.50010   0.52341   0.00000  Uiso   1.00
C888   C     0.86662   0.52358   0.95427   0.00000  Uiso   1.00
C889   C     0.80004   0.47641   0.54573   0.00000  Uiso   1.00
C890   C     0.77258   0.45167   0.97416   0.00000  Uiso   1.00
C891   C     0.77089   0.45147   0.52031   0.00000  Uiso   1.00
C892   C     0.89409   0.54833   0.52584   0.00000  Uiso   1.00
C893   C     0.90396   0.54157   0.88219   0.00000  Uiso   1.00
C894   C     0.76271   0.45842   0.61781   0.00000  Uiso   1.00
C895   C     0.89578   0.54852   0.97969   0.00000  Uiso   1.00
C896   C     0.68799   0.45751   0.74786   0.00000  Uiso   1.00
C897   C     0.97868   0.54249   0.75214   0.00000  Uiso   1.00
C898   C     0.97875   0.45750   0.74800   0.00000  Uiso   1.00
C899   C     0.68792   0.54250   0.75200   0.00000  Uiso   1.00
C900   C     0.95726   0.49998   0.75011   0.00000  Uiso   1.00
Cu901  Cu    0.83333   0.54689   0.75000   0.00000  Uiso   1.00
Cu902  Cu    0.83333   0.45311   0.75000   0.00000  Uiso   1.00
H903   H     0.78077   0.45896   0.88724   0.00000  Uiso   1.00
H904   H     0.70391   0.57573   0.75364   0.00000  Uiso   1.00
H905   H     0.78462   0.37660   0.70337   0.00000  Uiso   1.00
H906   H     0.88205   0.62340   0.79663   0.00000  Uiso   1.00
H907   H     0.88199   0.37699   0.79671   0.00000  Uiso   1.00
H908   H     0.78468   0.62301   0.70329   0.00000  Uiso   1.00
H909   H     0.89937   0.56092   0.85173   0.00000  Uiso   1.00
H910   H     0.76730   0.43908   0.64828   0.00000  Uiso   1.00
H911   H     0.88589   0.54105   0.61275   0.00000  Uiso   1.00
H912   H     0.74943   0.43254   0.95557   0.00000  Uiso   1.00
H913   H     0.91724   0.56747   0.54443   0.00000  Uiso   1.00
H914   H     0.74688   0.43092   0.53557   0.00000  Uiso   1.00
H915   H     0.91979   0.56907   0.96443   0.00000  Uiso   1.00
H916   H     0.70404   0.42430   0.74610   0.00000  Uiso   1.00
H917   H     0.96263   0.57570   0.75390   0.00000  Uiso   1.00
H918   H     0.96276   0.42427   0.74636   0.00000  Uiso   1.00
N919   N     0.83333   0.61736   0.75000   0.00000  Uiso   1.00
N920   N     0.83333   0.38264   0.75000   0.00000  Uiso   1.00
O921   O     0.77321   0.53958   0.75000   0.00000  Uiso   1.00
O922   O     0.72751   0.46632   0.60576   0.00000  Uiso   1.00
O923   O     0.89345   0.46042   0.75001   0.00000  Uiso   1.00
O924   O     0.89345   0.53958   0.75001   0.00000  Uiso   1.00
O925   O     0.77321   0.46042   0.75000   0.00000  Uiso   1.00
O926   O     0.83332   0.53960   0.68513   0.00000  Uiso   1.00
O927   O     0.83334   0.46040   0.81487   0.00000  Uiso   1.00
O928   O     0.83334   0.53960   0.81487   0.00000  Uiso   1.00
O929   O     0.83332   0.46040   0.68513   0.00000  Uiso   1.00
O930   O     0.93916   0.53365   0.89424   0.00000  Uiso   1.00
C931   C     0.08736   0.83334   0.74992   0.00000  Uiso   1.00
C932   C     0.04274   0.83335   0.74989   0.00000  Uiso   1.00
C933   C     0.13964   0.69136   0.72409   0.00000  Uiso   1.00
C934   C     0.19369   0.97530   0.77591   0.00000  Uiso   1.00
C935   C     0.19369   0.69156   0.77592   0.00000  Uiso   1.00
C936   C     0.13965   0.97510   0.72408   0.00000  Uiso   1.00
C937   C     0.16549   0.83323   0.66450   0.00000  Uiso   1.00
C938   C     0.16784   0.83344   0.83550   0.00000  Uiso   1.00
C939   C     0.20148   0.85590   0.90722   0.00000  Uiso   1.00
C940   C     0.13185   0.81076   0.59278   0.00000  Uiso   1.00
C941   C     0.16921   0.83371   0.88375   0.00000  Uiso   1.00
C942   C     0.24598   0.83332   0.75008   0.00000  Uiso   1.00
C943   C     0.16412   0.83296   0.61625   0.00000  Uiso   1.00
C944   C     0.13802   0.80999   0.90608   0.00000  Uiso   1.00
C945   C     0.19531   0.85668   0.59392   0.00000  Uiso   1.00
C946   C     0.13712   0.80928   0.95220   0.00000  Uiso   1.00
C947   C     0.19621   0.85739   0.54780   0.00000  Uiso   1.00
C948   C     0.16762   0.83323   0.97659   0.00000  Uiso   1.00
C949   C     0.16571   0.83343   0.52341   0.00000  Uiso   1.00
C950   C     0.19996   0.85692   0.95427   0.00000  Uiso   1.00
C951   C     0.13338   0.80974   0.54573   0.00000  Uiso   1.00
C952   C     0.10591   0.78500   0.97416   0.00000  Uiso   1.00
C953   C     0.10422   0.78480   0.52031   0.00000  Uiso   1.00
C954   C     0.22742   0.88166   0.52584   0.00000  Uiso   1.00
C955   C     0.23729   0.87490   0.88219   0.00000  Uiso   1.00
C956   C     0.09604   0.79175   0.61781   0.00000  Uiso   1.00
C957   C     0.22911   0.88186   0.97969   0.00000  Uiso   1.00
C958   C     0.02133   0.79085   0.74786   0.00000  Uiso   1.00
C959   C     0.31201   0.87582   0.75214   0.00000  Uiso   1.00
C960   C     0.31208   0.79083   0.74800   0.00000  Uiso   1.00
C961   C     0.02125   0.87584   0.75200   0.00000  Uiso   1.00
C962   C     0.29059   0.83332   0.75011   0.00000  Uiso   1.00
Cu963  Cu    0.16667   0.88022   0.75000   0.00000  Uiso   1.00
Cu964  Cu    0.16667   0.78645   0.75000   0.00000  Uiso   1.00
H965   H     0.11410   0.79229   0.88724   0.00000  Uiso   1.00
H966   H     0.03724   0.90906   0.75364   0.00000  Uiso   1.00
H967   H     0.11795   0.70993   0.70337   0.00000  Uiso   1.00
H968   H     0.21538   0.95674   0.79663   0.00000  Uiso   1.00
H969   H     0.21532   0.71032   0.79671   0.00000  Uiso   1.00
H970   H     0.11801   0.95635   0.70329   0.00000  Uiso   1.00
H971   H     0.23270   0.89426   0.85173   0.00000  Uiso   1.00
H972   H     0.10063   0.77241   0.64828   0.00000  Uiso   1.00
H973   H     0.21922   0.87439   0.61275   0.00000  Uiso   1.00
H974   H     0.08276   0.76587   0.95557   0.00000  Uiso   1.00
H975   H     0.25057   0.90080   0.54443   0.00000  Uiso   1.00
H976   H     0.08022   0.76425   0.53557   0.00000  Uiso   1.00
H977   H     0.25312   0.90241   0.96443   0.00000  Uiso   1.00
H978   H     0.03737   0.75763   0.74610   0.00000  Uiso   1.00
H979   H     0.29596   0.90903   0.75390   0.00000  Uiso   1.00
H980   H     0.29609   0.75761   0.74636   0.00000  Uiso   1.00
N981   N     0.16667   0.95069   0.75000   0.00000  Uiso   1.00
N982   N     0.16667   0.71598   0.75000   0.00000  Uiso   1.00
O983   O     0.10655   0.87291   0.75000   0.00000  Uiso   1.00
O984   O     0.06084   0.79965   0.60576   0.00000  Uiso   1.00
O985   O     0.22679   0.79375   0.75001   0.00000  Uiso   1.00
O986   O     0.22679   0.87291   0.75001   0.00000  Uiso   1.00
O987   O     0.10655   0.79375   0.75000   0.00000  Uiso   1.00
O988   O     0.16666   0.87293   0.68513   0.00000  Uiso   1.00
O989   O     0.16668   0.79373   0.81487   0.00000  Uiso   1.00
O990   O     0.16668   0.87293   0.81487   0.00000  Uiso   1.00
O991   O     0.16666   0.79373   0.68513   0.00000  Uiso   1.00
O992   O     0.27249   0.86699   0.89424   0.00000  Uiso   1.00
C993   C     0.42069   0.83334   0.74992   0.00000  Uiso   1.00
C994   C     0.37608   0.83335   0.74989   0.00000  Uiso   1.00
C995   C     0.47297   0.69136   0.72409   0.00000  Uiso   1.00
C996   C     0.52703   0.97530   0.77591   0.00000  Uiso   1.00
C997   C     0.52702   0.69156   0.77592   0.00000  Uiso   1.00
C998   C     0.47298   0.97510   0.72408   0.00000  Uiso   1.00
C999   C     0.49883   0.83323   0.66450   0.00000  Uiso   1.00
C1000  C     0.50117   0.83344   0.83550   0.00000  Uiso   1.00
C1001  C     0.53481   0.85590   0.90722   0.00000  Uiso   1.00
C1002  C     0.46519   0.81076   0.59278   0.00000  Uiso   1.00
C1003  C     0.50254   0.83371   0.88375   0.00000  Uiso   1.00
C1004  C     0.57931   0.83332   0.75008   0.00000  Uiso   1.00
C1005  C     0.49746   0.83296   0.61625   0.00000  Uiso   1.00
C1006  C     0.47135   0.80999   0.90608   0.00000  Uiso   1.00
C1007  C     0.52864   0.85668   0.59392   0.00000  Uiso   1.00
C1008  C     0.47045   0.80928   0.95220   0.00000  Uiso   1.00
C1009  C     0.52954   0.85739   0.54780   0.00000  Uiso   1.00
C1010  C     0.50095   0.83323   0.97659   0.00000  Uiso   1.00
C1011  C     0.49905   0.83343   0.52341   0.00000  Uiso   1.00
C1012  C     0.53329   0.85692   0.95427   0.00000  Uiso   1.00
C1013  C     0.46671   0.80974   0.54573   0.00000  Uiso   1.00
C1014  C     0.43924   0.78500   0.97416   0.00000  Uiso   1.00
C1015  C     0.43756   0.78480   0.52031   0.00000  Uiso   1.00
C1016  C     0.56076   0.88166   0.52584   0.00000  Uiso   1.00
C1017  C     0.57063   0.87490   0.88219   0.00000  Uiso   1.00
C1018  C     0.42938   0.79175   0.61781   0.00000  Uiso   1.00
C1019  C     0.56244   0.88186   0.97969   0.00000  Uiso   1.00
C1020  C     0.35466   0.79085   0.74786   0.00000  Uiso   1.00
C1021  C     0.64534   0.87582   0.75214   0.00000  Uiso   1.00
C1022  C     0.64541   0.79083   0.74800   0.00000  Uiso   1.00
C1023  C     0.35459   0.87584   0.75200   0.00000  Uiso   1.00
C1024  C     0.62392   0.83332   0.75011   0.00000  Uiso   1.00
Cu1025 Cu    0.50000   0.88022   0.75000   0.00000  Uiso   1.00
Cu1026 Cu    0.50000   0.78645   0.75000   0.00000  Uiso   1.00
H1027  H     0.44744   0.79229   0.88724   0.00000  Uiso   1.00
H1028  H     0.37058   0.90906   0.75364   0.00000  Uiso   1.00
H1029  H     0.45129   0.70993   0.70337   0.00000  Uiso   1.00
H1030  H     0.54871   0.95674   0.79663   0.00000  Uiso   1.00
H1031  H     0.54866   0.71032   0.79671   0.00000  Uiso   1.00
H1032  H     0.45134   0.95635   0.70329   0.00000  Uiso   1.00
H1033  H     0.56604   0.89426   0.85173   0.00000  Uiso   1.00
H1034  H     0.43397   0.77241   0.64828   0.00000  Uiso   1.00
H1035  H     0.55256   0.87439   0.61275   0.00000  Uiso   1.00
H1036  H     0.41610   0.76587   0.95557   0.00000  Uiso   1.00
H1037  H     0.58390   0.90080   0.54443   0.00000  Uiso   1.00
H1038  H     0.41355   0.76425   0.53557   0.00000  Uiso   1.00
H1039  H     0.58645   0.90241   0.96443   0.00000  Uiso   1.00
H1040  H     0.37071   0.75763   0.74610   0.00000  Uiso   1.00
H1041  H     0.62930   0.90903   0.75390   0.00000  Uiso   1.00
H1042  H     0.62942   0.75761   0.74636   0.00000  Uiso   1.00
N1043  N     0.50000   0.95069   0.75000   0.00000  Uiso   1.00
N1044  N     0.50000   0.71598   0.75000   0.00000  Uiso   1.00
O1045  O     0.43988   0.87291   0.75000   0.00000  Uiso   1.00
O1046  O     0.39418   0.79965   0.60576   0.00000  Uiso   1.00
O1047  O     0.56012   0.79375   0.75001   0.00000  Uiso   1.00
O1048  O     0.56012   0.87291   0.75001   0.00000  Uiso   1.00
O1049  O     0.43988   0.79375   0.75000   0.00000  Uiso   1.00
O1050  O     0.49999   0.87293   0.68513   0.00000  Uiso   1.00
O1051  O     0.50001   0.79373   0.81487   0.00000  Uiso   1.00
O1052  O     0.50001   0.87293   0.81487   0.00000  Uiso   1.00
O1053  O     0.49999   0.79373   0.68513   0.00000  Uiso   1.00
O1054  O     0.60583   0.86699   0.89424   0.00000  Uiso   1.00
C1055  C     0.75402   0.83334   0.74992   0.00000  Uiso   1.00
C1056  C     0.70941   0.83335   0.74989   0.00000  Uiso   1.00
C1057  C     0.80631   0.69136   0.72409   0.00000  Uiso   1.00
C1058  C     0.86036   0.97530   0.77591   0.00000  Uiso   1.00
C1059  C     0.86035   0.69156   0.77592   0.00000  Uiso   1.00
C1060  C     0.80631   0.97510   0.72408   0.00000  Uiso   1.00
C1061  C     0.83216   0.83323   0.66450   0.00000  Uiso   1.00
C1062  C     0.83451   0.83344   0.83550   0.00000  Uiso   1.00
C1063  C     0.86815   0.85590   0.90722   0.00000  Uiso   1.00
C1064  C     0.79852   0.81076   0.59278   0.00000  Uiso   1.00
C1065  C     0.83588   0.83371   0.88375   0.00000  Uiso   1.00
C1066  C     0.91264   0.83332   0.75008   0.00000  Uiso   1.00
C1067  C     0.83079   0.83296   0.61625   0.00000  Uiso   1.00
C1068  C     0.80469   0.80999   0.90608   0.00000  Uiso   1.00
C1069  C     0.86197   0.85668   0.59392   0.00000  Uiso   1.00
C1070  C     0.80379   0.80928   0.95220   0.00000  Uiso   1.00
C1071  C     0.86288   0.85739   0.54780   0.00000  Uiso   1.00
C1072  C     0.83429   0.83323   0.97659   0.00000  Uiso   1.00
C1073  C     0.83238   0.83343   0.52341   0.00000  Uiso   1.00
C1074  C     0.86662   0.85692   0.95427   0.00000  Uiso   1.00
C1075  C     0.80004   0.80974   0.54573   0.00000  Uiso   1.00
C1076  C     0.77258   0.78500   0.97416   0.00000  Uiso   1.00
C1077  C     0.77089   0.78480   0.52031   0.00000  Uiso   1.00
C1078  C     0.89409   0.88166   0.52584   0.00000  Uiso   1.00
C1079  C     0.90396   0.87490   0.88219   0.00000  Uiso   1.00
C1080  C     0.76271   0.79175   0.61781   0.00000  Uiso   1.00
C1081  C     0.89578   0.88186   0.97969   0.00000  Uiso   1.00
C1082  C     0.68799   0.79085   0.74786   0.00000  Uiso   1.00
C1083  C     0.97868   0.87582   0.75214   0.00000  Uiso   1.00
C1084  C     0.97875   0.79083   0.74800   0.00000  Uiso   1.00
C1085  C     0.68792   0.87584   0.75200   0.00000  Uiso   1.00
C1086  C     0.95726   0.83332   0.75011   0.00000  Uiso   1.00
Cu1087 Cu    0.83333   0.88022   0.75000   0.00000  Uiso   1.00
Cu1088 Cu    0.83333   0.78645   0.75000   0.00000  Uiso   1.00
H1089  H     0.78077   0.79229   0.88724   0.00000  Uiso   1.00
H1090  H     0.70391   0.90906   0.75364   0.00000  Uiso   1.00
H1091  H     0.78462   0.70993   0.70337   0.00000  Uiso   1.00
H1092  H     0.88205   0.95674   0.79663   0.00000  Uiso   1.00
H1093  H     0.88199   0.71032   0.79671   0.00000  Uiso   1.00
H1094  H     0.78468   0.95635   0.70329   0.00000  Uiso   1.00
H1095  H     0.89937   0.89426   0.85173   0.00000  Uiso   1.00
H1096  H     0.76730   0.77241   0.64828   0.00000  Uiso   1.00
H1097  H     0.88589   0.87439   0.61275   0.00000  Uiso   1.00
H1098  H     0.74943   0.76587   0.95557   0.00000  Uiso   1.00
H1099  H     0.91724   0.90080   0.54443   0.00000  Uiso   1.00
H1100  H     0.74688   0.76425   0.53557   0.00000  Uiso   1.00
H1101  H     0.91979   0.90241   0.96443   0.00000  Uiso   1.00
H1102  H     0.70404   0.75763   0.74610   0.00000  Uiso   1.00
H1103  H     0.96263   0.90903   0.75390   0.00000  Uiso   1.00
H1104  H     0.96276   0.75761   0.74636   0.00000  Uiso   1.00
N1105  N     0.83333   0.95069   0.75000   0.00000  Uiso   1.00
N1106  N     0.83333   0.71598   0.75000   0.00000  Uiso   1.00
O1107  O     0.77321   0.87291   0.75000   0.00000  Uiso   1.00
O1108  O     0.72751   0.79965   0.60576   0.00000  Uiso   1.00
O1109  O     0.89345   0.79375   0.75001   0.00000  Uiso   1.00
O1110  O     0.89345   0.87291   0.75001   0.00000  Uiso   1.00
O1111  O     0.77321   0.79375   0.75000   0.00000  Uiso   1.00
O1112  O     0.83332   0.87293   0.68513   0.00000  Uiso   1.00
O1113  O     0.83334   0.79373   0.81487   0.00000  Uiso   1.00
O1114  O     0.83334   0.87293   0.81487   0.00000  Uiso   1.00
O1115  O     0.83332   0.79373   0.68513   0.00000  Uiso   1.00
O1116  O     0.93916   0.86699   0.89424   0.00000  Uiso   1.00
loop_
_geom_bond_atom_site_label_1
_geom_bond_atom_site_label_2
_geom_bond_distance
_geom_bond_site_symmetry_2
_ccdc_geom_bond_type
C1     O57     1.291   .     A
C1     C2      1.450   .     S
C1     O53     1.291   .     A
C2     C31     1.401   .     A
C2     C28     1.401   .     A
C3     N52     1.367   .     A
C3     H37     1.081   .     S
C3     C378    1.417   1_545 S
C4     H38     1.081   .     S
C4     N51     1.367   .     A
C4     C191    1.417   .     S
C5     N52     1.367   .     A
C5     H39     1.082   .     S
C5     C376    1.417   1_545 S
C6     N51     1.367   .     A
C6     H40     1.082   .     S
C6     C189    1.417   .     S
C7     O58     1.291   .     A
C7     O61     1.291   .     A
C7     C13     1.452   .     S
C8     O60     1.291   .     A
C8     C11     1.452   .     S
C8     O59     1.291   .     A
C9     C25     1.490   .     S
C9     C11     1.413   .     A
C9     C20     1.416   .     A
C10    C26     1.490   .     S
C10    C21     1.416   .     A
C10    C13     1.413   .     A
C11    C14     1.394   .     A
C12    C32     1.450   .     S
C12    O56     1.291   .     A
C12    O55     1.291   .     A
C13    C15     1.394   .     A
C14    C16     1.388   .     A
C14    H35     1.086   .     S
C15    H43     1.086   .     S
C15    C17     1.388   .     A
C16    C22     1.397   .     A
C16    C18     1.409   .     A
C17    C19     1.409   .     A
C17    C24     1.397   .     A
C18    C20     1.421   .     A
C18    C577    1.410   .     S
C19    C21     1.421   .     A
C19    C576    1.410   1_554 S
C20    C27     1.409   .     A
C21    C23     1.409   .     A
C22    H44     1.084   .     S
C22    C581    1.390   .     S
C23    H46     1.080   .     S
C23    C580    1.390   1_554 S
C24    H45     1.084   .     S
C24    C585    1.390   1_554 S
C25    O62     1.221   .     D
C25    H41     1.083   .     S
C26    O54     1.221   .     D
C26    H42     1.083   .     S
C27    H47     1.080   .     S
C27    C582    1.390   .     S
C28    H48     1.083   .     S
C28    C154    1.383   1_455 S
C29    H49     1.083   .     S
C29    C32     1.401   .     A
C29    C93     1.383   .     S
C30    H50     1.083   .     S
C30    C32     1.401   .     A
C30    C90     1.383   .     S
C31    H36     1.083   .     S
C31    C153    1.383   1_455 S
Cu33   O58     1.962   .     S
Cu33   N51     2.013   .     S
Cu33   O56     1.964   .     S
Cu33   Cu34    2.679   .     S
Cu33   O60     1.964   .     S
Cu33   O53     1.965   .     S
Cu34   O57     1.964   .     S
Cu34   N52     2.013   .     S
Cu34   O55     1.965   .     S
Cu34   O59     1.962   .     S
Cu34   O61     1.964   .     S
C63    O119    1.291   .     A
C63    C64     1.450   .     S
C63    O115    1.291   .     A
C64    C93     1.401   .     A
C64    C90     1.401   .     A
C65    N114    1.367   .     A
C65    H99     1.081   .     S
C65    C440    1.417   1_545 S
C66    H100    1.081   .     S
C66    N113    1.367   .     A
C66    C253    1.417   .     S
C67    N114    1.367   .     A
C67    H101    1.082   .     S
C67    C438    1.417   1_545 S
C68    N113    1.367   .     A
C68    H102    1.082   .     S
C68    C251    1.417   .     S
C69    O120    1.291   .     A
C69    O123    1.291   .     A
C69    C75     1.452   .     S
C70    O122    1.291   .     A
C70    C73     1.452   .     S
C70    O121    1.291   .     A
C71    C87     1.490   .     S
C71    C73     1.413   .     A
C71    C82     1.416   .     A
C72    C88     1.490   .     S
C72    C83     1.416   .     A
C72    C75     1.413   .     A
C73    C76     1.394   .     A
C74    C94     1.450   .     S
C74    O118    1.291   .     A
C74    O117    1.291   .     A
C75    C77     1.394   .     A
C76    C78     1.388   .     A
C76    H97     1.086   .     S
C77    H105    1.086   .     S
C77    C79     1.388   .     A
C78    C84     1.397   .     A
C78    C80     1.409   .     A
C79    C81     1.409   .     A
C79    C86     1.397   .     A
C80    C82     1.421   .     A
C80    C639    1.410   .     S
C81    C83     1.421   .     A
C81    C638    1.410   1_554 S
C82    C89     1.409   .     A
C83    C85     1.409   .     A
C84    H106    1.084   .     S
C84    C643    1.390   .     S
C85    H108    1.080   .     S
C85    C642    1.390   1_554 S
C86    H107    1.084   .     S
C86    C647    1.390   1_554 S
C87    O124    1.221   .     D
C87    H103    1.083   .     S
C88    O116    1.221   .     D
C88    H104    1.083   .     S
C89    H109    1.080   .     S
C89    C644    1.390   .     S
C90    H110    1.083   .     S
C91    H111    1.083   .     S
C91    C94     1.401   .     A
C91    C155    1.383   .     S
C92    H112    1.083   .     S
C92    C94     1.401   .     A
C92    C152    1.383   .     S
C93    H98     1.083   .     S
Cu95   O120    1.962   .     S
Cu95   N113    2.013   .     S
Cu95   O118    1.964   .     S
Cu95   Cu96    2.679   .     S
Cu95   O122    1.964   .     S
Cu95   O115    1.965   .     S
Cu96   O119    1.964   .     S
Cu96   N114    2.013   .     S
Cu96   O117    1.965   .     S
Cu96   O121    1.962   .     S
Cu96   O123    1.964   .     S
C125   O181    1.291   .     A
C125   C126    1.450   .     S
C125   O177    1.291   .     A
C126   C155    1.401   .     A
C126   C152    1.401   .     A
C127   N176    1.367   .     A
C127   H161    1.081   .     S
C127   C502    1.417   1_545 S
C128   H162    1.081   .     S
C128   N175    1.367   .     A
C128   C315    1.417   .     S
C129   N176    1.367   .     A
C129   H163    1.082   .     S
C129   C500    1.417   1_545 S
C130   N175    1.367   .     A
C130   H164    1.082   .     S
C130   C313    1.417   .     S
C131   O182    1.291   .     A
C131   O185    1.291   .     A
C131   C137    1.452   .     S
C132   O184    1.291   .     A
C132   C135    1.452   .     S
C132   O183    1.291   .     A
C133   C149    1.490   .     S
C133   C135    1.413   .     A
C133   C144    1.416   .     A
C134   C150    1.490   .     S
C134   C145    1.416   .     A
C134   C137    1.413   .     A
C135   C138    1.394   .     A
C136   C156    1.450   .     S
C136   O180    1.291   .     A
C136   O179    1.291   .     A
C137   C139    1.394   .     A
C138   C140    1.388   .     A
C138   H159    1.086   .     S
C139   H167    1.086   .     S
C139   C141    1.388   .     A
C140   C146    1.397   .     A
C140   C142    1.409   .     A
C141   C143    1.409   .     A
C141   C148    1.397   .     A
C142   C144    1.421   .     A
C142   C701    1.410   .     S
C143   C145    1.421   .     A
C143   C700    1.410   1_554 S
C144   C151    1.409   .     A
C145   C147    1.409   .     A
C146   H168    1.084   .     S
C146   C705    1.390   .     S
C147   H170    1.080   .     S
C147   C704    1.390   1_554 S
C148   H169    1.084   .     S
C148   C709    1.390   1_554 S
C149   O186    1.221   .     D
C149   H165    1.083   .     S
C150   O178    1.221   .     D
C150   H166    1.083   .     S
C151   H171    1.080   .     S
C151   C706    1.390   .     S
C152   H172    1.083   .     S
C153   H173    1.083   .     S
C153   C156    1.401   .     A
C153   C31     1.383   1_655 S
C154   H174    1.083   .     S
C154   C156    1.401   .     A
C154   C28     1.383   1_655 S
C155   H160    1.083   .     S
Cu157  O182    1.962   .     S
Cu157  N175    2.013   .     S
Cu157  O180    1.964   .     S
Cu157  Cu158   2.679   .     S
Cu157  O184    1.964   .     S
Cu157  O177    1.965   .     S
Cu158  O181    1.964   .     S
Cu158  N176    2.013   .     S
Cu158  O179    1.965   .     S
Cu158  O183    1.962   .     S
Cu158  O185    1.964   .     S
C187   O243    1.291   .     A
C187   C188    1.450   .     S
C187   O239    1.291   .     A
C188   C217    1.401   .     A
C188   C214    1.401   .     A
C189   N238    1.367   .     A
C189   H223    1.081   .     S
C190   H224    1.081   .     S
C190   N237    1.367   .     A
C190   C377    1.417   .     S
C191   N238    1.367   .     A
C191   H225    1.082   .     S
C192   N237    1.367   .     A
C192   H226    1.082   .     S
C192   C375    1.417   .     S
C193   O244    1.291   .     A
C193   O247    1.291   .     A
C193   C199    1.452   .     S
C194   O246    1.291   .     A
C194   C197    1.452   .     S
C194   O245    1.291   .     A
C195   C211    1.490   .     S
C195   C197    1.413   .     A
C195   C206    1.416   .     A
C196   C212    1.490   .     S
C196   C207    1.416   .     A
C196   C199    1.413   .     A
C197   C200    1.394   .     A
C198   C218    1.450   .     S
C198   O242    1.291   .     A
C198   O241    1.291   .     A
C199   C201    1.394   .     A
C200   C202    1.388   .     A
C200   H221    1.086   .     S
C201   H229    1.086   .     S
C201   C203    1.388   .     A
C202   C208    1.397   .     A
C202   C204    1.409   .     A
C203   C205    1.409   .     A
C203   C210    1.397   .     A
C204   C206    1.421   .     A
C204   C763    1.410   .     S
C205   C207    1.421   .     A
C205   C762    1.410   1_554 S
C206   C213    1.409   .     A
C207   C209    1.409   .     A
C208   H230    1.084   .     S
C208   C767    1.390   .     S
C209   H232    1.080   .     S
C209   C766    1.390   1_554 S
C210   H231    1.084   .     S
C210   C771    1.390   1_554 S
C211   O248    1.221   .     D
C211   H227    1.083   .     S
C212   O240    1.221   .     D
C212   H228    1.083   .     S
C213   H233    1.080   .     S
C213   C768    1.390   .     S
C214   H234    1.083   .     S
C214   C340    1.383   1_455 S
C215   H235    1.083   .     S
C215   C218    1.401   .     A
C215   C279    1.383   .     S
C216   H236    1.083   .     S
C216   C218    1.401   .     A
C216   C276    1.383   .     S
C217   H222    1.083   .     S
C217   C339    1.383   1_455 S
Cu219  O244    1.962   .     S
Cu219  N237    2.013   .     S
Cu219  O242    1.964   .     S
Cu219  Cu220   2.679   .     S
Cu219  O246    1.964   .     S
Cu219  O239    1.965   .     S
Cu220  O243    1.964   .     S
Cu220  N238    2.013   .     S
Cu220  O241    1.965   .     S
Cu220  O245    1.962   .     S
Cu220  O247    1.964   .     S
C249   O305    1.291   .     A
C249   C250    1.450   .     S
C249   O301    1.291   .     A
C250   C279    1.401   .     A
C250   C276    1.401   .     A
C251   N300    1.367   .     A
C251   H285    1.081   .     S
C252   H286    1.081   .     S
C252   N299    1.367   .     A
C252   C439    1.417   .     S
C253   N300    1.367   .     A
C253   H287    1.082   .     S
C254   N299    1.367   .     A
C254   H288    1.082   .     S
C254   C437    1.417   .     S
C255   O306    1.291   .     A
C255   O309    1.291   .     A
C255   C261    1.452   .     S
C256   O308    1.291   .     A
C256   C259    1.452   .     S
C256   O307    1.291   .     A
C257   C273    1.490   .     S
C257   C259    1.413   .     A
C257   C268    1.416   .     A
C258   C274    1.490   .     S
C258   C269    1.416   .     A
C258   C261    1.413   .     A
C259   C262    1.394   .     A
C260   C280    1.450   .     S
C260   O304    1.291   .     A
C260   O303    1.291   .     A
C261   C263    1.394   .     A
C262   C264    1.388   .     A
C262   H283    1.086   .     S
C263   H291    1.086   .     S
C263   C265    1.388   .     A
C264   C270    1.397   .     A
C264   C266    1.409   .     A
C265   C267    1.409   .     A
C265   C272    1.397   .     A
C266   C268    1.421   .     A
C266   C825    1.410   .     S
C267   C269    1.421   .     A
C267   C824    1.410   1_554 S
C268   C275    1.409   .     A
C269   C271    1.409   .     A
C270   H292    1.084   .     S
C270   C829    1.390   .     S
C271   H294    1.080   .     S
C271   C828    1.390   1_554 S
C272   H293    1.084   .     S
C272   C833    1.390   1_554 S
C273   O310    1.221   .     D
C273   H289    1.083   .     S
C274   O302    1.221   .     D
C274   H290    1.083   .     S
C275   H295    1.080   .     S
C275   C830    1.390   .     S
C276   H296    1.083   .     S
C277   H297    1.083   .     S
C277   C280    1.401   .     A
C277   C341    1.383   .     S
C278   H298    1.083   .     S
C278   C280    1.401   .     A
C278   C338    1.383   .     S
C279   H284    1.083   .     S
Cu281  O306    1.962   .     S
Cu281  N299    2.013   .     S
Cu281  O304    1.964   .     S
Cu281  Cu282   2.679   .     S
Cu281  O308    1.964   .     S
Cu281  O301    1.965   .     S
Cu282  O305    1.964   .     S
Cu282  N300    2.013   .     S
Cu282  O303    1.965   .     S
Cu282  O307    1.962   .     S
Cu282  O309    1.964   .     S
C311   O367    1.291   .     A
C311   C312    1.450   .     S
C311   O363    1.291   .     A
C312   C341    1.401   .     A
C312   C338    1.401   .     A
C313   N362    1.367   .     A
C313   H347    1.081   .     S
C314   H348    1.081   .     S
C314   N361    1.367   .     A
C314   C501    1.417   .     S
C315   N362    1.367   .     A
C315   H349    1.082   .     S
C316   N361    1.367   .     A
C316   H350    1.082   .     S
C316   C499    1.417   .     S
C317   O368    1.291   .     A
C317   O371    1.291   .     A
C317   C323    1.452   .     S
C318   O370    1.291   .     A
C318   C321    1.452   .     S
C318   O369    1.291   .     A
C319   C335    1.490   .     S
C319   C321    1.413   .     A
C319   C330    1.416   .     A
C320   C336    1.490   .     S
C320   C331    1.416   .     A
C320   C323    1.413   .     A
C321   C324    1.394   .     A
C322   C342    1.450   .     S
C322   O366    1.291   .     A
C322   O365    1.291   .     A
C323   C325    1.394   .     A
C324   C326    1.388   .     A
C324   H345    1.086   .     S
C325   H353    1.086   .     S
C325   C327    1.388   .     A
C326   C332    1.397   .     A
C326   C328    1.409   .     A
C327   C329    1.409   .     A
C327   C334    1.397   .     A
C328   C330    1.421   .     A
C328   C887    1.410   .     S
C329   C331    1.421   .     A
C329   C886    1.410   1_554 S
C330   C337    1.409   .     A
C331   C333    1.409   .     A
C332   H354    1.084   .     S
C332   C891    1.390   .     S
C333   H356    1.080   .     S
C333   C890    1.390   1_554 S
C334   H355    1.084   .     S
C334   C895    1.390   1_554 S
C335   O372    1.221   .     D
C335   H351    1.083   .     S
C336   O364    1.221   .     D
C336   H352    1.083   .     S
C337   H357    1.080   .     S
C337   C892    1.390   .     S
C338   H358    1.083   .     S
C339   H359    1.083   .     S
C339   C342    1.401   .     A
C339   C217    1.383   1_655 S
C340   H360    1.083   .     S
C340   C342    1.401   .     A
C340   C214    1.383   1_655 S
C341   H346    1.083   .     S
Cu343  O368    1.962   .     S
Cu343  N361    2.013   .     S
Cu343  O366    1.964   .     S
Cu343  Cu344   2.679   .     S
Cu343  O370    1.964   .     S
Cu343  O363    1.965   .     S
Cu344  O367    1.964   .     S
Cu344  N362    2.013   .     S
Cu344  O365    1.965   .     S
Cu344  O369    1.962   .     S
Cu344  O371    1.964   .     S
C373   O429    1.291   .     A
C373   C374    1.450   .     S
C373   O425    1.291   .     A
C374   C403    1.401   .     A
C374   C400    1.401   .     A
C375   N424    1.367   .     A
C375   H409    1.081   .     S
C376   H410    1.081   .     S
C376   N423    1.367   .     A
C376   C5      1.417   1_565 S
C377   N424    1.367   .     A
C377   H411    1.082   .     S
C378   N423    1.367   .     A
C378   H412    1.082   .     S
C378   C3      1.417   1_565 S
C379   O430    1.291   .     A
C379   O433    1.291   .     A
C379   C385    1.452   .     S
C380   O432    1.291   .     A
C380   C383    1.452   .     S
C380   O431    1.291   .     A
C381   C397    1.490   .     S
C381   C383    1.413   .     A
C381   C392    1.416   .     A
C382   C398    1.490   .     S
C382   C393    1.416   .     A
C382   C385    1.413   .     A
C383   C386    1.394   .     A
C384   C404    1.450   .     S
C384   O428    1.291   .     A
C384   O427    1.291   .     A
C385   C387    1.394   .     A
C386   C388    1.388   .     A
C386   H407    1.086   .     S
C387   H415    1.086   .     S
C387   C389    1.388   .     A
C388   C394    1.397   .     A
C388   C390    1.409   .     A
C389   C391    1.409   .     A
C389   C396    1.397   .     A
C390   C392    1.421   .     A
C390   C949    1.410   .     S
C391   C393    1.421   .     A
C391   C948    1.410   1_554 S
C392   C399    1.409   .     A
C393   C395    1.409   .     A
C394   H416    1.084   .     S
C394   C953    1.390   .     S
C395   H418    1.080   .     S
C395   C952    1.390   1_554 S
C396   H417    1.084   .     S
C396   C957    1.390   1_554 S
C397   O434    1.221   .     D
C397   H413    1.083   .     S
C398   O426    1.221   .     D
C398   H414    1.083   .     S
C399   H419    1.080   .     S
C399   C954    1.390   .     S
C400   H420    1.083   .     S
C400   C526    1.383   1_455 S
C401   H421    1.083   .     S
C401   C404    1.401   .     A
C401   C465    1.383   .     S
C402   H422    1.083   .     S
C402   C404    1.401   .     A
C402   C462    1.383   .     S
C403   H408    1.083   .     S
C403   C525    1.383   1_455 S
Cu405  O430    1.962   .     S
Cu405  N423    2.013   .     S
Cu405  O428    1.964   .     S
Cu405  Cu406   2.679   .     S
Cu405  O432    1.964   .     S
Cu405  O425    1.965   .     S
Cu406  O429    1.964   .     S
Cu406  N424    2.013   .     S
Cu406  O427    1.965   .     S
Cu406  O431    1.962   .     S
Cu406  O433    1.964   .     S
C435   O491    1.291   .     A
C435   C436    1.450   .     S
C435   O487    1.291   .     A
C436   C465    1.401   .     A
C436   C462    1.401   .     A
C437   N486    1.367   .     A
C437   H471    1.081   .     S
C438   H472    1.081   .     S
C438   N485    1.367   .     A
C438   C67     1.417   1_565 S
C439   N486    1.367   .     A
C439   H473    1.082   .     S
C440   N485    1.367   .     A
C440   H474    1.082   .     S
C440   C65     1.417   1_565 S
C441   O492    1.291   .     A
C441   O495    1.291   .     A
C441   C447    1.452   .     S
C442   O494    1.291   .     A
C442   C445    1.452   .     S
C442   O493    1.291   .     A
C443   C459    1.490   .     S
C443   C445    1.413   .     A
C443   C454    1.416   .     A
C444   C460    1.490   .     S
C444   C455    1.416   .     A
C444   C447    1.413   .     A
C445   C448    1.394   .     A
C446   C466    1.450   .     S
C446   O490    1.291   .     A
C446   O489    1.291   .     A
C447   C449    1.394   .     A
C448   C450    1.388   .     A
C448   H469    1.086   .     S
C449   H477    1.086   .     S
C449   C451    1.388   .     A
C450   C456    1.397   .     A
C450   C452    1.409   .     A
C451   C453    1.409   .     A
C451   C458    1.397   .     A
C452   C454    1.421   .     A
C452   C1011   1.410   .     S
C453   C455    1.421   .     A
C453   C1010   1.410   1_554 S
C454   C461    1.409   .     A
C455   C457    1.409   .     A
C456   H478    1.084   .     S
C456   C1015   1.390   .     S
C457   H480    1.080   .     S
C457   C1014   1.390   1_554 S
C458   H479    1.084   .     S
C458   C1019   1.390   1_554 S
C459   O496    1.221   .     D
C459   H475    1.083   .     S
C460   O488    1.221   .     D
C460   H476    1.083   .     S
C461   H481    1.080   .     S
C461   C1016   1.390   .     S
C462   H482    1.083   .     S
C463   H483    1.083   .     S
C463   C466    1.401   .     A
C463   C527    1.383   .     S
C464   H484    1.083   .     S
C464   C466    1.401   .     A
C464   C524    1.383   .     S
C465   H470    1.083   .     S
Cu467  O492    1.962   .     S
Cu467  N485    2.013   .     S
Cu467  O490    1.964   .     S
Cu467  Cu468   2.679   .     S
Cu467  O494    1.964   .     S
Cu467  O487    1.965   .     S
Cu468  O491    1.964   .     S
Cu468  N486    2.013   .     S
Cu468  O489    1.965   .     S
Cu468  O493    1.962   .     S
Cu468  O495    1.964   .     S
C497   O553    1.291   .     A
C497   C498    1.450   .     S
C497   O549    1.291   .     A
C498   C527    1.401   .     A
C498   C524    1.401   .     A
C499   N548    1.367   .     A
C499   H533    1.081   .     S
C500   H534    1.081   .     S
C500   N547    1.367   .     A
C500   C129    1.417   1_565 S
C501   N548    1.367   .     A
C501   H535    1.082   .     S
C502   N547    1.367   .     A
C502   H536    1.082   .     S
C502   C127    1.417   1_565 S
C503   O554    1.291   .     A
C503   O557    1.291   .     A
C503   C509    1.452   .     S
C504   O556    1.291   .     A
C504   C507    1.452   .     S
C504   O555    1.291   .     A
C505   C521    1.490   .     S
C505   C507    1.413   .     A
C505   C516    1.416   .     A
C506   C522    1.490   .     S
C506   C517    1.416   .     A
C506   C509    1.413   .     A
C507   C510    1.394   .     A
C508   C528    1.450   .     S
C508   O552    1.291   .     A
C508   O551    1.291   .     A
C509   C511    1.394   .     A
C510   C512    1.388   .     A
C510   H531    1.086   .     S
C511   H539    1.086   .     S
C511   C513    1.388   .     A
C512   C518    1.397   .     A
C512   C514    1.409   .     A
C513   C515    1.409   .     A
C513   C520    1.397   .     A
C514   C516    1.421   .     A
C514   C1073   1.410   .     S
C515   C517    1.421   .     A
C515   C1072   1.410   1_554 S
C516   C523    1.409   .     A
C517   C519    1.409   .     A
C518   H540    1.084   .     S
C518   C1077   1.390   .     S
C519   H542    1.080   .     S
C519   C1076   1.390   1_554 S
C520   H541    1.084   .     S
C520   C1081   1.390   1_554 S
C521   O558    1.221   .     D
C521   H537    1.083   .     S
C522   O550    1.221   .     D
C522   H538    1.083   .     S
C523   H543    1.080   .     S
C523   C1078   1.390   .     S
C524   H544    1.083   .     S
C525   H545    1.083   .     S
C525   C528    1.401   .     A
C525   C403    1.383   1_655 S
C526   H546    1.083   .     S
C526   C528    1.401   .     A
C526   C400    1.383   1_655 S
C527   H532    1.083   .     S
Cu529  O554    1.962   .     S
Cu529  N547    2.013   .     S
Cu529  O552    1.964   .     S
Cu529  Cu530   2.679   .     S
Cu529  O556    1.964   .     S
Cu529  O549    1.965   .     S
Cu530  O553    1.964   .     S
Cu530  N548    2.013   .     S
Cu530  O551    1.965   .     S
Cu530  O555    1.962   .     S
Cu530  O557    1.964   .     S
C559   O615    1.291   .     A
C559   C560    1.450   .     S
C559   O611    1.291   .     A
C560   C589    1.401   .     A
C560   C586    1.401   .     A
C561   N610    1.367   .     A
C561   H595    1.081   .     S
C561   C936    1.417   1_545 S
C562   H596    1.081   .     S
C562   N609    1.367   .     A
C562   C749    1.417   .     S
C563   N610    1.367   .     A
C563   H597    1.082   .     S
C563   C934    1.417   1_545 S
C564   N609    1.367   .     A
C564   H598    1.082   .     S
C564   C747    1.417   .     S
C565   O616    1.291   .     A
C565   O619    1.291   .     A
C565   C571    1.452   .     S
C566   O618    1.291   .     A
C566   C569    1.452   .     S
C566   O617    1.291   .     A
C567   C583    1.490   .     S
C567   C569    1.413   .     A
C567   C578    1.416   .     A
C568   C584    1.490   .     S
C568   C579    1.416   .     A
C568   C571    1.413   .     A
C569   C572    1.394   .     A
C570   C590    1.450   .     S
C570   O614    1.291   .     A
C570   O613    1.291   .     A
C571   C573    1.394   .     A
C572   C574    1.388   .     A
C572   H593    1.086   .     S
C573   H601    1.086   .     S
C573   C575    1.388   .     A
C574   C580    1.397   .     A
C574   C576    1.409   .     A
C575   C577    1.409   .     A
C575   C582    1.397   .     A
C576   C578    1.421   .     A
C576   C19     1.410   1_556 S
C577   C579    1.421   .     A
C578   C585    1.409   .     A
C579   C581    1.409   .     A
C580   H602    1.084   .     S
C580   C23     1.390   1_556 S
C581   H604    1.080   .     S
C582   H603    1.084   .     S
C583   O620    1.221   .     D
C583   H599    1.083   .     S
C584   O612    1.221   .     D
C584   H600    1.083   .     S
C585   H605    1.080   .     S
C585   C24     1.390   1_556 S
C586   H606    1.083   .     S
C586   C712    1.383   1_455 S
C587   H607    1.083   .     S
C587   C590    1.401   .     A
C587   C651    1.383   .     S
C588   H608    1.083   .     S
C588   C590    1.401   .     A
C588   C648    1.383   .     S
C589   H594    1.083   .     S
C589   C711    1.383   1_455 S
Cu591  O616    1.962   .     S
Cu591  N609    2.013   .     S
Cu591  O614    1.964   .     S
Cu591  Cu592   2.679   .     S
Cu591  O618    1.964   .     S
Cu591  O611    1.965   .     S
Cu592  O615    1.964   .     S
Cu592  N610    2.013   .     S
Cu592  O613    1.965   .     S
Cu592  O617    1.962   .     S
Cu592  O619    1.964   .     S
C621   O677    1.291   .     A
C621   C622    1.450   .     S
C621   O673    1.291   .     A
C622   C651    1.401   .     A
C622   C648    1.401   .     A
C623   N672    1.367   .     A
C623   H657    1.081   .     S
C623   C998    1.417   1_545 S
C624   H658    1.081   .     S
C624   N671    1.367   .     A
C624   C811    1.417   .     S
C625   N672    1.367   .     A
C625   H659    1.082   .     S
C625   C996    1.417   1_545 S
C626   N671    1.367   .     A
C626   H660    1.082   .     S
C626   C809    1.417   .     S
C627   O678    1.291   .     A
C627   O681    1.291   .     A
C627   C633    1.452   .     S
C628   O680    1.291   .     A
C628   C631    1.452   .     S
C628   O679    1.291   .     A
C629   C645    1.490   .     S
C629   C631    1.413   .     A
C629   C640    1.416   .     A
C630   C646    1.490   .     S
C630   C641    1.416   .     A
C630   C633    1.413   .     A
C631   C634    1.394   .     A
C632   C652    1.450   .     S
C632   O676    1.291   .     A
C632   O675    1.291   .     A
C633   C635    1.394   .     A
C634   C636    1.388   .     A
C634   H655    1.086   .     S
C635   H663    1.086   .     S
C635   C637    1.388   .     A
C636   C642    1.397   .     A
C636   C638    1.409   .     A
C637   C639    1.409   .     A
C637   C644    1.397   .     A
C638   C640    1.421   .     A
C638   C81     1.410   1_556 S
C639   C641    1.421   .     A
C640   C647    1.409   .     A
C641   C643    1.409   .     A
C642   H664    1.084   .     S
C642   C85     1.390   1_556 S
C643   H666    1.080   .     S
C644   H665    1.084   .     S
C645   O682    1.221   .     D
C645   H661    1.083   .     S
C646   O674    1.221   .     D
C646   H662    1.083   .     S
C647   H667    1.080   .     S
C647   C86     1.390   1_556 S
C648   H668    1.083   .     S
C649   H669    1.083   .     S
C649   C652    1.401   .     A
C649   C713    1.383   .     S
C650   H670    1.083   .     S
C650   C652    1.401   .     A
C650   C710    1.383   .     S
C651   H656    1.083   .     S
Cu653  O678    1.962   .     S
Cu653  N671    2.013   .     S
Cu653  O676    1.964   .     S
Cu653  Cu654   2.679   .     S
Cu653  O680    1.964   .     S
Cu653  O673    1.965   .     S
Cu654  O677    1.964   .     S
Cu654  N672    2.013   .     S
Cu654  O675    1.965   .     S
Cu654  O679    1.962   .     S
Cu654  O681    1.964   .     S
C683   O739    1.291   .     A
C683   C684    1.450   .     S
C683   O735    1.291   .     A
C684   C713    1.401   .     A
C684   C710    1.401   .     A
C685   N734    1.367   .     A
C685   H719    1.081   .     S
C685   C1060   1.417   1_545 S
C686   H720    1.081   .     S
C686   N733    1.367   .     A
C686   C873    1.417   .     S
C687   N734    1.367   .     A
C687   H721    1.082   .     S
C687   C1058   1.417   1_545 S
C688   N733    1.367   .     A
C688   H722    1.082   .     S
C688   C871    1.417   .     S
C689   O740    1.291   .     A
C689   O743    1.291   .     A
C689   C695    1.452   .     S
C690   O742    1.291   .     A
C690   C693    1.452   .     S
C690   O741    1.291   .     A
C691   C707    1.490   .     S
C691   C693    1.413   .     A
C691   C702    1.416   .     A
C692   C708    1.490   .     S
C692   C703    1.416   .     A
C692   C695    1.413   .     A
C693   C696    1.394   .     A
C694   C714    1.450   .     S
C694   O738    1.291   .     A
C694   O737    1.291   .     A
C695   C697    1.394   .     A
C696   C698    1.388   .     A
C696   H717    1.086   .     S
C697   H725    1.086   .     S
C697   C699    1.388   .     A
C698   C704    1.397   .     A
C698   C700    1.409   .     A
C699   C701    1.409   .     A
C699   C706    1.397   .     A
C700   C702    1.421   .     A
C700   C143    1.410   1_556 S
C701   C703    1.421   .     A
C702   C709    1.409   .     A
C703   C705    1.409   .     A
C704   H726    1.084   .     S
C704   C147    1.390   1_556 S
C705   H728    1.080   .     S
C706   H727    1.084   .     S
C707   O744    1.221   .     D
C707   H723    1.083   .     S
C708   O736    1.221   .     D
C708   H724    1.083   .     S
C709   H729    1.080   .     S
C709   C148    1.390   1_556 S
C710   H730    1.083   .     S
C711   H731    1.083   .     S
C711   C714    1.401   .     A
C711   C589    1.383   1_655 S
C712   H732    1.083   .     S
C712   C714    1.401   .     A
C712   C586    1.383   1_655 S
C713   H718    1.083   .     S
Cu715  O740    1.962   .     S
Cu715  N733    2.013   .     S
Cu715  O738    1.964   .     S
Cu715  Cu716   2.679   .     S
Cu715  O742    1.964   .     S
Cu715  O735    1.965   .     S
Cu716  O739    1.964   .     S
Cu716  N734    2.013   .     S
Cu716  O737    1.965   .     S
Cu716  O741    1.962   .     S
Cu716  O743    1.964   .     S
C745   O801    1.291   .     A
C745   C746    1.450   .     S
C745   O797    1.291   .     A
C746   C775    1.401   .     A
C746   C772    1.401   .     A
C747   N796    1.367   .     A
C747   H781    1.081   .     S
C748   H782    1.081   .     S
C748   N795    1.367   .     A
C748   C935    1.417   .     S
C749   N796    1.367   .     A
C749   H783    1.082   .     S
C750   N795    1.367   .     A
C750   H784    1.082   .     S
C750   C933    1.417   .     S
C751   O802    1.291   .     A
C751   O805    1.291   .     A
C751   C757    1.452   .     S
C752   O804    1.291   .     A
C752   C755    1.452   .     S
C752   O803    1.291   .     A
C753   C769    1.490   .     S
C753   C755    1.413   .     A
C753   C764    1.416   .     A
C754   C770    1.490   .     S
C754   C765    1.416   .     A
C754   C757    1.413   .     A
C755   C758    1.394   .     A
C756   C776    1.450   .     S
C756   O800    1.291   .     A
C756   O799    1.291   .     A
C757   C759    1.394   .     A
C758   C760    1.388   .     A
C758   H779    1.086   .     S
C759   H787    1.086   .     S
C759   C761    1.388   .     A
C760   C766    1.397   .     A
C760   C762    1.409   .     A
C761   C763    1.409   .     A
C761   C768    1.397   .     A
C762   C764    1.421   .     A
C762   C205    1.410   1_556 S
C763   C765    1.421   .     A
C764   C771    1.409   .     A
C765   C767    1.409   .     A
C766   H788    1.084   .     S
C766   C209    1.390   1_556 S
C767   H790    1.080   .     S
C768   H789    1.084   .     S
C769   O806    1.221   .     D
C769   H785    1.083   .     S
C770   O798    1.221   .     D
C770   H786    1.083   .     S
C771   H791    1.080   .     S
C771   C210    1.390   1_556 S
C772   H792    1.083   .     S
C772   C898    1.383   1_455 S
C773   H793    1.083   .     S
C773   C776    1.401   .     A
C773   C837    1.383   .     S
C774   H794    1.083   .     S
C774   C776    1.401   .     A
C774   C834    1.383   .     S
C775   H780    1.083   .     S
C775   C897    1.383   1_455 S
Cu777  O802    1.962   .     S
Cu777  N795    2.013   .     S
Cu777  O800    1.964   .     S
Cu777  Cu778   2.679   .     S
Cu777  O804    1.964   .     S
Cu777  O797    1.965   .     S
Cu778  O801    1.964   .     S
Cu778  N796    2.013   .     S
Cu778  O799    1.965   .     S
Cu778  O803    1.962   .     S
Cu778  O805    1.964   .     S
C807   O863    1.291   .     A
C807   C808    1.450   .     S
C807   O859    1.291   .     A
C808   C837    1.401   .     A
C808   C834    1.401   .     A
C809   N858    1.367   .     A
C809   H843    1.081   .     S
C810   H844    1.081   .     S
C810   N857    1.367   .     A
C810   C997    1.417   .     S
C811   N858    1.367   .     A
C811   H845    1.082   .     S
C812   N857    1.367   .     A
C812   H846    1.082   .     S
C812   C995    1.417   .     S
C813   O864    1.291   .     A
C813   O867    1.291   .     A
C813   C819    1.452   .     S
C814   O866    1.291   .     A
C814   C817    1.452   .     S
C814   O865    1.291   .     A
C815   C831    1.490   .     S
C815   C817    1.413   .     A
C815   C826    1.416   .     A
C816   C832    1.490   .     S
C816   C827    1.416   .     A
C816   C819    1.413   .     A
C817   C820    1.394   .     A
C818   C838    1.450   .     S
C818   O862    1.291   .     A
C818   O861    1.291   .     A
C819   C821    1.394   .     A
C820   C822    1.388   .     A
C820   H841    1.086   .     S
C821   H849    1.086   .     S
C821   C823    1.388   .     A
C822   C828    1.397   .     A
C822   C824    1.409   .     A
C823   C825    1.409   .     A
C823   C830    1.397   .     A
C824   C826    1.421   .     A
C824   C267    1.410   1_556 S
C825   C827    1.421   .     A
C826   C833    1.409   .     A
C827   C829    1.409   .     A
C828   H850    1.084   .     S
C828   C271    1.390   1_556 S
C829   H852    1.080   .     S
C830   H851    1.084   .     S
C831   O868    1.221   .     D
C831   H847    1.083   .     S
C832   O860    1.221   .     D
C832   H848    1.083   .     S
C833   H853    1.080   .     S
C833   C272    1.390   1_556 S
C834   H854    1.083   .     S
C835   H855    1.083   .     S
C835   C838    1.401   .     A
C835   C899    1.383   .     S
C836   H856    1.083   .     S
C836   C838    1.401   .     A
C836   C896    1.383   .     S
C837   H842    1.083   .     S
Cu839  O864    1.962   .     S
Cu839  N857    2.013   .     S
Cu839  O862    1.964   .     S
Cu839  Cu840   2.679   .     S
Cu839  O866    1.964   .     S
Cu839  O859    1.965   .     S
Cu840  O863    1.964   .     S
Cu840  N858    2.013   .     S
Cu840  O861    1.965   .     S
Cu840  O865    1.962   .     S
Cu840  O867    1.964   .     S
C869   O925    1.291   .     A
C869   C870    1.450   .     S
C869   O921    1.291   .     A
C870   C899    1.401   .     A
C870   C896    1.401   .     A
C871   N920    1.367   .     A
C871   H905    1.081   .     S
C872   H906    1.081   .     S
C872   N919    1.367   .     A
C872   C1059   1.417   .     S
C873   N920    1.367   .     A
C873   H907    1.082   .     S
C874   N919    1.367   .     A
C874   H908    1.082   .     S
C874   C1057   1.417   .     S
C875   O926    1.291   .     A
C875   O929    1.291   .     A
C875   C881    1.452   .     S
C876   O928    1.291   .     A
C876   C879    1.452   .     S
C876   O927    1.291   .     A
C877   C893    1.490   .     S
C877   C879    1.413   .     A
C877   C888    1.416   .     A
C878   C894    1.490   .     S
C878   C889    1.416   .     A
C878   C881    1.413   .     A
C879   C882    1.394   .     A
C880   C900    1.450   .     S
C880   O924    1.291   .     A
C880   O923    1.291   .     A
C881   C883    1.394   .     A
C882   C884    1.388   .     A
C882   H903    1.086   .     S
C883   H911    1.086   .     S
C883   C885    1.388   .     A
C884   C890    1.397   .     A
C884   C886    1.409   .     A
C885   C887    1.409   .     A
C885   C892    1.397   .     A
C886   C888    1.421   .     A
C886   C329    1.410   1_556 S
C887   C889    1.421   .     A
C888   C895    1.409   .     A
C889   C891    1.409   .     A
C890   H912    1.084   .     S
C890   C333    1.390   1_556 S
C891   H914    1.080   .     S
C892   H913    1.084   .     S
C893   O930    1.221   .     D
C893   H909    1.083   .     S
C894   O922    1.221   .     D
C894   H910    1.083   .     S
C895   H915    1.080   .     S
C895   C334    1.390   1_556 S
C896   H916    1.083   .     S
C897   H917    1.083   .     S
C897   C900    1.401   .     A
C897   C775    1.383   1_655 S
C898   H918    1.083   .     S
C898   C900    1.401   .     A
C898   C772    1.383   1_655 S
C899   H904    1.083   .     S
Cu901  O926    1.962   .     S
Cu901  N919    2.013   .     S
Cu901  O924    1.964   .     S
Cu901  Cu902   2.679   .     S
Cu901  O928    1.964   .     S
Cu901  O921    1.965   .     S
Cu902  O925    1.964   .     S
Cu902  N920    2.013   .     S
Cu902  O923    1.965   .     S
Cu902  O927    1.962   .     S
Cu902  O929    1.964   .     S
C931   O987    1.291   .     A
C931   C932    1.450   .     S
C931   O983    1.291   .     A
C932   C961    1.401   .     A
C932   C958    1.401   .     A
C933   N982    1.367   .     A
C933   H967    1.081   .     S
C934   H968    1.081   .     S
C934   N981    1.367   .     A
C934   C563    1.417   1_565 S
C935   N982    1.367   .     A
C935   H969    1.082   .     S
C936   N981    1.367   .     A
C936   H970    1.082   .     S
C936   C561    1.417   1_565 S
C937   O988    1.291   .     A
C937   O991    1.291   .     A
C937   C943    1.452   .     S
C938   O990    1.291   .     A
C938   C941    1.452   .     S
C938   O989    1.291   .     A
C939   C955    1.490   .     S
C939   C941    1.413   .     A
C939   C950    1.416   .     A
C940   C956    1.490   .     S
C940   C951    1.416   .     A
C940   C943    1.413   .     A
C941   C944    1.394   .     A
C942   C962    1.450   .     S
C942   O986    1.291   .     A
C942   O985    1.291   .     A
C943   C945    1.394   .     A
C944   C946    1.388   .     A
C944   H965    1.086   .     S
C945   H973    1.086   .     S
C945   C947    1.388   .     A
C946   C952    1.397   .     A
C946   C948    1.409   .     A
C947   C949    1.409   .     A
C947   C954    1.397   .     A
C948   C950    1.421   .     A
C948   C391    1.410   1_556 S
C949   C951    1.421   .     A
C950   C957    1.409   .     A
C951   C953    1.409   .     A
C952   H974    1.084   .     S
C952   C395    1.390   1_556 S
C953   H976    1.080   .     S
C954   H975    1.084   .     S
C955   O992    1.221   .     D
C955   H971    1.083   .     S
C956   O984    1.221   .     D
C956   H972    1.083   .     S
C957   H977    1.080   .     S
C957   C396    1.390   1_556 S
C958   H978    1.083   .     S
C958   C1084   1.383   1_455 S
C959   H979    1.083   .     S
C959   C962    1.401   .     A
C959   C1023   1.383   .     S
C960   H980    1.083   .     S
C960   C962    1.401   .     A
C960   C1020   1.383   .     S
C961   H966    1.083   .     S
C961   C1083   1.383   1_455 S
Cu963  O988    1.962   .     S
Cu963  N981    2.013   .     S
Cu963  O986    1.964   .     S
Cu963  Cu964   2.679   .     S
Cu963  O990    1.964   .     S
Cu963  O983    1.965   .     S
Cu964  O987    1.964   .     S
Cu964  N982    2.013   .     S
Cu964  O985    1.965   .     S
Cu964  O989    1.962   .     S
Cu964  O991    1.964   .     S
C993   O1049   1.291   .     A
C993   C994    1.450   .     S
C993   O1045   1.291   .     A
C994   C1023   1.401   .     A
C994   C1020   1.401   .     A
C995   N1044   1.367   .     A
C995   H1029   1.081   .     S
C996   H1030   1.081   .     S
C996   N1043   1.367   .     A
C996   C625    1.417   1_565 S
C997   N1044   1.367   .     A
C997   H1031   1.082   .     S
C998   N1043   1.367   .     A
C998   H1032   1.082   .     S
C998   C623    1.417   1_565 S
C999   O1050   1.291   .     A
C999   O1053   1.291   .     A
C999   C1005   1.452   .     S
C1000  O1052   1.291   .     A
C1000  C1003   1.452   .     S
C1000  O1051   1.291   .     A
C1001  C1017   1.490   .     S
C1001  C1003   1.413   .     A
C1001  C1012   1.416   .     A
C1002  C1018   1.490   .     S
C1002  C1013   1.416   .     A
C1002  C1005   1.413   .     A
C1003  C1006   1.394   .     A
C1004  C1024   1.450   .     S
C1004  O1048   1.291   .     A
C1004  O1047   1.291   .     A
C1005  C1007   1.394   .     A
C1006  C1008   1.388   .     A
C1006  H1027   1.086   .     S
C1007  H1035   1.086   .     S
C1007  C1009   1.388   .     A
C1008  C1014   1.397   .     A
C1008  C1010   1.409   .     A
C1009  C1011   1.409   .     A
C1009  C1016   1.397   .     A
C1010  C1012   1.421   .     A
C1010  C453    1.410   1_556 S
C1011  C1013   1.421   .     A
C1012  C1019   1.409   .     A
C1013  C1015   1.409   .     A
C1014  H1036   1.084   .     S
C1014  C457    1.390   1_556 S
C1015  H1038   1.080   .     S
C1016  H1037   1.084   .     S
C1017  O1054   1.221   .     D
C1017  H1033   1.083   .     S
C1018  O1046   1.221   .     D
C1018  H1034   1.083   .     S
C1019  H1039   1.080   .     S
C1019  C458    1.390   1_556 S
C1020  H1040   1.083   .     S
C1021  H1041   1.083   .     S
C1021  C1024   1.401   .     A
C1021  C1085   1.383   .     S
C1022  H1042   1.083   .     S
C1022  C1024   1.401   .     A
C1022  C1082   1.383   .     S
C1023  H1028   1.083   .     S
Cu1025 O1050   1.962   .     S
Cu1025 N1043   2.013   .     S
Cu1025 O1048   1.964   .     S
Cu1025 Cu1026  2.679   .     S
Cu1025 O1052   1.964   .     S
Cu1025 O1045   1.965   .     S
Cu1026 O1049   1.964   .     S
Cu1026 N1044   2.013   .     S
Cu1026 O1047   1.965   .     S
Cu1026 O1051   1.962   .     S
Cu1026 O1053   1.964   .     S
C1055  O1111   1.291   .     A
C1055  C1056   1.450   .     S
C1055  O1107   1.291   .     A
C1056  C1085   1.401   .     A
C1056  C1082   1.401   .     A
C1057  N1106   1.367   .     A
C1057  H1091   1.081   .     S
C1058  H1092   1.081   .     S
C1058  N1105   1.367   .     A
C1058  C687    1.417   1_565 S
C1059  N1106   1.367   .     A
C1059  H1093   1.082   .     S
C1060  N1105   1.367   .     A
C1060  H1094   1.082   .     S
C1060  C685    1.417   1_565 S
C1061  O1112   1.291   .     A
C1061  O1115   1.291   .     A
C1061  C1067   1.452   .     S
C1062  O1114   1.291   .     A
C1062  C1065   1.452   .     S
C1062  O1113   1.291   .     A
C1063  C1079   1.490   .     S
C1063  C1065   1.413   .     A
C1063  C1074   1.416   .     A
C1064  C1080   1.490   .     S
C1064  C1075   1.416   .     A
C1064  C1067   1.413   .     A
C1065  C1068   1.394   .     A
C1066  C1086   1.450   .     S
C1066  O1110   1.291   .     A
C1066  O1109   1.291   .     A
C1067  C1069   1.394   .     A
C1068  C1070   1.388   .     A
C1068  H1089   1.086   .     S
C1069  H1097   1.086   .     S
C1069  C1071   1.388   .     A
C1070  C1076   1.397   .     A
C1070  C1072   1.409   .     A
C1071  C1073   1.409   .     A
C1071  C1078   1.397   .     A
C1072  C1074   1.421   .     A
C1072  C515    1.410   1_556 S
C1073  C1075   1.421   .     A
C1074  C1081   1.409   .     A
C1075  C1077   1.409   .     A
C1076  H1098   1.084   .     S
C1076  C519    1.390   1_556 S
C1077  H1100   1.080   .     S
C1078  H1099   1.084   .     S
C1079  O1116   1.221   .     D
C1079  H1095   1.083   .     S
C1080  O1108   1.221   .     D
C1080  H1096   1.083   .     S
C1081  H1101   1.080   .     S
C1081  C520    1.390   1_556 S
C1082  H1102   1.083   .     S
C1083  H1103   1.083   .     S
C1083  C1086   1.401   .     A
C1083  C961    1.383   1_655 S
C1084  H1104   1.083   .     S
C1084  C1086   1.401   .     A
C1084  C958    1.383   1_655 S
C1085  H1090   1.083   .     S
Cu1087 O1112   1.962   .     S
Cu1087 N1105   2.013   .     S
Cu1087 O1110   1.964   .     S
Cu1087 Cu1088  2.679   .     S
Cu1087 O1114   1.964   .     S
Cu1087 O1107   1.965   .     S
Cu1088 O1111   1.964   .     S
Cu1088 N1106   2.013   .     S
Cu1088 O1109   1.965   .     S
Cu1088 O1113   1.962   .     S
Cu1088 O1115   1.964   .     S
