data_str_m2_o1_o10_pcu_sym.135
_audit_creation_date              2020-01-03
_audit_creation_method            'Materials Studio'
_symmetry_space_group_name_H-M    'P1'
_symmetry_Int_Tables_number       1
_symmetry_cell_setting            triclinic
loop_
_symmetry_equiv_pos_as_xyz
  x,y,z
_cell_length_a                    26.1806
_cell_length_b                    32.4912
_cell_length_c                    28.7802
_cell_angle_alpha                 89.4054
_cell_angle_beta                  97.3464
_cell_angle_gamma                 91.9471
loop_
_atom_site_label
_atom_site_type_symbol
_atom_site_fract_x
_atom_site_fract_y
_atom_site_fract_z
_atom_site_U_iso_or_equiv
_atom_site_adp_type
_atom_site_occupancy
C1     C     0.16657   0.08743   0.16678   0.00000  Uiso   1.00
C2     C     0.16676   0.24590   0.16655   0.00000  Uiso   1.00
C3     C     0.06806   0.16659   0.15474   0.00000  Uiso   1.00
C4     C     0.26528   0.16674   0.17860   0.00000  Uiso   1.00
C5     C     0.01284   0.16656   0.14814   0.00000  Uiso   1.00
C6     C     0.32049   0.16678   0.18519   0.00000  Uiso   1.00
C7     C     0.16693   0.02171   0.12455   0.00000  Uiso   1.00
C8     C     0.16641   0.31162   0.20878   0.00000  Uiso   1.00
C9     C     0.16703   0.31246   0.12441   0.00000  Uiso   1.00
C10    C     0.16630   0.02087   0.20892   0.00000  Uiso   1.00
C11    C     0.16676   0.29056   0.16652   0.00000  Uiso   1.00
C12    C     0.16658   0.04277   0.16682   0.00000  Uiso   1.00
C13    C     0.13405   0.14111   0.02200   0.00000  Uiso   1.00
C14    C     0.19928   0.19222   0.31133   0.00000  Uiso   1.00
C15    C     0.13362   0.14070   0.30605   0.00000  Uiso   1.00
C16    C     0.19971   0.19263   0.02728   0.00000  Uiso   1.00
Cu17   Cu    0.16667   0.16667   0.21355   0.00000  Uiso   1.00
Cu18   Cu    0.16667   0.16666   0.11978   0.00000  Uiso   1.00
H19    H     0.32657   0.16633   0.11248   0.00000  Uiso   1.00
H20    H     0.00676   0.16700   0.22086   0.00000  Uiso   1.00
H21    H     0.16713   0.03804   0.09156   0.00000  Uiso   1.00
H22    H     0.16620   0.29530   0.24177   0.00000  Uiso   1.00
H23    H     0.16731   0.29680   0.09140   0.00000  Uiso   1.00
H24    H     0.16602   0.03653   0.24193   0.00000  Uiso   1.00
H25    H     0.10811   0.12070   0.03856   0.00000  Uiso   1.00
H26    H     0.22522   0.21263   0.29477   0.00000  Uiso   1.00
N27    N     0.16668   0.16668   0.28403   0.00000  Uiso   1.00
N28    N     0.16665   0.16666   0.04931   0.00000  Uiso   1.00
O29    O     0.16666   0.10655   0.20625   0.00000  Uiso   1.00
O30    O     0.16667   0.22678   0.12709   0.00000  Uiso   1.00
O31    O     0.16666   0.10654   0.12706   0.00000  Uiso   1.00
O32    O     0.16667   0.22679   0.20628   0.00000  Uiso   1.00
O33    O     0.09161   0.16667   0.19712   0.00000  Uiso   1.00
O34    O     0.24172   0.16666   0.13621   0.00000  Uiso   1.00
O35    O     0.09161   0.16666   0.11793   0.00000  Uiso   1.00
O36    O     0.24172   0.16667   0.21540   0.00000  Uiso   1.00
C37    C     0.09529   0.11032   0.28085   0.00000  Uiso   1.00
H38    H     0.09469   0.10892   0.24299   0.00000  Uiso   1.00
H39    H     0.10352   0.07886   0.29467   0.00000  Uiso   1.00
H40    H     0.05586   0.11790   0.28760   0.00000  Uiso   1.00
C41    C     0.23804   0.22301   0.05249   0.00000  Uiso   1.00
H42    H     0.23864   0.22442   0.09034   0.00000  Uiso   1.00
H43    H     0.27747   0.21544   0.04573   0.00000  Uiso   1.00
H44    H     0.22981   0.25447   0.03867   0.00000  Uiso   1.00
C45    C     0.49990   0.08743   0.16678   0.00000  Uiso   1.00
C46    C     0.50010   0.24590   0.16655   0.00000  Uiso   1.00
C47    C     0.40139   0.16659   0.15474   0.00000  Uiso   1.00
C48    C     0.59861   0.16674   0.17860   0.00000  Uiso   1.00
C49    C     0.34618   0.16656   0.14814   0.00000  Uiso   1.00
C50    C     0.65382   0.16678   0.18519   0.00000  Uiso   1.00
C51    C     0.50026   0.02171   0.12455   0.00000  Uiso   1.00
C52    C     0.49974   0.31162   0.20878   0.00000  Uiso   1.00
C53    C     0.50037   0.31246   0.12441   0.00000  Uiso   1.00
C54    C     0.49963   0.02087   0.20892   0.00000  Uiso   1.00
C55    C     0.50009   0.29056   0.16652   0.00000  Uiso   1.00
C56    C     0.49991   0.04277   0.16682   0.00000  Uiso   1.00
C57    C     0.46738   0.14111   0.02200   0.00000  Uiso   1.00
C58    C     0.53262   0.19222   0.31133   0.00000  Uiso   1.00
C59    C     0.46696   0.14070   0.30605   0.00000  Uiso   1.00
C60    C     0.53304   0.19263   0.02728   0.00000  Uiso   1.00
Cu61   Cu    0.50000   0.16667   0.21355   0.00000  Uiso   1.00
Cu62   Cu    0.50000   0.16666   0.11978   0.00000  Uiso   1.00
H63    H     0.65991   0.16633   0.11248   0.00000  Uiso   1.00
H64    H     0.34009   0.16700   0.22086   0.00000  Uiso   1.00
H65    H     0.50047   0.03804   0.09156   0.00000  Uiso   1.00
H66    H     0.49953   0.29530   0.24177   0.00000  Uiso   1.00
H67    H     0.50064   0.29680   0.09140   0.00000  Uiso   1.00
H68    H     0.49936   0.03653   0.24193   0.00000  Uiso   1.00
H69    H     0.44144   0.12070   0.03856   0.00000  Uiso   1.00
H70    H     0.55856   0.21263   0.29477   0.00000  Uiso   1.00
N71    N     0.50001   0.16668   0.28403   0.00000  Uiso   1.00
N72    N     0.49999   0.16666   0.04931   0.00000  Uiso   1.00
O73    O     0.50000   0.10655   0.20625   0.00000  Uiso   1.00
O74    O     0.50000   0.22678   0.12709   0.00000  Uiso   1.00
O75    O     0.50000   0.10654   0.12706   0.00000  Uiso   1.00
O76    O     0.50000   0.22679   0.20628   0.00000  Uiso   1.00
O77    O     0.42495   0.16667   0.19712   0.00000  Uiso   1.00
O78    O     0.57505   0.16666   0.13621   0.00000  Uiso   1.00
O79    O     0.42494   0.16666   0.11793   0.00000  Uiso   1.00
O80    O     0.57506   0.16667   0.21540   0.00000  Uiso   1.00
C81    C     0.42863   0.11032   0.28085   0.00000  Uiso   1.00
H82    H     0.42802   0.10892   0.24299   0.00000  Uiso   1.00
H83    H     0.43686   0.07886   0.29467   0.00000  Uiso   1.00
H84    H     0.38919   0.11790   0.28760   0.00000  Uiso   1.00
C85    C     0.57137   0.22301   0.05249   0.00000  Uiso   1.00
H86    H     0.57198   0.22442   0.09034   0.00000  Uiso   1.00
H87    H     0.61081   0.21544   0.04573   0.00000  Uiso   1.00
H88    H     0.56314   0.25447   0.03867   0.00000  Uiso   1.00
C89    C     0.83324   0.08743   0.16678   0.00000  Uiso   1.00
C90    C     0.83343   0.24590   0.16655   0.00000  Uiso   1.00
C91    C     0.73472   0.16659   0.15474   0.00000  Uiso   1.00
C92    C     0.93194   0.16674   0.17860   0.00000  Uiso   1.00
C93    C     0.67951   0.16656   0.14814   0.00000  Uiso   1.00
C94    C     0.98715   0.16678   0.18519   0.00000  Uiso   1.00
C95    C     0.83359   0.02171   0.12455   0.00000  Uiso   1.00
C96    C     0.83307   0.31162   0.20878   0.00000  Uiso   1.00
C97    C     0.83370   0.31246   0.12441   0.00000  Uiso   1.00
C98    C     0.83297   0.02087   0.20892   0.00000  Uiso   1.00
C99    C     0.83342   0.29056   0.16652   0.00000  Uiso   1.00
C100   C     0.83324   0.04277   0.16682   0.00000  Uiso   1.00
C101   C     0.80072   0.14111   0.02200   0.00000  Uiso   1.00
C102   C     0.86595   0.19222   0.31133   0.00000  Uiso   1.00
C103   C     0.80029   0.14070   0.30605   0.00000  Uiso   1.00
C104   C     0.86638   0.19263   0.02728   0.00000  Uiso   1.00
Cu105  Cu    0.83333   0.16667   0.21355   0.00000  Uiso   1.00
Cu106  Cu    0.83333   0.16666   0.11978   0.00000  Uiso   1.00
H107   H     0.99324   0.16633   0.11248   0.00000  Uiso   1.00
H108   H     0.67343   0.16700   0.22086   0.00000  Uiso   1.00
H109   H     0.83380   0.03804   0.09156   0.00000  Uiso   1.00
H110   H     0.83287   0.29530   0.24177   0.00000  Uiso   1.00
H111   H     0.83398   0.29680   0.09140   0.00000  Uiso   1.00
H112   H     0.83269   0.03653   0.24193   0.00000  Uiso   1.00
H113   H     0.77478   0.12070   0.03856   0.00000  Uiso   1.00
H114   H     0.89189   0.21263   0.29477   0.00000  Uiso   1.00
N115   N     0.83335   0.16668   0.28403   0.00000  Uiso   1.00
N116   N     0.83332   0.16666   0.04931   0.00000  Uiso   1.00
O117   O     0.83333   0.10655   0.20625   0.00000  Uiso   1.00
O118   O     0.83334   0.22678   0.12709   0.00000  Uiso   1.00
O119   O     0.83333   0.10654   0.12706   0.00000  Uiso   1.00
O120   O     0.83334   0.22679   0.20628   0.00000  Uiso   1.00
O121   O     0.75828   0.16667   0.19712   0.00000  Uiso   1.00
O122   O     0.90839   0.16666   0.13621   0.00000  Uiso   1.00
O123   O     0.75828   0.16666   0.11793   0.00000  Uiso   1.00
O124   O     0.90839   0.16667   0.21540   0.00000  Uiso   1.00
C125   C     0.76196   0.11032   0.28085   0.00000  Uiso   1.00
H126   H     0.76136   0.10892   0.24299   0.00000  Uiso   1.00
H127   H     0.77019   0.07886   0.29467   0.00000  Uiso   1.00
H128   H     0.72253   0.11790   0.28760   0.00000  Uiso   1.00
C129   C     0.90471   0.22301   0.05249   0.00000  Uiso   1.00
H130   H     0.90531   0.22442   0.09034   0.00000  Uiso   1.00
H131   H     0.94414   0.21544   0.04573   0.00000  Uiso   1.00
H132   H     0.89647   0.25447   0.03867   0.00000  Uiso   1.00
C133   C     0.16657   0.42076   0.16678   0.00000  Uiso   1.00
C134   C     0.16676   0.57924   0.16655   0.00000  Uiso   1.00
C135   C     0.06806   0.49993   0.15474   0.00000  Uiso   1.00
C136   C     0.26528   0.50007   0.17860   0.00000  Uiso   1.00
C137   C     0.01284   0.49989   0.14814   0.00000  Uiso   1.00
C138   C     0.32049   0.50011   0.18519   0.00000  Uiso   1.00
C139   C     0.16693   0.35505   0.12455   0.00000  Uiso   1.00
C140   C     0.16641   0.64495   0.20878   0.00000  Uiso   1.00
C141   C     0.16703   0.64580   0.12441   0.00000  Uiso   1.00
C142   C     0.16630   0.35420   0.20892   0.00000  Uiso   1.00
C143   C     0.16676   0.62390   0.16652   0.00000  Uiso   1.00
C144   C     0.16658   0.37610   0.16682   0.00000  Uiso   1.00
C145   C     0.13405   0.47444   0.02200   0.00000  Uiso   1.00
C146   C     0.19928   0.52556   0.31133   0.00000  Uiso   1.00
C147   C     0.13362   0.47403   0.30605   0.00000  Uiso   1.00
C148   C     0.19971   0.52597   0.02728   0.00000  Uiso   1.00
Cu149  Cu    0.16667   0.50001   0.21355   0.00000  Uiso   1.00
Cu150  Cu    0.16667   0.49999   0.11978   0.00000  Uiso   1.00
H151   H     0.32657   0.49967   0.11248   0.00000  Uiso   1.00
H152   H     0.00676   0.50033   0.22086   0.00000  Uiso   1.00
H153   H     0.16713   0.37137   0.09156   0.00000  Uiso   1.00
H154   H     0.16620   0.62863   0.24177   0.00000  Uiso   1.00
H155   H     0.16731   0.63014   0.09140   0.00000  Uiso   1.00
H156   H     0.16602   0.36986   0.24193   0.00000  Uiso   1.00
H157   H     0.10811   0.45403   0.03856   0.00000  Uiso   1.00
H158   H     0.22522   0.54597   0.29477   0.00000  Uiso   1.00
N159   N     0.16668   0.50001   0.28403   0.00000  Uiso   1.00
N160   N     0.16665   0.49999   0.04931   0.00000  Uiso   1.00
O161   O     0.16666   0.43989   0.20625   0.00000  Uiso   1.00
O162   O     0.16667   0.56011   0.12709   0.00000  Uiso   1.00
O163   O     0.16666   0.43988   0.12706   0.00000  Uiso   1.00
O164   O     0.16667   0.56012   0.20628   0.00000  Uiso   1.00
O165   O     0.09161   0.50000   0.19712   0.00000  Uiso   1.00
O166   O     0.24172   0.50000   0.13621   0.00000  Uiso   1.00
O167   O     0.09161   0.49999   0.11793   0.00000  Uiso   1.00
O168   O     0.24172   0.50001   0.21540   0.00000  Uiso   1.00
C169   C     0.09529   0.44366   0.28085   0.00000  Uiso   1.00
H170   H     0.09469   0.44225   0.24299   0.00000  Uiso   1.00
H171   H     0.10352   0.41220   0.29467   0.00000  Uiso   1.00
H172   H     0.05586   0.45123   0.28760   0.00000  Uiso   1.00
C173   C     0.23804   0.55635   0.05249   0.00000  Uiso   1.00
H174   H     0.23864   0.55775   0.09034   0.00000  Uiso   1.00
H175   H     0.27747   0.54877   0.04573   0.00000  Uiso   1.00
H176   H     0.22981   0.58780   0.03867   0.00000  Uiso   1.00
C177   C     0.49990   0.42076   0.16678   0.00000  Uiso   1.00
C178   C     0.50010   0.57924   0.16655   0.00000  Uiso   1.00
C179   C     0.40139   0.49993   0.15474   0.00000  Uiso   1.00
C180   C     0.59861   0.50007   0.17860   0.00000  Uiso   1.00
C181   C     0.34618   0.49989   0.14814   0.00000  Uiso   1.00
C182   C     0.65382   0.50011   0.18519   0.00000  Uiso   1.00
C183   C     0.50026   0.35505   0.12455   0.00000  Uiso   1.00
C184   C     0.49974   0.64495   0.20878   0.00000  Uiso   1.00
C185   C     0.50037   0.64580   0.12441   0.00000  Uiso   1.00
C186   C     0.49963   0.35420   0.20892   0.00000  Uiso   1.00
C187   C     0.50009   0.62390   0.16652   0.00000  Uiso   1.00
C188   C     0.49991   0.37610   0.16682   0.00000  Uiso   1.00
C189   C     0.46738   0.47444   0.02200   0.00000  Uiso   1.00
C190   C     0.53262   0.52556   0.31133   0.00000  Uiso   1.00
C191   C     0.46696   0.47403   0.30605   0.00000  Uiso   1.00
C192   C     0.53304   0.52597   0.02728   0.00000  Uiso   1.00
Cu193  Cu    0.50000   0.50001   0.21355   0.00000  Uiso   1.00
Cu194  Cu    0.50000   0.49999   0.11978   0.00000  Uiso   1.00
H195   H     0.65991   0.49967   0.11248   0.00000  Uiso   1.00
H196   H     0.34009   0.50033   0.22086   0.00000  Uiso   1.00
H197   H     0.50047   0.37137   0.09156   0.00000  Uiso   1.00
H198   H     0.49953   0.62863   0.24177   0.00000  Uiso   1.00
H199   H     0.50064   0.63014   0.09140   0.00000  Uiso   1.00
H200   H     0.49936   0.36986   0.24193   0.00000  Uiso   1.00
H201   H     0.44144   0.45403   0.03856   0.00000  Uiso   1.00
H202   H     0.55856   0.54597   0.29477   0.00000  Uiso   1.00
N203   N     0.50001   0.50001   0.28403   0.00000  Uiso   1.00
N204   N     0.49999   0.49999   0.04931   0.00000  Uiso   1.00
O205   O     0.50000   0.43989   0.20625   0.00000  Uiso   1.00
O206   O     0.50000   0.56011   0.12709   0.00000  Uiso   1.00
O207   O     0.50000   0.43988   0.12706   0.00000  Uiso   1.00
O208   O     0.50000   0.56012   0.20628   0.00000  Uiso   1.00
O209   O     0.42495   0.50000   0.19712   0.00000  Uiso   1.00
O210   O     0.57505   0.50000   0.13621   0.00000  Uiso   1.00
O211   O     0.42494   0.49999   0.11793   0.00000  Uiso   1.00
O212   O     0.57506   0.50001   0.21540   0.00000  Uiso   1.00
C213   C     0.42863   0.44366   0.28085   0.00000  Uiso   1.00
H214   H     0.42802   0.44225   0.24299   0.00000  Uiso   1.00
H215   H     0.43686   0.41220   0.29467   0.00000  Uiso   1.00
H216   H     0.38919   0.45123   0.28760   0.00000  Uiso   1.00
C217   C     0.57137   0.55635   0.05249   0.00000  Uiso   1.00
H218   H     0.57198   0.55775   0.09034   0.00000  Uiso   1.00
H219   H     0.61081   0.54877   0.04573   0.00000  Uiso   1.00
H220   H     0.56314   0.58780   0.03867   0.00000  Uiso   1.00
C221   C     0.83324   0.42076   0.16678   0.00000  Uiso   1.00
C222   C     0.83343   0.57924   0.16655   0.00000  Uiso   1.00
C223   C     0.73472   0.49993   0.15474   0.00000  Uiso   1.00
C224   C     0.93194   0.50007   0.17860   0.00000  Uiso   1.00
C225   C     0.67951   0.49989   0.14814   0.00000  Uiso   1.00
C226   C     0.98715   0.50011   0.18519   0.00000  Uiso   1.00
C227   C     0.83359   0.35505   0.12455   0.00000  Uiso   1.00
C228   C     0.83307   0.64495   0.20878   0.00000  Uiso   1.00
C229   C     0.83370   0.64580   0.12441   0.00000  Uiso   1.00
C230   C     0.83297   0.35420   0.20892   0.00000  Uiso   1.00
C231   C     0.83342   0.62390   0.16652   0.00000  Uiso   1.00
C232   C     0.83324   0.37610   0.16682   0.00000  Uiso   1.00
C233   C     0.80072   0.47444   0.02200   0.00000  Uiso   1.00
C234   C     0.86595   0.52556   0.31133   0.00000  Uiso   1.00
C235   C     0.80029   0.47403   0.30605   0.00000  Uiso   1.00
C236   C     0.86638   0.52597   0.02728   0.00000  Uiso   1.00
Cu237  Cu    0.83333   0.50001   0.21355   0.00000  Uiso   1.00
Cu238  Cu    0.83333   0.49999   0.11978   0.00000  Uiso   1.00
H239   H     0.99324   0.49967   0.11248   0.00000  Uiso   1.00
H240   H     0.67343   0.50033   0.22086   0.00000  Uiso   1.00
H241   H     0.83380   0.37137   0.09156   0.00000  Uiso   1.00
H242   H     0.83287   0.62863   0.24177   0.00000  Uiso   1.00
H243   H     0.83398   0.63014   0.09140   0.00000  Uiso   1.00
H244   H     0.83269   0.36986   0.24193   0.00000  Uiso   1.00
H245   H     0.77478   0.45403   0.03856   0.00000  Uiso   1.00
H246   H     0.89189   0.54597   0.29477   0.00000  Uiso   1.00
N247   N     0.83335   0.50001   0.28403   0.00000  Uiso   1.00
N248   N     0.83332   0.49999   0.04931   0.00000  Uiso   1.00
O249   O     0.83333   0.43989   0.20625   0.00000  Uiso   1.00
O250   O     0.83334   0.56011   0.12709   0.00000  Uiso   1.00
O251   O     0.83333   0.43988   0.12706   0.00000  Uiso   1.00
O252   O     0.83334   0.56012   0.20628   0.00000  Uiso   1.00
O253   O     0.75828   0.50000   0.19712   0.00000  Uiso   1.00
O254   O     0.90839   0.50000   0.13621   0.00000  Uiso   1.00
O255   O     0.75828   0.49999   0.11793   0.00000  Uiso   1.00
O256   O     0.90839   0.50001   0.21540   0.00000  Uiso   1.00
C257   C     0.76196   0.44366   0.28085   0.00000  Uiso   1.00
H258   H     0.76136   0.44225   0.24299   0.00000  Uiso   1.00
H259   H     0.77019   0.41220   0.29467   0.00000  Uiso   1.00
H260   H     0.72253   0.45123   0.28760   0.00000  Uiso   1.00
C261   C     0.90471   0.55635   0.05249   0.00000  Uiso   1.00
H262   H     0.90531   0.55775   0.09034   0.00000  Uiso   1.00
H263   H     0.94414   0.54877   0.04573   0.00000  Uiso   1.00
H264   H     0.89647   0.58780   0.03867   0.00000  Uiso   1.00
C265   C     0.16657   0.75410   0.16678   0.00000  Uiso   1.00
C266   C     0.16676   0.91257   0.16655   0.00000  Uiso   1.00
C267   C     0.06806   0.83326   0.15474   0.00000  Uiso   1.00
C268   C     0.26528   0.83341   0.17860   0.00000  Uiso   1.00
C269   C     0.01284   0.83322   0.14814   0.00000  Uiso   1.00
C270   C     0.32049   0.83344   0.18519   0.00000  Uiso   1.00
C271   C     0.16693   0.68838   0.12455   0.00000  Uiso   1.00
C272   C     0.16641   0.97829   0.20878   0.00000  Uiso   1.00
C273   C     0.16703   0.97913   0.12441   0.00000  Uiso   1.00
C274   C     0.16630   0.68754   0.20892   0.00000  Uiso   1.00
C275   C     0.16676   0.95723   0.16652   0.00000  Uiso   1.00
C276   C     0.16658   0.70944   0.16682   0.00000  Uiso   1.00
C277   C     0.13405   0.80778   0.02200   0.00000  Uiso   1.00
C278   C     0.19928   0.85889   0.31133   0.00000  Uiso   1.00
C279   C     0.13362   0.80737   0.30605   0.00000  Uiso   1.00
C280   C     0.19971   0.85930   0.02728   0.00000  Uiso   1.00
Cu281  Cu    0.16667   0.83334   0.21355   0.00000  Uiso   1.00
Cu282  Cu    0.16667   0.83333   0.11978   0.00000  Uiso   1.00
H283   H     0.32657   0.83300   0.11248   0.00000  Uiso   1.00
H284   H     0.00676   0.83367   0.22086   0.00000  Uiso   1.00
H285   H     0.16713   0.70470   0.09156   0.00000  Uiso   1.00
H286   H     0.16620   0.96196   0.24177   0.00000  Uiso   1.00
H287   H     0.16731   0.96347   0.09140   0.00000  Uiso   1.00
H288   H     0.16602   0.70320   0.24193   0.00000  Uiso   1.00
H289   H     0.10811   0.78737   0.03856   0.00000  Uiso   1.00
H290   H     0.22522   0.87930   0.29477   0.00000  Uiso   1.00
N291   N     0.16668   0.83334   0.28403   0.00000  Uiso   1.00
N292   N     0.16665   0.83332   0.04931   0.00000  Uiso   1.00
O293   O     0.16666   0.77322   0.20625   0.00000  Uiso   1.00
O294   O     0.16667   0.89345   0.12709   0.00000  Uiso   1.00
O295   O     0.16666   0.77321   0.12706   0.00000  Uiso   1.00
O296   O     0.16667   0.89346   0.20628   0.00000  Uiso   1.00
O297   O     0.09161   0.83334   0.19712   0.00000  Uiso   1.00
O298   O     0.24172   0.83333   0.13621   0.00000  Uiso   1.00
O299   O     0.09161   0.83333   0.11793   0.00000  Uiso   1.00
O300   O     0.24172   0.83334   0.21540   0.00000  Uiso   1.00
C301   C     0.09529   0.77699   0.28085   0.00000  Uiso   1.00
H302   H     0.09469   0.77558   0.24299   0.00000  Uiso   1.00
H303   H     0.10352   0.74553   0.29467   0.00000  Uiso   1.00
H304   H     0.05586   0.78456   0.28760   0.00000  Uiso   1.00
C305   C     0.23804   0.88968   0.05249   0.00000  Uiso   1.00
H306   H     0.23864   0.89108   0.09034   0.00000  Uiso   1.00
H307   H     0.27747   0.88211   0.04573   0.00000  Uiso   1.00
H308   H     0.22981   0.92114   0.03867   0.00000  Uiso   1.00
C309   C     0.49990   0.75410   0.16678   0.00000  Uiso   1.00
C310   C     0.50010   0.91257   0.16655   0.00000  Uiso   1.00
C311   C     0.40139   0.83326   0.15474   0.00000  Uiso   1.00
C312   C     0.59861   0.83341   0.17860   0.00000  Uiso   1.00
C313   C     0.34618   0.83322   0.14814   0.00000  Uiso   1.00
C314   C     0.65382   0.83344   0.18519   0.00000  Uiso   1.00
C315   C     0.50026   0.68838   0.12455   0.00000  Uiso   1.00
C316   C     0.49974   0.97829   0.20878   0.00000  Uiso   1.00
C317   C     0.50037   0.97913   0.12441   0.00000  Uiso   1.00
C318   C     0.49963   0.68754   0.20892   0.00000  Uiso   1.00
C319   C     0.50009   0.95723   0.16652   0.00000  Uiso   1.00
C320   C     0.49991   0.70944   0.16682   0.00000  Uiso   1.00
C321   C     0.46738   0.80778   0.02200   0.00000  Uiso   1.00
C322   C     0.53262   0.85889   0.31133   0.00000  Uiso   1.00
C323   C     0.46696   0.80737   0.30605   0.00000  Uiso   1.00
C324   C     0.53304   0.85930   0.02728   0.00000  Uiso   1.00
Cu325  Cu    0.50000   0.83334   0.21355   0.00000  Uiso   1.00
Cu326  Cu    0.50000   0.83333   0.11978   0.00000  Uiso   1.00
H327   H     0.65991   0.83300   0.11248   0.00000  Uiso   1.00
H328   H     0.34009   0.83367   0.22086   0.00000  Uiso   1.00
H329   H     0.50047   0.70470   0.09156   0.00000  Uiso   1.00
H330   H     0.49953   0.96196   0.24177   0.00000  Uiso   1.00
H331   H     0.50064   0.96347   0.09140   0.00000  Uiso   1.00
H332   H     0.49936   0.70320   0.24193   0.00000  Uiso   1.00
H333   H     0.44144   0.78737   0.03856   0.00000  Uiso   1.00
H334   H     0.55856   0.87930   0.29477   0.00000  Uiso   1.00
N335   N     0.50001   0.83334   0.28403   0.00000  Uiso   1.00
N336   N     0.49999   0.83332   0.04931   0.00000  Uiso   1.00
O337   O     0.50000   0.77322   0.20625   0.00000  Uiso   1.00
O338   O     0.50000   0.89345   0.12709   0.00000  Uiso   1.00
O339   O     0.50000   0.77321   0.12706   0.00000  Uiso   1.00
O340   O     0.50000   0.89346   0.20628   0.00000  Uiso   1.00
O341   O     0.42495   0.83334   0.19712   0.00000  Uiso   1.00
O342   O     0.57505   0.83333   0.13621   0.00000  Uiso   1.00
O343   O     0.42494   0.83333   0.11793   0.00000  Uiso   1.00
O344   O     0.57506   0.83334   0.21540   0.00000  Uiso   1.00
C345   C     0.42863   0.77699   0.28085   0.00000  Uiso   1.00
H346   H     0.42802   0.77558   0.24299   0.00000  Uiso   1.00
H347   H     0.43686   0.74553   0.29467   0.00000  Uiso   1.00
H348   H     0.38919   0.78456   0.28760   0.00000  Uiso   1.00
C349   C     0.57137   0.88968   0.05249   0.00000  Uiso   1.00
H350   H     0.57198   0.89108   0.09034   0.00000  Uiso   1.00
H351   H     0.61081   0.88211   0.04573   0.00000  Uiso   1.00
H352   H     0.56314   0.92114   0.03867   0.00000  Uiso   1.00
C353   C     0.83324   0.75410   0.16678   0.00000  Uiso   1.00
C354   C     0.83343   0.91257   0.16655   0.00000  Uiso   1.00
C355   C     0.73472   0.83326   0.15474   0.00000  Uiso   1.00
C356   C     0.93194   0.83341   0.17860   0.00000  Uiso   1.00
C357   C     0.67951   0.83322   0.14814   0.00000  Uiso   1.00
C358   C     0.98715   0.83344   0.18519   0.00000  Uiso   1.00
C359   C     0.83359   0.68838   0.12455   0.00000  Uiso   1.00
C360   C     0.83307   0.97829   0.20878   0.00000  Uiso   1.00
C361   C     0.83370   0.97913   0.12441   0.00000  Uiso   1.00
C362   C     0.83297   0.68754   0.20892   0.00000  Uiso   1.00
C363   C     0.83342   0.95723   0.16652   0.00000  Uiso   1.00
C364   C     0.83324   0.70944   0.16682   0.00000  Uiso   1.00
C365   C     0.80072   0.80778   0.02200   0.00000  Uiso   1.00
C366   C     0.86595   0.85889   0.31133   0.00000  Uiso   1.00
C367   C     0.80029   0.80737   0.30605   0.00000  Uiso   1.00
C368   C     0.86638   0.85930   0.02728   0.00000  Uiso   1.00
Cu369  Cu    0.83333   0.83334   0.21355   0.00000  Uiso   1.00
Cu370  Cu    0.83333   0.83333   0.11978   0.00000  Uiso   1.00
H371   H     0.99324   0.83300   0.11248   0.00000  Uiso   1.00
H372   H     0.67343   0.83367   0.22086   0.00000  Uiso   1.00
H373   H     0.83380   0.70470   0.09156   0.00000  Uiso   1.00
H374   H     0.83287   0.96196   0.24177   0.00000  Uiso   1.00
H375   H     0.83398   0.96347   0.09140   0.00000  Uiso   1.00
H376   H     0.83269   0.70320   0.24193   0.00000  Uiso   1.00
H377   H     0.77478   0.78737   0.03856   0.00000  Uiso   1.00
H378   H     0.89189   0.87930   0.29477   0.00000  Uiso   1.00
N379   N     0.83335   0.83334   0.28403   0.00000  Uiso   1.00
N380   N     0.83332   0.83332   0.04931   0.00000  Uiso   1.00
O381   O     0.83333   0.77322   0.20625   0.00000  Uiso   1.00
O382   O     0.83334   0.89345   0.12709   0.00000  Uiso   1.00
O383   O     0.83333   0.77321   0.12706   0.00000  Uiso   1.00
O384   O     0.83334   0.89346   0.20628   0.00000  Uiso   1.00
O385   O     0.75828   0.83334   0.19712   0.00000  Uiso   1.00
O386   O     0.90839   0.83333   0.13621   0.00000  Uiso   1.00
O387   O     0.75828   0.83333   0.11793   0.00000  Uiso   1.00
O388   O     0.90839   0.83334   0.21540   0.00000  Uiso   1.00
C389   C     0.76196   0.77699   0.28085   0.00000  Uiso   1.00
H390   H     0.76136   0.77558   0.24299   0.00000  Uiso   1.00
H391   H     0.77019   0.74553   0.29467   0.00000  Uiso   1.00
H392   H     0.72253   0.78456   0.28760   0.00000  Uiso   1.00
C393   C     0.90471   0.88968   0.05249   0.00000  Uiso   1.00
H394   H     0.90531   0.89108   0.09034   0.00000  Uiso   1.00
H395   H     0.94414   0.88211   0.04573   0.00000  Uiso   1.00
H396   H     0.89647   0.92114   0.03867   0.00000  Uiso   1.00
C397   C     0.16657   0.08743   0.50011   0.00000  Uiso   1.00
C398   C     0.16676   0.24590   0.49989   0.00000  Uiso   1.00
C399   C     0.06806   0.16659   0.48807   0.00000  Uiso   1.00
C400   C     0.26528   0.16674   0.51193   0.00000  Uiso   1.00
C401   C     0.01284   0.16656   0.48147   0.00000  Uiso   1.00
C402   C     0.32049   0.16678   0.51853   0.00000  Uiso   1.00
C403   C     0.16693   0.02171   0.45788   0.00000  Uiso   1.00
C404   C     0.16641   0.31162   0.54212   0.00000  Uiso   1.00
C405   C     0.16703   0.31246   0.45774   0.00000  Uiso   1.00
C406   C     0.16630   0.02087   0.54226   0.00000  Uiso   1.00
C407   C     0.16676   0.29056   0.49985   0.00000  Uiso   1.00
C408   C     0.16658   0.04277   0.50015   0.00000  Uiso   1.00
C409   C     0.13405   0.14111   0.35534   0.00000  Uiso   1.00
C410   C     0.19928   0.19222   0.64466   0.00000  Uiso   1.00
C411   C     0.13362   0.14070   0.63938   0.00000  Uiso   1.00
C412   C     0.19971   0.19263   0.36062   0.00000  Uiso   1.00
Cu413  Cu    0.16667   0.16667   0.54689   0.00000  Uiso   1.00
Cu414  Cu    0.16667   0.16666   0.45311   0.00000  Uiso   1.00
H415   H     0.32657   0.16633   0.44581   0.00000  Uiso   1.00
H416   H     0.00676   0.16700   0.55419   0.00000  Uiso   1.00
H417   H     0.16713   0.03804   0.42490   0.00000  Uiso   1.00
H418   H     0.16620   0.29530   0.57510   0.00000  Uiso   1.00
H419   H     0.16731   0.29680   0.42474   0.00000  Uiso   1.00
H420   H     0.16602   0.03653   0.57526   0.00000  Uiso   1.00
H421   H     0.10811   0.12070   0.37189   0.00000  Uiso   1.00
H422   H     0.22522   0.21263   0.62811   0.00000  Uiso   1.00
N423   N     0.16668   0.16668   0.61736   0.00000  Uiso   1.00
N424   N     0.16665   0.16666   0.38264   0.00000  Uiso   1.00
O425   O     0.16666   0.10655   0.53958   0.00000  Uiso   1.00
O426   O     0.16667   0.22678   0.46042   0.00000  Uiso   1.00
O427   O     0.16666   0.10654   0.46039   0.00000  Uiso   1.00
O428   O     0.16667   0.22679   0.53961   0.00000  Uiso   1.00
O429   O     0.09161   0.16667   0.53046   0.00000  Uiso   1.00
O430   O     0.24172   0.16666   0.46954   0.00000  Uiso   1.00
O431   O     0.09161   0.16666   0.45127   0.00000  Uiso   1.00
O432   O     0.24172   0.16667   0.54873   0.00000  Uiso   1.00
C433   C     0.09529   0.11032   0.61418   0.00000  Uiso   1.00
H434   H     0.09469   0.10892   0.57632   0.00000  Uiso   1.00
H435   H     0.10352   0.07886   0.62800   0.00000  Uiso   1.00
H436   H     0.05586   0.11790   0.62093   0.00000  Uiso   1.00
C437   C     0.23804   0.22301   0.38582   0.00000  Uiso   1.00
H438   H     0.23864   0.22442   0.42368   0.00000  Uiso   1.00
H439   H     0.27747   0.21544   0.37906   0.00000  Uiso   1.00
H440   H     0.22981   0.25447   0.37200   0.00000  Uiso   1.00
C441   C     0.49990   0.08743   0.50011   0.00000  Uiso   1.00
C442   C     0.50010   0.24590   0.49989   0.00000  Uiso   1.00
C443   C     0.40139   0.16659   0.48807   0.00000  Uiso   1.00
C444   C     0.59861   0.16674   0.51193   0.00000  Uiso   1.00
C445   C     0.34618   0.16656   0.48147   0.00000  Uiso   1.00
C446   C     0.65382   0.16678   0.51853   0.00000  Uiso   1.00
C447   C     0.50026   0.02171   0.45788   0.00000  Uiso   1.00
C448   C     0.49974   0.31162   0.54212   0.00000  Uiso   1.00
C449   C     0.50037   0.31246   0.45774   0.00000  Uiso   1.00
C450   C     0.49963   0.02087   0.54226   0.00000  Uiso   1.00
C451   C     0.50009   0.29056   0.49985   0.00000  Uiso   1.00
C452   C     0.49991   0.04277   0.50015   0.00000  Uiso   1.00
C453   C     0.46738   0.14111   0.35534   0.00000  Uiso   1.00
C454   C     0.53262   0.19222   0.64466   0.00000  Uiso   1.00
C455   C     0.46696   0.14070   0.63938   0.00000  Uiso   1.00
C456   C     0.53304   0.19263   0.36062   0.00000  Uiso   1.00
Cu457  Cu    0.50000   0.16667   0.54689   0.00000  Uiso   1.00
Cu458  Cu    0.50000   0.16666   0.45311   0.00000  Uiso   1.00
H459   H     0.65991   0.16633   0.44581   0.00000  Uiso   1.00
H460   H     0.34009   0.16700   0.55419   0.00000  Uiso   1.00
H461   H     0.50047   0.03804   0.42490   0.00000  Uiso   1.00
H462   H     0.49953   0.29530   0.57510   0.00000  Uiso   1.00
H463   H     0.50064   0.29680   0.42474   0.00000  Uiso   1.00
H464   H     0.49936   0.03653   0.57526   0.00000  Uiso   1.00
H465   H     0.44144   0.12070   0.37189   0.00000  Uiso   1.00
H466   H     0.55856   0.21263   0.62811   0.00000  Uiso   1.00
N467   N     0.50001   0.16668   0.61736   0.00000  Uiso   1.00
N468   N     0.49999   0.16666   0.38264   0.00000  Uiso   1.00
O469   O     0.50000   0.10655   0.53958   0.00000  Uiso   1.00
O470   O     0.50000   0.22678   0.46042   0.00000  Uiso   1.00
O471   O     0.50000   0.10654   0.46039   0.00000  Uiso   1.00
O472   O     0.50000   0.22679   0.53961   0.00000  Uiso   1.00
O473   O     0.42495   0.16667   0.53046   0.00000  Uiso   1.00
O474   O     0.57505   0.16666   0.46954   0.00000  Uiso   1.00
O475   O     0.42494   0.16666   0.45127   0.00000  Uiso   1.00
O476   O     0.57506   0.16667   0.54873   0.00000  Uiso   1.00
C477   C     0.42863   0.11032   0.61418   0.00000  Uiso   1.00
H478   H     0.42802   0.10892   0.57632   0.00000  Uiso   1.00
H479   H     0.43686   0.07886   0.62800   0.00000  Uiso   1.00
H480   H     0.38919   0.11790   0.62093   0.00000  Uiso   1.00
C481   C     0.57137   0.22301   0.38582   0.00000  Uiso   1.00
H482   H     0.57198   0.22442   0.42368   0.00000  Uiso   1.00
H483   H     0.61081   0.21544   0.37906   0.00000  Uiso   1.00
H484   H     0.56314   0.25447   0.37200   0.00000  Uiso   1.00
C485   C     0.83324   0.08743   0.50011   0.00000  Uiso   1.00
C486   C     0.83343   0.24590   0.49989   0.00000  Uiso   1.00
C487   C     0.73472   0.16659   0.48807   0.00000  Uiso   1.00
C488   C     0.93194   0.16674   0.51193   0.00000  Uiso   1.00
C489   C     0.67951   0.16656   0.48147   0.00000  Uiso   1.00
C490   C     0.98715   0.16678   0.51853   0.00000  Uiso   1.00
C491   C     0.83359   0.02171   0.45788   0.00000  Uiso   1.00
C492   C     0.83307   0.31162   0.54212   0.00000  Uiso   1.00
C493   C     0.83370   0.31246   0.45774   0.00000  Uiso   1.00
C494   C     0.83297   0.02087   0.54226   0.00000  Uiso   1.00
C495   C     0.83342   0.29056   0.49985   0.00000  Uiso   1.00
C496   C     0.83324   0.04277   0.50015   0.00000  Uiso   1.00
C497   C     0.80072   0.14111   0.35534   0.00000  Uiso   1.00
C498   C     0.86595   0.19222   0.64466   0.00000  Uiso   1.00
C499   C     0.80029   0.14070   0.63938   0.00000  Uiso   1.00
C500   C     0.86638   0.19263   0.36062   0.00000  Uiso   1.00
Cu501  Cu    0.83333   0.16667   0.54689   0.00000  Uiso   1.00
Cu502  Cu    0.83333   0.16666   0.45311   0.00000  Uiso   1.00
H503   H     0.99324   0.16633   0.44581   0.00000  Uiso   1.00
H504   H     0.67343   0.16700   0.55419   0.00000  Uiso   1.00
H505   H     0.83380   0.03804   0.42490   0.00000  Uiso   1.00
H506   H     0.83287   0.29530   0.57510   0.00000  Uiso   1.00
H507   H     0.83398   0.29680   0.42474   0.00000  Uiso   1.00
H508   H     0.83269   0.03653   0.57526   0.00000  Uiso   1.00
H509   H     0.77478   0.12070   0.37189   0.00000  Uiso   1.00
H510   H     0.89189   0.21263   0.62811   0.00000  Uiso   1.00
N511   N     0.83335   0.16668   0.61736   0.00000  Uiso   1.00
N512   N     0.83332   0.16666   0.38264   0.00000  Uiso   1.00
O513   O     0.83333   0.10655   0.53958   0.00000  Uiso   1.00
O514   O     0.83334   0.22678   0.46042   0.00000  Uiso   1.00
O515   O     0.83333   0.10654   0.46039   0.00000  Uiso   1.00
O516   O     0.83334   0.22679   0.53961   0.00000  Uiso   1.00
O517   O     0.75828   0.16667   0.53046   0.00000  Uiso   1.00
O518   O     0.90839   0.16666   0.46954   0.00000  Uiso   1.00
O519   O     0.75828   0.16666   0.45127   0.00000  Uiso   1.00
O520   O     0.90839   0.16667   0.54873   0.00000  Uiso   1.00
C521   C     0.76196   0.11032   0.61418   0.00000  Uiso   1.00
H522   H     0.76136   0.10892   0.57632   0.00000  Uiso   1.00
H523   H     0.77019   0.07886   0.62800   0.00000  Uiso   1.00
H524   H     0.72253   0.11790   0.62093   0.00000  Uiso   1.00
C525   C     0.90471   0.22301   0.38582   0.00000  Uiso   1.00
H526   H     0.90531   0.22442   0.42368   0.00000  Uiso   1.00
H527   H     0.94414   0.21544   0.37906   0.00000  Uiso   1.00
H528   H     0.89647   0.25447   0.37200   0.00000  Uiso   1.00
C529   C     0.16657   0.42076   0.50011   0.00000  Uiso   1.00
C530   C     0.16676   0.57924   0.49989   0.00000  Uiso   1.00
C531   C     0.06806   0.49993   0.48807   0.00000  Uiso   1.00
C532   C     0.26528   0.50007   0.51193   0.00000  Uiso   1.00
C533   C     0.01284   0.49989   0.48147   0.00000  Uiso   1.00
C534   C     0.32049   0.50011   0.51853   0.00000  Uiso   1.00
C535   C     0.16693   0.35505   0.45788   0.00000  Uiso   1.00
C536   C     0.16641   0.64495   0.54212   0.00000  Uiso   1.00
C537   C     0.16703   0.64580   0.45774   0.00000  Uiso   1.00
C538   C     0.16630   0.35420   0.54226   0.00000  Uiso   1.00
C539   C     0.16676   0.62390   0.49985   0.00000  Uiso   1.00
C540   C     0.16658   0.37610   0.50015   0.00000  Uiso   1.00
C541   C     0.13405   0.47444   0.35534   0.00000  Uiso   1.00
C542   C     0.19928   0.52556   0.64466   0.00000  Uiso   1.00
C543   C     0.13362   0.47403   0.63938   0.00000  Uiso   1.00
C544   C     0.19971   0.52597   0.36062   0.00000  Uiso   1.00
Cu545  Cu    0.16667   0.50001   0.54689   0.00000  Uiso   1.00
Cu546  Cu    0.16667   0.49999   0.45311   0.00000  Uiso   1.00
H547   H     0.32657   0.49967   0.44581   0.00000  Uiso   1.00
H548   H     0.00676   0.50033   0.55419   0.00000  Uiso   1.00
H549   H     0.16713   0.37137   0.42490   0.00000  Uiso   1.00
H550   H     0.16620   0.62863   0.57510   0.00000  Uiso   1.00
H551   H     0.16731   0.63014   0.42474   0.00000  Uiso   1.00
H552   H     0.16602   0.36986   0.57526   0.00000  Uiso   1.00
H553   H     0.10811   0.45403   0.37189   0.00000  Uiso   1.00
H554   H     0.22522   0.54597   0.62811   0.00000  Uiso   1.00
N555   N     0.16668   0.50001   0.61736   0.00000  Uiso   1.00
N556   N     0.16665   0.49999   0.38264   0.00000  Uiso   1.00
O557   O     0.16666   0.43989   0.53958   0.00000  Uiso   1.00
O558   O     0.16667   0.56011   0.46042   0.00000  Uiso   1.00
O559   O     0.16666   0.43988   0.46039   0.00000  Uiso   1.00
O560   O     0.16667   0.56012   0.53961   0.00000  Uiso   1.00
O561   O     0.09161   0.50000   0.53046   0.00000  Uiso   1.00
O562   O     0.24172   0.50000   0.46954   0.00000  Uiso   1.00
O563   O     0.09161   0.49999   0.45127   0.00000  Uiso   1.00
O564   O     0.24172   0.50001   0.54873   0.00000  Uiso   1.00
C565   C     0.09529   0.44366   0.61418   0.00000  Uiso   1.00
H566   H     0.09469   0.44225   0.57632   0.00000  Uiso   1.00
H567   H     0.10352   0.41220   0.62800   0.00000  Uiso   1.00
H568   H     0.05586   0.45123   0.62093   0.00000  Uiso   1.00
C569   C     0.23804   0.55635   0.38582   0.00000  Uiso   1.00
H570   H     0.23864   0.55775   0.42368   0.00000  Uiso   1.00
H571   H     0.27747   0.54877   0.37906   0.00000  Uiso   1.00
H572   H     0.22981   0.58780   0.37200   0.00000  Uiso   1.00
C573   C     0.49990   0.42076   0.50011   0.00000  Uiso   1.00
C574   C     0.50010   0.57924   0.49989   0.00000  Uiso   1.00
C575   C     0.40139   0.49993   0.48807   0.00000  Uiso   1.00
C576   C     0.59861   0.50007   0.51193   0.00000  Uiso   1.00
C577   C     0.34618   0.49989   0.48147   0.00000  Uiso   1.00
C578   C     0.65382   0.50011   0.51853   0.00000  Uiso   1.00
C579   C     0.50026   0.35505   0.45788   0.00000  Uiso   1.00
C580   C     0.49974   0.64495   0.54212   0.00000  Uiso   1.00
C581   C     0.50037   0.64580   0.45774   0.00000  Uiso   1.00
C582   C     0.49963   0.35420   0.54226   0.00000  Uiso   1.00
C583   C     0.50009   0.62390   0.49985   0.00000  Uiso   1.00
C584   C     0.49991   0.37610   0.50015   0.00000  Uiso   1.00
C585   C     0.46738   0.47444   0.35534   0.00000  Uiso   1.00
C586   C     0.53262   0.52556   0.64466   0.00000  Uiso   1.00
C587   C     0.46696   0.47403   0.63938   0.00000  Uiso   1.00
C588   C     0.53304   0.52597   0.36062   0.00000  Uiso   1.00
Cu589  Cu    0.50000   0.50001   0.54689   0.00000  Uiso   1.00
Cu590  Cu    0.50000   0.49999   0.45311   0.00000  Uiso   1.00
H591   H     0.65991   0.49967   0.44581   0.00000  Uiso   1.00
H592   H     0.34009   0.50033   0.55419   0.00000  Uiso   1.00
H593   H     0.50047   0.37137   0.42490   0.00000  Uiso   1.00
H594   H     0.49953   0.62863   0.57510   0.00000  Uiso   1.00
H595   H     0.50064   0.63014   0.42474   0.00000  Uiso   1.00
H596   H     0.49936   0.36986   0.57526   0.00000  Uiso   1.00
H597   H     0.44144   0.45403   0.37189   0.00000  Uiso   1.00
H598   H     0.55856   0.54597   0.62811   0.00000  Uiso   1.00
N599   N     0.50001   0.50001   0.61736   0.00000  Uiso   1.00
N600   N     0.49999   0.49999   0.38264   0.00000  Uiso   1.00
O601   O     0.50000   0.43989   0.53958   0.00000  Uiso   1.00
O602   O     0.50000   0.56011   0.46042   0.00000  Uiso   1.00
O603   O     0.50000   0.43988   0.46039   0.00000  Uiso   1.00
O604   O     0.50000   0.56012   0.53961   0.00000  Uiso   1.00
O605   O     0.42495   0.50000   0.53046   0.00000  Uiso   1.00
O606   O     0.57505   0.50000   0.46954   0.00000  Uiso   1.00
O607   O     0.42494   0.49999   0.45127   0.00000  Uiso   1.00
O608   O     0.57506   0.50001   0.54873   0.00000  Uiso   1.00
C609   C     0.42863   0.44366   0.61418   0.00000  Uiso   1.00
H610   H     0.42802   0.44225   0.57632   0.00000  Uiso   1.00
H611   H     0.43686   0.41220   0.62800   0.00000  Uiso   1.00
H612   H     0.38919   0.45123   0.62093   0.00000  Uiso   1.00
C613   C     0.57137   0.55635   0.38582   0.00000  Uiso   1.00
H614   H     0.57198   0.55775   0.42368   0.00000  Uiso   1.00
H615   H     0.61081   0.54877   0.37906   0.00000  Uiso   1.00
H616   H     0.56314   0.58780   0.37200   0.00000  Uiso   1.00
C617   C     0.83324   0.42076   0.50011   0.00000  Uiso   1.00
C618   C     0.83343   0.57924   0.49989   0.00000  Uiso   1.00
C619   C     0.73472   0.49993   0.48807   0.00000  Uiso   1.00
C620   C     0.93194   0.50007   0.51193   0.00000  Uiso   1.00
C621   C     0.67951   0.49989   0.48147   0.00000  Uiso   1.00
C622   C     0.98715   0.50011   0.51853   0.00000  Uiso   1.00
C623   C     0.83359   0.35505   0.45788   0.00000  Uiso   1.00
C624   C     0.83307   0.64495   0.54212   0.00000  Uiso   1.00
C625   C     0.83370   0.64580   0.45774   0.00000  Uiso   1.00
C626   C     0.83297   0.35420   0.54226   0.00000  Uiso   1.00
C627   C     0.83342   0.62390   0.49985   0.00000  Uiso   1.00
C628   C     0.83324   0.37610   0.50015   0.00000  Uiso   1.00
C629   C     0.80072   0.47444   0.35534   0.00000  Uiso   1.00
C630   C     0.86595   0.52556   0.64466   0.00000  Uiso   1.00
C631   C     0.80029   0.47403   0.63938   0.00000  Uiso   1.00
C632   C     0.86638   0.52597   0.36062   0.00000  Uiso   1.00
Cu633  Cu    0.83333   0.50001   0.54689   0.00000  Uiso   1.00
Cu634  Cu    0.83333   0.49999   0.45311   0.00000  Uiso   1.00
H635   H     0.99324   0.49967   0.44581   0.00000  Uiso   1.00
H636   H     0.67343   0.50033   0.55419   0.00000  Uiso   1.00
H637   H     0.83380   0.37137   0.42490   0.00000  Uiso   1.00
H638   H     0.83287   0.62863   0.57510   0.00000  Uiso   1.00
H639   H     0.83398   0.63014   0.42474   0.00000  Uiso   1.00
H640   H     0.83269   0.36986   0.57526   0.00000  Uiso   1.00
H641   H     0.77478   0.45403   0.37189   0.00000  Uiso   1.00
H642   H     0.89189   0.54597   0.62811   0.00000  Uiso   1.00
N643   N     0.83335   0.50001   0.61736   0.00000  Uiso   1.00
N644   N     0.83332   0.49999   0.38264   0.00000  Uiso   1.00
O645   O     0.83333   0.43989   0.53958   0.00000  Uiso   1.00
O646   O     0.83334   0.56011   0.46042   0.00000  Uiso   1.00
O647   O     0.83333   0.43988   0.46039   0.00000  Uiso   1.00
O648   O     0.83334   0.56012   0.53961   0.00000  Uiso   1.00
O649   O     0.75828   0.50000   0.53046   0.00000  Uiso   1.00
O650   O     0.90839   0.50000   0.46954   0.00000  Uiso   1.00
O651   O     0.75828   0.49999   0.45127   0.00000  Uiso   1.00
O652   O     0.90839   0.50001   0.54873   0.00000  Uiso   1.00
C653   C     0.76196   0.44366   0.61418   0.00000  Uiso   1.00
H654   H     0.76136   0.44225   0.57632   0.00000  Uiso   1.00
H655   H     0.77019   0.41220   0.62800   0.00000  Uiso   1.00
H656   H     0.72253   0.45123   0.62093   0.00000  Uiso   1.00
C657   C     0.90471   0.55635   0.38582   0.00000  Uiso   1.00
H658   H     0.90531   0.55775   0.42368   0.00000  Uiso   1.00
H659   H     0.94414   0.54877   0.37906   0.00000  Uiso   1.00
H660   H     0.89647   0.58780   0.37200   0.00000  Uiso   1.00
C661   C     0.16657   0.75410   0.50011   0.00000  Uiso   1.00
C662   C     0.16676   0.91257   0.49989   0.00000  Uiso   1.00
C663   C     0.06806   0.83326   0.48807   0.00000  Uiso   1.00
C664   C     0.26528   0.83341   0.51193   0.00000  Uiso   1.00
C665   C     0.01284   0.83322   0.48147   0.00000  Uiso   1.00
C666   C     0.32049   0.83344   0.51853   0.00000  Uiso   1.00
C667   C     0.16693   0.68838   0.45788   0.00000  Uiso   1.00
C668   C     0.16641   0.97829   0.54212   0.00000  Uiso   1.00
C669   C     0.16703   0.97913   0.45774   0.00000  Uiso   1.00
C670   C     0.16630   0.68754   0.54226   0.00000  Uiso   1.00
C671   C     0.16676   0.95723   0.49985   0.00000  Uiso   1.00
C672   C     0.16658   0.70944   0.50015   0.00000  Uiso   1.00
C673   C     0.13405   0.80778   0.35534   0.00000  Uiso   1.00
C674   C     0.19928   0.85889   0.64466   0.00000  Uiso   1.00
C675   C     0.13362   0.80737   0.63938   0.00000  Uiso   1.00
C676   C     0.19971   0.85930   0.36062   0.00000  Uiso   1.00
Cu677  Cu    0.16667   0.83334   0.54689   0.00000  Uiso   1.00
Cu678  Cu    0.16667   0.83333   0.45311   0.00000  Uiso   1.00
H679   H     0.32657   0.83300   0.44581   0.00000  Uiso   1.00
H680   H     0.00676   0.83367   0.55419   0.00000  Uiso   1.00
H681   H     0.16713   0.70470   0.42490   0.00000  Uiso   1.00
H682   H     0.16620   0.96196   0.57510   0.00000  Uiso   1.00
H683   H     0.16731   0.96347   0.42474   0.00000  Uiso   1.00
H684   H     0.16602   0.70320   0.57526   0.00000  Uiso   1.00
H685   H     0.10811   0.78737   0.37189   0.00000  Uiso   1.00
H686   H     0.22522   0.87930   0.62811   0.00000  Uiso   1.00
N687   N     0.16668   0.83334   0.61736   0.00000  Uiso   1.00
N688   N     0.16665   0.83332   0.38264   0.00000  Uiso   1.00
O689   O     0.16666   0.77322   0.53958   0.00000  Uiso   1.00
O690   O     0.16667   0.89345   0.46042   0.00000  Uiso   1.00
O691   O     0.16666   0.77321   0.46039   0.00000  Uiso   1.00
O692   O     0.16667   0.89346   0.53961   0.00000  Uiso   1.00
O693   O     0.09161   0.83334   0.53046   0.00000  Uiso   1.00
O694   O     0.24172   0.83333   0.46954   0.00000  Uiso   1.00
O695   O     0.09161   0.83333   0.45127   0.00000  Uiso   1.00
O696   O     0.24172   0.83334   0.54873   0.00000  Uiso   1.00
C697   C     0.09529   0.77699   0.61418   0.00000  Uiso   1.00
H698   H     0.09469   0.77558   0.57632   0.00000  Uiso   1.00
H699   H     0.10352   0.74553   0.62800   0.00000  Uiso   1.00
H700   H     0.05586   0.78456   0.62093   0.00000  Uiso   1.00
C701   C     0.23804   0.88968   0.38582   0.00000  Uiso   1.00
H702   H     0.23864   0.89108   0.42368   0.00000  Uiso   1.00
H703   H     0.27747   0.88211   0.37906   0.00000  Uiso   1.00
H704   H     0.22981   0.92114   0.37200   0.00000  Uiso   1.00
C705   C     0.49990   0.75410   0.50011   0.00000  Uiso   1.00
C706   C     0.50010   0.91257   0.49989   0.00000  Uiso   1.00
C707   C     0.40139   0.83326   0.48807   0.00000  Uiso   1.00
C708   C     0.59861   0.83341   0.51193   0.00000  Uiso   1.00
C709   C     0.34618   0.83322   0.48147   0.00000  Uiso   1.00
C710   C     0.65382   0.83344   0.51853   0.00000  Uiso   1.00
C711   C     0.50026   0.68838   0.45788   0.00000  Uiso   1.00
C712   C     0.49974   0.97829   0.54212   0.00000  Uiso   1.00
C713   C     0.50037   0.97913   0.45774   0.00000  Uiso   1.00
C714   C     0.49963   0.68754   0.54226   0.00000  Uiso   1.00
C715   C     0.50009   0.95723   0.49985   0.00000  Uiso   1.00
C716   C     0.49991   0.70944   0.50015   0.00000  Uiso   1.00
C717   C     0.46738   0.80778   0.35534   0.00000  Uiso   1.00
C718   C     0.53262   0.85889   0.64466   0.00000  Uiso   1.00
C719   C     0.46696   0.80737   0.63938   0.00000  Uiso   1.00
C720   C     0.53304   0.85930   0.36062   0.00000  Uiso   1.00
Cu721  Cu    0.50000   0.83334   0.54689   0.00000  Uiso   1.00
Cu722  Cu    0.50000   0.83333   0.45311   0.00000  Uiso   1.00
H723   H     0.65991   0.83300   0.44581   0.00000  Uiso   1.00
H724   H     0.34009   0.83367   0.55419   0.00000  Uiso   1.00
H725   H     0.50047   0.70470   0.42490   0.00000  Uiso   1.00
H726   H     0.49953   0.96196   0.57510   0.00000  Uiso   1.00
H727   H     0.50064   0.96347   0.42474   0.00000  Uiso   1.00
H728   H     0.49936   0.70320   0.57526   0.00000  Uiso   1.00
H729   H     0.44144   0.78737   0.37189   0.00000  Uiso   1.00
H730   H     0.55856   0.87930   0.62811   0.00000  Uiso   1.00
N731   N     0.50001   0.83334   0.61736   0.00000  Uiso   1.00
N732   N     0.49999   0.83332   0.38264   0.00000  Uiso   1.00
O733   O     0.50000   0.77322   0.53958   0.00000  Uiso   1.00
O734   O     0.50000   0.89345   0.46042   0.00000  Uiso   1.00
O735   O     0.50000   0.77321   0.46039   0.00000  Uiso   1.00
O736   O     0.50000   0.89346   0.53961   0.00000  Uiso   1.00
O737   O     0.42495   0.83334   0.53046   0.00000  Uiso   1.00
O738   O     0.57505   0.83333   0.46954   0.00000  Uiso   1.00
O739   O     0.42494   0.83333   0.45127   0.00000  Uiso   1.00
O740   O     0.57506   0.83334   0.54873   0.00000  Uiso   1.00
C741   C     0.42863   0.77699   0.61418   0.00000  Uiso   1.00
H742   H     0.42802   0.77558   0.57632   0.00000  Uiso   1.00
H743   H     0.43686   0.74553   0.62800   0.00000  Uiso   1.00
H744   H     0.38919   0.78456   0.62093   0.00000  Uiso   1.00
C745   C     0.57137   0.88968   0.38582   0.00000  Uiso   1.00
H746   H     0.57198   0.89108   0.42368   0.00000  Uiso   1.00
H747   H     0.61081   0.88211   0.37906   0.00000  Uiso   1.00
H748   H     0.56314   0.92114   0.37200   0.00000  Uiso   1.00
C749   C     0.83324   0.75410   0.50011   0.00000  Uiso   1.00
C750   C     0.83343   0.91257   0.49989   0.00000  Uiso   1.00
C751   C     0.73472   0.83326   0.48807   0.00000  Uiso   1.00
C752   C     0.93194   0.83341   0.51193   0.00000  Uiso   1.00
C753   C     0.67951   0.83322   0.48147   0.00000  Uiso   1.00
C754   C     0.98715   0.83344   0.51853   0.00000  Uiso   1.00
C755   C     0.83359   0.68838   0.45788   0.00000  Uiso   1.00
C756   C     0.83307   0.97829   0.54212   0.00000  Uiso   1.00
C757   C     0.83370   0.97913   0.45774   0.00000  Uiso   1.00
C758   C     0.83297   0.68754   0.54226   0.00000  Uiso   1.00
C759   C     0.83342   0.95723   0.49985   0.00000  Uiso   1.00
C760   C     0.83324   0.70944   0.50015   0.00000  Uiso   1.00
C761   C     0.80072   0.80778   0.35534   0.00000  Uiso   1.00
C762   C     0.86595   0.85889   0.64466   0.00000  Uiso   1.00
C763   C     0.80029   0.80737   0.63938   0.00000  Uiso   1.00
C764   C     0.86638   0.85930   0.36062   0.00000  Uiso   1.00
Cu765  Cu    0.83333   0.83334   0.54689   0.00000  Uiso   1.00
Cu766  Cu    0.83333   0.83333   0.45311   0.00000  Uiso   1.00
H767   H     0.99324   0.83300   0.44581   0.00000  Uiso   1.00
H768   H     0.67343   0.83367   0.55419   0.00000  Uiso   1.00
H769   H     0.83380   0.70470   0.42490   0.00000  Uiso   1.00
H770   H     0.83287   0.96196   0.57510   0.00000  Uiso   1.00
H771   H     0.83398   0.96347   0.42474   0.00000  Uiso   1.00
H772   H     0.83269   0.70320   0.57526   0.00000  Uiso   1.00
H773   H     0.77478   0.78737   0.37189   0.00000  Uiso   1.00
H774   H     0.89189   0.87930   0.62811   0.00000  Uiso   1.00
N775   N     0.83335   0.83334   0.61736   0.00000  Uiso   1.00
N776   N     0.83332   0.83332   0.38264   0.00000  Uiso   1.00
O777   O     0.83333   0.77322   0.53958   0.00000  Uiso   1.00
O778   O     0.83334   0.89345   0.46042   0.00000  Uiso   1.00
O779   O     0.83333   0.77321   0.46039   0.00000  Uiso   1.00
O780   O     0.83334   0.89346   0.53961   0.00000  Uiso   1.00
O781   O     0.75828   0.83334   0.53046   0.00000  Uiso   1.00
O782   O     0.90839   0.83333   0.46954   0.00000  Uiso   1.00
O783   O     0.75828   0.83333   0.45127   0.00000  Uiso   1.00
O784   O     0.90839   0.83334   0.54873   0.00000  Uiso   1.00
C785   C     0.76196   0.77699   0.61418   0.00000  Uiso   1.00
H786   H     0.76136   0.77558   0.57632   0.00000  Uiso   1.00
H787   H     0.77019   0.74553   0.62800   0.00000  Uiso   1.00
H788   H     0.72253   0.78456   0.62093   0.00000  Uiso   1.00
C789   C     0.90471   0.88968   0.38582   0.00000  Uiso   1.00
H790   H     0.90531   0.89108   0.42368   0.00000  Uiso   1.00
H791   H     0.94414   0.88211   0.37906   0.00000  Uiso   1.00
H792   H     0.89647   0.92114   0.37200   0.00000  Uiso   1.00
C793   C     0.16657   0.08743   0.83345   0.00000  Uiso   1.00
C794   C     0.16676   0.24590   0.83322   0.00000  Uiso   1.00
C795   C     0.06806   0.16659   0.82140   0.00000  Uiso   1.00
C796   C     0.26528   0.16674   0.84526   0.00000  Uiso   1.00
C797   C     0.01284   0.16656   0.81481   0.00000  Uiso   1.00
C798   C     0.32049   0.16678   0.85186   0.00000  Uiso   1.00
C799   C     0.16693   0.02171   0.79122   0.00000  Uiso   1.00
C800   C     0.16641   0.31162   0.87545   0.00000  Uiso   1.00
C801   C     0.16703   0.31246   0.79108   0.00000  Uiso   1.00
C802   C     0.16630   0.02087   0.87559   0.00000  Uiso   1.00
C803   C     0.16676   0.29056   0.83318   0.00000  Uiso   1.00
C804   C     0.16658   0.04277   0.83348   0.00000  Uiso   1.00
C805   C     0.13405   0.14111   0.68867   0.00000  Uiso   1.00
C806   C     0.19928   0.19222   0.97800   0.00000  Uiso   1.00
C807   C     0.13362   0.14070   0.97272   0.00000  Uiso   1.00
C808   C     0.19971   0.19263   0.69395   0.00000  Uiso   1.00
Cu809  Cu    0.16667   0.16667   0.88022   0.00000  Uiso   1.00
Cu810  Cu    0.16667   0.16666   0.78645   0.00000  Uiso   1.00
H811   H     0.32657   0.16633   0.77914   0.00000  Uiso   1.00
H812   H     0.00676   0.16700   0.88752   0.00000  Uiso   1.00
H813   H     0.16713   0.03804   0.75823   0.00000  Uiso   1.00
H814   H     0.16620   0.29530   0.90844   0.00000  Uiso   1.00
H815   H     0.16731   0.29680   0.75807   0.00000  Uiso   1.00
H816   H     0.16602   0.03653   0.90860   0.00000  Uiso   1.00
H817   H     0.10811   0.12070   0.70523   0.00000  Uiso   1.00
H818   H     0.22522   0.21263   0.96144   0.00000  Uiso   1.00
N819   N     0.16668   0.16668   0.95069   0.00000  Uiso   1.00
N820   N     0.16665   0.16666   0.71597   0.00000  Uiso   1.00
O821   O     0.16666   0.10655   0.87291   0.00000  Uiso   1.00
O822   O     0.16667   0.22678   0.79375   0.00000  Uiso   1.00
O823   O     0.16666   0.10654   0.79372   0.00000  Uiso   1.00
O824   O     0.16667   0.22679   0.87294   0.00000  Uiso   1.00
O825   O     0.09161   0.16667   0.86379   0.00000  Uiso   1.00
O826   O     0.24172   0.16666   0.80288   0.00000  Uiso   1.00
O827   O     0.09161   0.16666   0.78460   0.00000  Uiso   1.00
O828   O     0.24172   0.16667   0.88207   0.00000  Uiso   1.00
C829   C     0.09529   0.11032   0.94751   0.00000  Uiso   1.00
H830   H     0.09469   0.10892   0.90966   0.00000  Uiso   1.00
H831   H     0.10352   0.07886   0.96133   0.00000  Uiso   1.00
H832   H     0.05586   0.11790   0.95427   0.00000  Uiso   1.00
C833   C     0.23804   0.22301   0.71915   0.00000  Uiso   1.00
H834   H     0.23864   0.22442   0.75701   0.00000  Uiso   1.00
H835   H     0.27747   0.21544   0.71240   0.00000  Uiso   1.00
H836   H     0.22981   0.25447   0.70533   0.00000  Uiso   1.00
C837   C     0.49990   0.08743   0.83345   0.00000  Uiso   1.00
C838   C     0.50010   0.24590   0.83322   0.00000  Uiso   1.00
C839   C     0.40139   0.16659   0.82140   0.00000  Uiso   1.00
C840   C     0.59861   0.16674   0.84526   0.00000  Uiso   1.00
C841   C     0.34618   0.16656   0.81481   0.00000  Uiso   1.00
C842   C     0.65382   0.16678   0.85186   0.00000  Uiso   1.00
C843   C     0.50026   0.02171   0.79122   0.00000  Uiso   1.00
C844   C     0.49974   0.31162   0.87545   0.00000  Uiso   1.00
C845   C     0.50037   0.31246   0.79108   0.00000  Uiso   1.00
C846   C     0.49963   0.02087   0.87559   0.00000  Uiso   1.00
C847   C     0.50009   0.29056   0.83318   0.00000  Uiso   1.00
C848   C     0.49991   0.04277   0.83348   0.00000  Uiso   1.00
C849   C     0.46738   0.14111   0.68867   0.00000  Uiso   1.00
C850   C     0.53262   0.19222   0.97800   0.00000  Uiso   1.00
C851   C     0.46696   0.14070   0.97272   0.00000  Uiso   1.00
C852   C     0.53304   0.19263   0.69395   0.00000  Uiso   1.00
Cu853  Cu    0.50000   0.16667   0.88022   0.00000  Uiso   1.00
Cu854  Cu    0.50000   0.16666   0.78645   0.00000  Uiso   1.00
H855   H     0.65991   0.16633   0.77914   0.00000  Uiso   1.00
H856   H     0.34009   0.16700   0.88752   0.00000  Uiso   1.00
H857   H     0.50047   0.03804   0.75823   0.00000  Uiso   1.00
H858   H     0.49953   0.29530   0.90844   0.00000  Uiso   1.00
H859   H     0.50064   0.29680   0.75807   0.00000  Uiso   1.00
H860   H     0.49936   0.03653   0.90860   0.00000  Uiso   1.00
H861   H     0.44144   0.12070   0.70523   0.00000  Uiso   1.00
H862   H     0.55856   0.21263   0.96144   0.00000  Uiso   1.00
N863   N     0.50001   0.16668   0.95069   0.00000  Uiso   1.00
N864   N     0.49999   0.16666   0.71597   0.00000  Uiso   1.00
O865   O     0.50000   0.10655   0.87291   0.00000  Uiso   1.00
O866   O     0.50000   0.22678   0.79375   0.00000  Uiso   1.00
O867   O     0.50000   0.10654   0.79372   0.00000  Uiso   1.00
O868   O     0.50000   0.22679   0.87294   0.00000  Uiso   1.00
O869   O     0.42495   0.16667   0.86379   0.00000  Uiso   1.00
O870   O     0.57505   0.16666   0.80288   0.00000  Uiso   1.00
O871   O     0.42494   0.16666   0.78460   0.00000  Uiso   1.00
O872   O     0.57506   0.16667   0.88207   0.00000  Uiso   1.00
C873   C     0.42863   0.11032   0.94751   0.00000  Uiso   1.00
H874   H     0.42802   0.10892   0.90966   0.00000  Uiso   1.00
H875   H     0.43686   0.07886   0.96133   0.00000  Uiso   1.00
H876   H     0.38919   0.11790   0.95427   0.00000  Uiso   1.00
C877   C     0.57137   0.22301   0.71915   0.00000  Uiso   1.00
H878   H     0.57198   0.22442   0.75701   0.00000  Uiso   1.00
H879   H     0.61081   0.21544   0.71240   0.00000  Uiso   1.00
H880   H     0.56314   0.25447   0.70533   0.00000  Uiso   1.00
C881   C     0.83324   0.08743   0.83345   0.00000  Uiso   1.00
C882   C     0.83343   0.24590   0.83322   0.00000  Uiso   1.00
C883   C     0.73472   0.16659   0.82140   0.00000  Uiso   1.00
C884   C     0.93194   0.16674   0.84526   0.00000  Uiso   1.00
C885   C     0.67951   0.16656   0.81481   0.00000  Uiso   1.00
C886   C     0.98715   0.16678   0.85186   0.00000  Uiso   1.00
C887   C     0.83359   0.02171   0.79122   0.00000  Uiso   1.00
C888   C     0.83307   0.31162   0.87545   0.00000  Uiso   1.00
C889   C     0.83370   0.31246   0.79108   0.00000  Uiso   1.00
C890   C     0.83297   0.02087   0.87559   0.00000  Uiso   1.00
C891   C     0.83342   0.29056   0.83318   0.00000  Uiso   1.00
C892   C     0.83324   0.04277   0.83348   0.00000  Uiso   1.00
C893   C     0.80072   0.14111   0.68867   0.00000  Uiso   1.00
C894   C     0.86595   0.19222   0.97800   0.00000  Uiso   1.00
C895   C     0.80029   0.14070   0.97272   0.00000  Uiso   1.00
C896   C     0.86638   0.19263   0.69395   0.00000  Uiso   1.00
Cu897  Cu    0.83333   0.16667   0.88022   0.00000  Uiso   1.00
Cu898  Cu    0.83333   0.16666   0.78645   0.00000  Uiso   1.00
H899   H     0.99324   0.16633   0.77914   0.00000  Uiso   1.00
H900   H     0.67343   0.16700   0.88752   0.00000  Uiso   1.00
H901   H     0.83380   0.03804   0.75823   0.00000  Uiso   1.00
H902   H     0.83287   0.29530   0.90844   0.00000  Uiso   1.00
H903   H     0.83398   0.29680   0.75807   0.00000  Uiso   1.00
H904   H     0.83269   0.03653   0.90860   0.00000  Uiso   1.00
H905   H     0.77478   0.12070   0.70523   0.00000  Uiso   1.00
H906   H     0.89189   0.21263   0.96144   0.00000  Uiso   1.00
N907   N     0.83335   0.16668   0.95069   0.00000  Uiso   1.00
N908   N     0.83332   0.16666   0.71597   0.00000  Uiso   1.00
O909   O     0.83333   0.10655   0.87291   0.00000  Uiso   1.00
O910   O     0.83334   0.22678   0.79375   0.00000  Uiso   1.00
O911   O     0.83333   0.10654   0.79372   0.00000  Uiso   1.00
O912   O     0.83334   0.22679   0.87294   0.00000  Uiso   1.00
O913   O     0.75828   0.16667   0.86379   0.00000  Uiso   1.00
O914   O     0.90839   0.16666   0.80288   0.00000  Uiso   1.00
O915   O     0.75828   0.16666   0.78460   0.00000  Uiso   1.00
O916   O     0.90839   0.16667   0.88207   0.00000  Uiso   1.00
C917   C     0.76196   0.11032   0.94751   0.00000  Uiso   1.00
H918   H     0.76136   0.10892   0.90966   0.00000  Uiso   1.00
H919   H     0.77019   0.07886   0.96133   0.00000  Uiso   1.00
H920   H     0.72253   0.11790   0.95427   0.00000  Uiso   1.00
C921   C     0.90471   0.22301   0.71915   0.00000  Uiso   1.00
H922   H     0.90531   0.22442   0.75701   0.00000  Uiso   1.00
H923   H     0.94414   0.21544   0.71240   0.00000  Uiso   1.00
H924   H     0.89647   0.25447   0.70533   0.00000  Uiso   1.00
C925   C     0.16657   0.42076   0.83345   0.00000  Uiso   1.00
C926   C     0.16676   0.57924   0.83322   0.00000  Uiso   1.00
C927   C     0.06806   0.49993   0.82140   0.00000  Uiso   1.00
C928   C     0.26528   0.50007   0.84526   0.00000  Uiso   1.00
C929   C     0.01284   0.49989   0.81481   0.00000  Uiso   1.00
C930   C     0.32049   0.50011   0.85186   0.00000  Uiso   1.00
C931   C     0.16693   0.35505   0.79122   0.00000  Uiso   1.00
C932   C     0.16641   0.64495   0.87545   0.00000  Uiso   1.00
C933   C     0.16703   0.64580   0.79108   0.00000  Uiso   1.00
C934   C     0.16630   0.35420   0.87559   0.00000  Uiso   1.00
C935   C     0.16676   0.62390   0.83318   0.00000  Uiso   1.00
C936   C     0.16658   0.37610   0.83348   0.00000  Uiso   1.00
C937   C     0.13405   0.47444   0.68867   0.00000  Uiso   1.00
C938   C     0.19928   0.52556   0.97800   0.00000  Uiso   1.00
C939   C     0.13362   0.47403   0.97272   0.00000  Uiso   1.00
C940   C     0.19971   0.52597   0.69395   0.00000  Uiso   1.00
Cu941  Cu    0.16667   0.50001   0.88022   0.00000  Uiso   1.00
Cu942  Cu    0.16667   0.49999   0.78645   0.00000  Uiso   1.00
H943   H     0.32657   0.49967   0.77914   0.00000  Uiso   1.00
H944   H     0.00676   0.50033   0.88752   0.00000  Uiso   1.00
H945   H     0.16713   0.37137   0.75823   0.00000  Uiso   1.00
H946   H     0.16620   0.62863   0.90844   0.00000  Uiso   1.00
H947   H     0.16731   0.63014   0.75807   0.00000  Uiso   1.00
H948   H     0.16602   0.36986   0.90860   0.00000  Uiso   1.00
H949   H     0.10811   0.45403   0.70523   0.00000  Uiso   1.00
H950   H     0.22522   0.54597   0.96144   0.00000  Uiso   1.00
N951   N     0.16668   0.50001   0.95069   0.00000  Uiso   1.00
N952   N     0.16665   0.49999   0.71597   0.00000  Uiso   1.00
O953   O     0.16666   0.43989   0.87291   0.00000  Uiso   1.00
O954   O     0.16667   0.56011   0.79375   0.00000  Uiso   1.00
O955   O     0.16666   0.43988   0.79372   0.00000  Uiso   1.00
O956   O     0.16667   0.56012   0.87294   0.00000  Uiso   1.00
O957   O     0.09161   0.50000   0.86379   0.00000  Uiso   1.00
O958   O     0.24172   0.50000   0.80288   0.00000  Uiso   1.00
O959   O     0.09161   0.49999   0.78460   0.00000  Uiso   1.00
O960   O     0.24172   0.50001   0.88207   0.00000  Uiso   1.00
C961   C     0.09529   0.44366   0.94751   0.00000  Uiso   1.00
H962   H     0.09469   0.44225   0.90966   0.00000  Uiso   1.00
H963   H     0.10352   0.41220   0.96133   0.00000  Uiso   1.00
H964   H     0.05586   0.45123   0.95427   0.00000  Uiso   1.00
C965   C     0.23804   0.55635   0.71915   0.00000  Uiso   1.00
H966   H     0.23864   0.55775   0.75701   0.00000  Uiso   1.00
H967   H     0.27747   0.54877   0.71240   0.00000  Uiso   1.00
H968   H     0.22981   0.58780   0.70533   0.00000  Uiso   1.00
C969   C     0.49990   0.42076   0.83345   0.00000  Uiso   1.00
C970   C     0.50010   0.57924   0.83322   0.00000  Uiso   1.00
C971   C     0.40139   0.49993   0.82140   0.00000  Uiso   1.00
C972   C     0.59861   0.50007   0.84526   0.00000  Uiso   1.00
C973   C     0.34618   0.49989   0.81481   0.00000  Uiso   1.00
C974   C     0.65382   0.50011   0.85186   0.00000  Uiso   1.00
C975   C     0.50026   0.35505   0.79122   0.00000  Uiso   1.00
C976   C     0.49974   0.64495   0.87545   0.00000  Uiso   1.00
C977   C     0.50037   0.64580   0.79108   0.00000  Uiso   1.00
C978   C     0.49963   0.35420   0.87559   0.00000  Uiso   1.00
C979   C     0.50009   0.62390   0.83318   0.00000  Uiso   1.00
C980   C     0.49991   0.37610   0.83348   0.00000  Uiso   1.00
C981   C     0.46738   0.47444   0.68867   0.00000  Uiso   1.00
C982   C     0.53262   0.52556   0.97800   0.00000  Uiso   1.00
C983   C     0.46696   0.47403   0.97272   0.00000  Uiso   1.00
C984   C     0.53304   0.52597   0.69395   0.00000  Uiso   1.00
Cu985  Cu    0.50000   0.50001   0.88022   0.00000  Uiso   1.00
Cu986  Cu    0.50000   0.49999   0.78645   0.00000  Uiso   1.00
H987   H     0.65991   0.49967   0.77914   0.00000  Uiso   1.00
H988   H     0.34009   0.50033   0.88752   0.00000  Uiso   1.00
H989   H     0.50047   0.37137   0.75823   0.00000  Uiso   1.00
H990   H     0.49953   0.62863   0.90844   0.00000  Uiso   1.00
H991   H     0.50064   0.63014   0.75807   0.00000  Uiso   1.00
H992   H     0.49936   0.36986   0.90860   0.00000  Uiso   1.00
H993   H     0.44144   0.45403   0.70523   0.00000  Uiso   1.00
H994   H     0.55856   0.54597   0.96144   0.00000  Uiso   1.00
N995   N     0.50001   0.50001   0.95069   0.00000  Uiso   1.00
N996   N     0.49999   0.49999   0.71597   0.00000  Uiso   1.00
O997   O     0.50000   0.43989   0.87291   0.00000  Uiso   1.00
O998   O     0.50000   0.56011   0.79375   0.00000  Uiso   1.00
O999   O     0.50000   0.43988   0.79372   0.00000  Uiso   1.00
O1000  O     0.50000   0.56012   0.87294   0.00000  Uiso   1.00
O1001  O     0.42495   0.50000   0.86379   0.00000  Uiso   1.00
O1002  O     0.57505   0.50000   0.80288   0.00000  Uiso   1.00
O1003  O     0.42494   0.49999   0.78460   0.00000  Uiso   1.00
O1004  O     0.57506   0.50001   0.88207   0.00000  Uiso   1.00
C1005  C     0.42863   0.44366   0.94751   0.00000  Uiso   1.00
H1006  H     0.42802   0.44225   0.90966   0.00000  Uiso   1.00
H1007  H     0.43686   0.41220   0.96133   0.00000  Uiso   1.00
H1008  H     0.38919   0.45123   0.95427   0.00000  Uiso   1.00
C1009  C     0.57137   0.55635   0.71915   0.00000  Uiso   1.00
H1010  H     0.57198   0.55775   0.75701   0.00000  Uiso   1.00
H1011  H     0.61081   0.54877   0.71240   0.00000  Uiso   1.00
H1012  H     0.56314   0.58780   0.70533   0.00000  Uiso   1.00
C1013  C     0.83324   0.42076   0.83345   0.00000  Uiso   1.00
C1014  C     0.83343   0.57924   0.83322   0.00000  Uiso   1.00
C1015  C     0.73472   0.49993   0.82140   0.00000  Uiso   1.00
C1016  C     0.93194   0.50007   0.84526   0.00000  Uiso   1.00
C1017  C     0.67951   0.49989   0.81481   0.00000  Uiso   1.00
C1018  C     0.98715   0.50011   0.85186   0.00000  Uiso   1.00
C1019  C     0.83359   0.35505   0.79122   0.00000  Uiso   1.00
C1020  C     0.83307   0.64495   0.87545   0.00000  Uiso   1.00
C1021  C     0.83370   0.64580   0.79108   0.00000  Uiso   1.00
C1022  C     0.83297   0.35420   0.87559   0.00000  Uiso   1.00
C1023  C     0.83342   0.62390   0.83318   0.00000  Uiso   1.00
C1024  C     0.83324   0.37610   0.83348   0.00000  Uiso   1.00
C1025  C     0.80072   0.47444   0.68867   0.00000  Uiso   1.00
C1026  C     0.86595   0.52556   0.97800   0.00000  Uiso   1.00
C1027  C     0.80029   0.47403   0.97272   0.00000  Uiso   1.00
C1028  C     0.86638   0.52597   0.69395   0.00000  Uiso   1.00
Cu1029 Cu    0.83333   0.50001   0.88022   0.00000  Uiso   1.00
Cu1030 Cu    0.83333   0.49999   0.78645   0.00000  Uiso   1.00
H1031  H     0.99324   0.49967   0.77914   0.00000  Uiso   1.00
H1032  H     0.67343   0.50033   0.88752   0.00000  Uiso   1.00
H1033  H     0.83380   0.37137   0.75823   0.00000  Uiso   1.00
H1034  H     0.83287   0.62863   0.90844   0.00000  Uiso   1.00
H1035  H     0.83398   0.63014   0.75807   0.00000  Uiso   1.00
H1036  H     0.83269   0.36986   0.90860   0.00000  Uiso   1.00
H1037  H     0.77478   0.45403   0.70523   0.00000  Uiso   1.00
H1038  H     0.89189   0.54597   0.96144   0.00000  Uiso   1.00
N1039  N     0.83335   0.50001   0.95069   0.00000  Uiso   1.00
N1040  N     0.83332   0.49999   0.71597   0.00000  Uiso   1.00
O1041  O     0.83333   0.43989   0.87291   0.00000  Uiso   1.00
O1042  O     0.83334   0.56011   0.79375   0.00000  Uiso   1.00
O1043  O     0.83333   0.43988   0.79372   0.00000  Uiso   1.00
O1044  O     0.83334   0.56012   0.87294   0.00000  Uiso   1.00
O1045  O     0.75828   0.50000   0.86379   0.00000  Uiso   1.00
O1046  O     0.90839   0.50000   0.80288   0.00000  Uiso   1.00
O1047  O     0.75828   0.49999   0.78460   0.00000  Uiso   1.00
O1048  O     0.90839   0.50001   0.88207   0.00000  Uiso   1.00
C1049  C     0.76196   0.44366   0.94751   0.00000  Uiso   1.00
H1050  H     0.76136   0.44225   0.90966   0.00000  Uiso   1.00
H1051  H     0.77019   0.41220   0.96133   0.00000  Uiso   1.00
H1052  H     0.72253   0.45123   0.95427   0.00000  Uiso   1.00
C1053  C     0.90471   0.55635   0.71915   0.00000  Uiso   1.00
H1054  H     0.90531   0.55775   0.75701   0.00000  Uiso   1.00
H1055  H     0.94414   0.54877   0.71240   0.00000  Uiso   1.00
H1056  H     0.89647   0.58780   0.70533   0.00000  Uiso   1.00
C1057  C     0.16657   0.75410   0.83345   0.00000  Uiso   1.00
C1058  C     0.16676   0.91257   0.83322   0.00000  Uiso   1.00
C1059  C     0.06806   0.83326   0.82140   0.00000  Uiso   1.00
C1060  C     0.26528   0.83341   0.84526   0.00000  Uiso   1.00
C1061  C     0.01284   0.83322   0.81481   0.00000  Uiso   1.00
C1062  C     0.32049   0.83344   0.85186   0.00000  Uiso   1.00
C1063  C     0.16693   0.68838   0.79122   0.00000  Uiso   1.00
C1064  C     0.16641   0.97829   0.87545   0.00000  Uiso   1.00
C1065  C     0.16703   0.97913   0.79108   0.00000  Uiso   1.00
C1066  C     0.16630   0.68754   0.87559   0.00000  Uiso   1.00
C1067  C     0.16676   0.95723   0.83318   0.00000  Uiso   1.00
C1068  C     0.16658   0.70944   0.83348   0.00000  Uiso   1.00
C1069  C     0.13405   0.80778   0.68867   0.00000  Uiso   1.00
C1070  C     0.19928   0.85889   0.97800   0.00000  Uiso   1.00
C1071  C     0.13362   0.80737   0.97272   0.00000  Uiso   1.00
C1072  C     0.19971   0.85930   0.69395   0.00000  Uiso   1.00
Cu1073 Cu    0.16667   0.83334   0.88022   0.00000  Uiso   1.00
Cu1074 Cu    0.16667   0.83333   0.78645   0.00000  Uiso   1.00
H1075  H     0.32657   0.83300   0.77914   0.00000  Uiso   1.00
H1076  H     0.00676   0.83367   0.88752   0.00000  Uiso   1.00
H1077  H     0.16713   0.70470   0.75823   0.00000  Uiso   1.00
H1078  H     0.16620   0.96196   0.90844   0.00000  Uiso   1.00
H1079  H     0.16731   0.96347   0.75807   0.00000  Uiso   1.00
H1080  H     0.16602   0.70320   0.90860   0.00000  Uiso   1.00
H1081  H     0.10811   0.78737   0.70523   0.00000  Uiso   1.00
H1082  H     0.22522   0.87930   0.96144   0.00000  Uiso   1.00
N1083  N     0.16668   0.83334   0.95069   0.00000  Uiso   1.00
N1084  N     0.16665   0.83332   0.71597   0.00000  Uiso   1.00
O1085  O     0.16666   0.77322   0.87291   0.00000  Uiso   1.00
O1086  O     0.16667   0.89345   0.79375   0.00000  Uiso   1.00
O1087  O     0.16666   0.77321   0.79372   0.00000  Uiso   1.00
O1088  O     0.16667   0.89346   0.87294   0.00000  Uiso   1.00
O1089  O     0.09161   0.83334   0.86379   0.00000  Uiso   1.00
O1090  O     0.24172   0.83333   0.80288   0.00000  Uiso   1.00
O1091  O     0.09161   0.83333   0.78460   0.00000  Uiso   1.00
O1092  O     0.24172   0.83334   0.88207   0.00000  Uiso   1.00
C1093  C     0.09529   0.77699   0.94751   0.00000  Uiso   1.00
H1094  H     0.09469   0.77558   0.90966   0.00000  Uiso   1.00
H1095  H     0.10352   0.74553   0.96133   0.00000  Uiso   1.00
H1096  H     0.05586   0.78456   0.95427   0.00000  Uiso   1.00
C1097  C     0.23804   0.88968   0.71915   0.00000  Uiso   1.00
H1098  H     0.23864   0.89108   0.75701   0.00000  Uiso   1.00
H1099  H     0.27747   0.88211   0.71240   0.00000  Uiso   1.00
H1100  H     0.22981   0.92114   0.70533   0.00000  Uiso   1.00
C1101  C     0.49990   0.75410   0.83345   0.00000  Uiso   1.00
C1102  C     0.50010   0.91257   0.83322   0.00000  Uiso   1.00
C1103  C     0.40139   0.83326   0.82140   0.00000  Uiso   1.00
C1104  C     0.59861   0.83341   0.84526   0.00000  Uiso   1.00
C1105  C     0.34618   0.83322   0.81481   0.00000  Uiso   1.00
C1106  C     0.65382   0.83344   0.85186   0.00000  Uiso   1.00
C1107  C     0.50026   0.68838   0.79122   0.00000  Uiso   1.00
C1108  C     0.49974   0.97829   0.87545   0.00000  Uiso   1.00
C1109  C     0.50037   0.97913   0.79108   0.00000  Uiso   1.00
C1110  C     0.49963   0.68754   0.87559   0.00000  Uiso   1.00
C1111  C     0.50009   0.95723   0.83318   0.00000  Uiso   1.00
C1112  C     0.49991   0.70944   0.83348   0.00000  Uiso   1.00
C1113  C     0.46738   0.80778   0.68867   0.00000  Uiso   1.00
C1114  C     0.53262   0.85889   0.97800   0.00000  Uiso   1.00
C1115  C     0.46696   0.80737   0.97272   0.00000  Uiso   1.00
C1116  C     0.53304   0.85930   0.69395   0.00000  Uiso   1.00
Cu1117 Cu    0.50000   0.83334   0.88022   0.00000  Uiso   1.00
Cu1118 Cu    0.50000   0.83333   0.78645   0.00000  Uiso   1.00
H1119  H     0.65991   0.83300   0.77914   0.00000  Uiso   1.00
H1120  H     0.34009   0.83367   0.88752   0.00000  Uiso   1.00
H1121  H     0.50047   0.70470   0.75823   0.00000  Uiso   1.00
H1122  H     0.49953   0.96196   0.90844   0.00000  Uiso   1.00
H1123  H     0.50064   0.96347   0.75807   0.00000  Uiso   1.00
H1124  H     0.49936   0.70320   0.90860   0.00000  Uiso   1.00
H1125  H     0.44144   0.78737   0.70523   0.00000  Uiso   1.00
H1126  H     0.55856   0.87930   0.96144   0.00000  Uiso   1.00
N1127  N     0.50001   0.83334   0.95069   0.00000  Uiso   1.00
N1128  N     0.49999   0.83332   0.71597   0.00000  Uiso   1.00
O1129  O     0.50000   0.77322   0.87291   0.00000  Uiso   1.00
O1130  O     0.50000   0.89345   0.79375   0.00000  Uiso   1.00
O1131  O     0.50000   0.77321   0.79372   0.00000  Uiso   1.00
O1132  O     0.50000   0.89346   0.87294   0.00000  Uiso   1.00
O1133  O     0.42495   0.83334   0.86379   0.00000  Uiso   1.00
O1134  O     0.57505   0.83333   0.80288   0.00000  Uiso   1.00
O1135  O     0.42494   0.83333   0.78460   0.00000  Uiso   1.00
O1136  O     0.57506   0.83334   0.88207   0.00000  Uiso   1.00
C1137  C     0.42863   0.77699   0.94751   0.00000  Uiso   1.00
H1138  H     0.42802   0.77558   0.90966   0.00000  Uiso   1.00
H1139  H     0.43686   0.74553   0.96133   0.00000  Uiso   1.00
H1140  H     0.38919   0.78456   0.95427   0.00000  Uiso   1.00
C1141  C     0.57137   0.88968   0.71915   0.00000  Uiso   1.00
H1142  H     0.57198   0.89108   0.75701   0.00000  Uiso   1.00
H1143  H     0.61081   0.88211   0.71240   0.00000  Uiso   1.00
H1144  H     0.56314   0.92114   0.70533   0.00000  Uiso   1.00
C1145  C     0.83324   0.75410   0.83345   0.00000  Uiso   1.00
C1146  C     0.83343   0.91257   0.83322   0.00000  Uiso   1.00
C1147  C     0.73472   0.83326   0.82140   0.00000  Uiso   1.00
C1148  C     0.93194   0.83341   0.84526   0.00000  Uiso   1.00
C1149  C     0.67951   0.83322   0.81481   0.00000  Uiso   1.00
C1150  C     0.98715   0.83344   0.85186   0.00000  Uiso   1.00
C1151  C     0.83359   0.68838   0.79122   0.00000  Uiso   1.00
C1152  C     0.83307   0.97829   0.87545   0.00000  Uiso   1.00
C1153  C     0.83370   0.97913   0.79108   0.00000  Uiso   1.00
C1154  C     0.83297   0.68754   0.87559   0.00000  Uiso   1.00
C1155  C     0.83342   0.95723   0.83318   0.00000  Uiso   1.00
C1156  C     0.83324   0.70944   0.83348   0.00000  Uiso   1.00
C1157  C     0.80072   0.80778   0.68867   0.00000  Uiso   1.00
C1158  C     0.86595   0.85889   0.97800   0.00000  Uiso   1.00
C1159  C     0.80029   0.80737   0.97272   0.00000  Uiso   1.00
C1160  C     0.86638   0.85930   0.69395   0.00000  Uiso   1.00
Cu1161 Cu    0.83333   0.83334   0.88022   0.00000  Uiso   1.00
Cu1162 Cu    0.83333   0.83333   0.78645   0.00000  Uiso   1.00
H1163  H     0.99324   0.83300   0.77914   0.00000  Uiso   1.00
H1164  H     0.67343   0.83367   0.88752   0.00000  Uiso   1.00
H1165  H     0.83380   0.70470   0.75823   0.00000  Uiso   1.00
H1166  H     0.83287   0.96196   0.90844   0.00000  Uiso   1.00
H1167  H     0.83398   0.96347   0.75807   0.00000  Uiso   1.00
H1168  H     0.83269   0.70320   0.90860   0.00000  Uiso   1.00
H1169  H     0.77478   0.78737   0.70523   0.00000  Uiso   1.00
H1170  H     0.89189   0.87930   0.96144   0.00000  Uiso   1.00
N1171  N     0.83335   0.83334   0.95069   0.00000  Uiso   1.00
N1172  N     0.83332   0.83332   0.71597   0.00000  Uiso   1.00
O1173  O     0.83333   0.77322   0.87291   0.00000  Uiso   1.00
O1174  O     0.83334   0.89345   0.79375   0.00000  Uiso   1.00
O1175  O     0.83333   0.77321   0.79372   0.00000  Uiso   1.00
O1176  O     0.83334   0.89346   0.87294   0.00000  Uiso   1.00
O1177  O     0.75828   0.83334   0.86379   0.00000  Uiso   1.00
O1178  O     0.90839   0.83333   0.80288   0.00000  Uiso   1.00
O1179  O     0.75828   0.83333   0.78460   0.00000  Uiso   1.00
O1180  O     0.90839   0.83334   0.88207   0.00000  Uiso   1.00
C1181  C     0.76196   0.77699   0.94751   0.00000  Uiso   1.00
H1182  H     0.76136   0.77558   0.90966   0.00000  Uiso   1.00
H1183  H     0.77019   0.74553   0.96133   0.00000  Uiso   1.00
H1184  H     0.72253   0.78456   0.95427   0.00000  Uiso   1.00
C1185  C     0.90471   0.88968   0.71915   0.00000  Uiso   1.00
H1186  H     0.90531   0.89108   0.75701   0.00000  Uiso   1.00
H1187  H     0.94414   0.88211   0.71240   0.00000  Uiso   1.00
H1188  H     0.89647   0.92114   0.70533   0.00000  Uiso   1.00
loop_
_geom_bond_atom_site_label_1
_geom_bond_atom_site_label_2
_geom_bond_distance
_geom_bond_site_symmetry_2
_ccdc_geom_bond_type
C1     O29     1.300   .     A
C1     C12     1.451   .     S
C1     O31     1.296   .     A
C2     O30     1.300   .     A
C2     C11     1.451   .     S
C2     O32     1.296   .     A
C3     O35     1.292   .     A
C3     O33     1.295   .     A
C3     C5      1.434   .     S
C4     O36     1.292   .     A
C4     O34     1.295   .     A
C4     C6      1.434   .     S
C5     C94     1.332   1_455 S
C5     H107    1.087   1_455 S
C6     C49     1.332   .     S
C6     H64     1.087   .     S
C7     C12     1.403   .     A
C7     H21     1.083   .     S
C7     C273    1.384   1_545 S
C8     H22     1.083   .     S
C8     C11     1.403   .     A
C8     C142    1.384   .     S
C9     C11     1.400   .     A
C9     H23     1.083   .     S
C9     C139    1.384   .     S
C10    C12     1.400   .     A
C10    H24     1.083   .     S
C10    C272    1.384   1_545 S
C13    N28     1.352   .     A
C13    H25     1.083   .     S
C13    C807    1.417   1_554 S
C14    N27     1.352   .     A
C14    H26     1.083   .     S
C14    C412    1.417   .     S
C15    N27     1.394   .     A
C15    C37     1.506   .     S
C15    C409    1.417   .     S
C16    N28     1.394   .     A
C16    C41     1.506   .     S
C16    C806    1.417   1_554 S
Cu17   O36     1.959   .     S
Cu17   Cu18    2.699   .     S
Cu17   O29     1.967   .     S
Cu17   O33     1.961   .     S
Cu17   N27     2.028   .     S
Cu17   O32     1.962   .     S
Cu18   O35     1.959   .     S
Cu18   N28     2.028   .     S
Cu18   O30     1.967   .     S
Cu18   O34     1.961   .     S
Cu18   O31     1.962   .     S
H19    C49     1.087   .     S
H20    C94     1.087   1_455 S
C37    H38     1.089   .     S
C37    H39     1.111   .     S
C37    H40     1.111   .     S
C41    H43     1.111   .     S
C41    H44     1.111   .     S
C41    H42     1.089   .     S
C45    O73     1.300   .     A
C45    C56     1.451   .     S
C45    O75     1.296   .     A
C46    O74     1.300   .     A
C46    C55     1.451   .     S
C46    O76     1.296   .     A
C47    O79     1.292   .     A
C47    O77     1.295   .     A
C47    C49     1.434   .     S
C48    O80     1.292   .     A
C48    O78     1.295   .     A
C48    C50     1.434   .     S
C50    C93     1.332   .     S
C50    H108    1.087   .     S
C51    C56     1.403   .     A
C51    H65     1.083   .     S
C51    C317    1.384   1_545 S
C52    H66     1.083   .     S
C52    C55     1.403   .     A
C52    C186    1.384   .     S
C53    C55     1.400   .     A
C53    H67     1.083   .     S
C53    C183    1.384   .     S
C54    C56     1.400   .     A
C54    H68     1.083   .     S
C54    C316    1.384   1_545 S
C57    N72     1.352   .     A
C57    H69     1.083   .     S
C57    C851    1.417   1_554 S
C58    N71     1.352   .     A
C58    H70     1.083   .     S
C58    C456    1.417   .     S
C59    N71     1.394   .     A
C59    C81     1.506   .     S
C59    C453    1.417   .     S
C60    N72     1.394   .     A
C60    C85     1.506   .     S
C60    C850    1.417   1_554 S
Cu61   O80     1.959   .     S
Cu61   Cu62    2.699   .     S
Cu61   O73     1.967   .     S
Cu61   O77     1.961   .     S
Cu61   N71     2.028   .     S
Cu61   O76     1.962   .     S
Cu62   O79     1.959   .     S
Cu62   N72     2.028   .     S
Cu62   O74     1.967   .     S
Cu62   O78     1.961   .     S
Cu62   O75     1.962   .     S
H63    C93     1.087   .     S
C81    H82     1.089   .     S
C81    H83     1.111   .     S
C81    H84     1.111   .     S
C85    H87     1.111   .     S
C85    H88     1.111   .     S
C85    H86     1.089   .     S
C89    O117    1.300   .     A
C89    C100    1.451   .     S
C89    O119    1.296   .     A
C90    O118    1.300   .     A
C90    C99     1.451   .     S
C90    O120    1.296   .     A
C91    O123    1.292   .     A
C91    O121    1.295   .     A
C91    C93     1.434   .     S
C92    O124    1.292   .     A
C92    O122    1.295   .     A
C92    C94     1.434   .     S
C94    C5      1.332   1_655 S
C94    H20     1.087   1_655 S
C95    C100    1.403   .     A
C95    H109    1.083   .     S
C95    C361    1.384   1_545 S
C96    H110    1.083   .     S
C96    C99     1.403   .     A
C96    C230    1.384   .     S
C97    C99     1.400   .     A
C97    H111    1.083   .     S
C97    C227    1.384   .     S
C98    C100    1.400   .     A
C98    H112    1.083   .     S
C98    C360    1.384   1_545 S
C101   N116    1.352   .     A
C101   H113    1.083   .     S
C101   C895    1.417   1_554 S
C102   N115    1.352   .     A
C102   H114    1.083   .     S
C102   C500    1.417   .     S
C103   N115    1.394   .     A
C103   C125    1.506   .     S
C103   C497    1.417   .     S
C104   N116    1.394   .     A
C104   C129    1.506   .     S
C104   C894    1.417   1_554 S
Cu105  O124    1.959   .     S
Cu105  Cu106   2.699   .     S
Cu105  O117    1.967   .     S
Cu105  O121    1.961   .     S
Cu105  N115    2.028   .     S
Cu105  O120    1.962   .     S
Cu106  O123    1.959   .     S
Cu106  N116    2.028   .     S
Cu106  O118    1.967   .     S
Cu106  O122    1.961   .     S
Cu106  O119    1.962   .     S
H107   C5      1.087   1_655 S
C125   H126    1.089   .     S
C125   H127    1.111   .     S
C125   H128    1.111   .     S
C129   H131    1.111   .     S
C129   H132    1.111   .     S
C129   H130    1.089   .     S
C133   O161    1.300   .     A
C133   C144    1.451   .     S
C133   O163    1.296   .     A
C134   O162    1.300   .     A
C134   C143    1.451   .     S
C134   O164    1.296   .     A
C135   O167    1.292   .     A
C135   O165    1.295   .     A
C135   C137    1.434   .     S
C136   O168    1.292   .     A
C136   O166    1.295   .     A
C136   C138    1.434   .     S
C137   C226    1.332   1_455 S
C137   H239    1.087   1_455 S
C138   C181    1.332   .     S
C138   H196    1.087   .     S
C139   C144    1.403   .     A
C139   H153    1.083   .     S
C140   H154    1.083   .     S
C140   C143    1.403   .     A
C140   C274    1.384   .     S
C141   C143    1.400   .     A
C141   H155    1.083   .     S
C141   C271    1.384   .     S
C142   C144    1.400   .     A
C142   H156    1.083   .     S
C145   N160    1.352   .     A
C145   H157    1.083   .     S
C145   C939    1.417   1_554 S
C146   N159    1.352   .     A
C146   H158    1.083   .     S
C146   C544    1.417   .     S
C147   N159    1.394   .     A
C147   C169    1.506   .     S
C147   C541    1.417   .     S
C148   N160    1.394   .     A
C148   C173    1.506   .     S
C148   C938    1.417   1_554 S
Cu149  O168    1.959   .     S
Cu149  Cu150   2.699   .     S
Cu149  O161    1.967   .     S
Cu149  O165    1.961   .     S
Cu149  N159    2.028   .     S
Cu149  O164    1.962   .     S
Cu150  O167    1.959   .     S
Cu150  N160    2.028   .     S
Cu150  O162    1.967   .     S
Cu150  O166    1.961   .     S
Cu150  O163    1.962   .     S
H151   C181    1.087   .     S
H152   C226    1.087   1_455 S
C169   H170    1.089   .     S
C169   H171    1.111   .     S
C169   H172    1.111   .     S
C173   H175    1.111   .     S
C173   H176    1.111   .     S
C173   H174    1.089   .     S
C177   O205    1.300   .     A
C177   C188    1.451   .     S
C177   O207    1.296   .     A
C178   O206    1.300   .     A
C178   C187    1.451   .     S
C178   O208    1.296   .     A
C179   O211    1.292   .     A
C179   O209    1.295   .     A
C179   C181    1.434   .     S
C180   O212    1.292   .     A
C180   O210    1.295   .     A
C180   C182    1.434   .     S
C182   C225    1.332   .     S
C182   H240    1.087   .     S
C183   C188    1.403   .     A
C183   H197    1.083   .     S
C184   H198    1.083   .     S
C184   C187    1.403   .     A
C184   C318    1.384   .     S
C185   C187    1.400   .     A
C185   H199    1.083   .     S
C185   C315    1.384   .     S
C186   C188    1.400   .     A
C186   H200    1.083   .     S
C189   N204    1.352   .     A
C189   H201    1.083   .     S
C189   C983    1.417   1_554 S
C190   N203    1.352   .     A
C190   H202    1.083   .     S
C190   C588    1.417   .     S
C191   N203    1.394   .     A
C191   C213    1.506   .     S
C191   C585    1.417   .     S
C192   N204    1.394   .     A
C192   C217    1.506   .     S
C192   C982    1.417   1_554 S
Cu193  O212    1.959   .     S
Cu193  Cu194   2.699   .     S
Cu193  O205    1.967   .     S
Cu193  O209    1.961   .     S
Cu193  N203    2.028   .     S
Cu193  O208    1.962   .     S
Cu194  O211    1.959   .     S
Cu194  N204    2.028   .     S
Cu194  O206    1.967   .     S
Cu194  O210    1.961   .     S
Cu194  O207    1.962   .     S
H195   C225    1.087   .     S
C213   H214    1.089   .     S
C213   H215    1.111   .     S
C213   H216    1.111   .     S
C217   H219    1.111   .     S
C217   H220    1.111   .     S
C217   H218    1.089   .     S
C221   O249    1.300   .     A
C221   C232    1.451   .     S
C221   O251    1.296   .     A
C222   O250    1.300   .     A
C222   C231    1.451   .     S
C222   O252    1.296   .     A
C223   O255    1.292   .     A
C223   O253    1.295   .     A
C223   C225    1.434   .     S
C224   O256    1.292   .     A
C224   O254    1.295   .     A
C224   C226    1.434   .     S
C226   C137    1.332   1_655 S
C226   H152    1.087   1_655 S
C227   C232    1.403   .     A
C227   H241    1.083   .     S
C228   H242    1.083   .     S
C228   C231    1.403   .     A
C228   C362    1.384   .     S
C229   C231    1.400   .     A
C229   H243    1.083   .     S
C229   C359    1.384   .     S
C230   C232    1.400   .     A
C230   H244    1.083   .     S
C233   N248    1.352   .     A
C233   H245    1.083   .     S
C233   C1027   1.417   1_554 S
C234   N247    1.352   .     A
C234   H246    1.083   .     S
C234   C632    1.417   .     S
C235   N247    1.394   .     A
C235   C257    1.506   .     S
C235   C629    1.417   .     S
C236   N248    1.394   .     A
C236   C261    1.506   .     S
C236   C1026   1.417   1_554 S
Cu237  O256    1.959   .     S
Cu237  Cu238   2.699   .     S
Cu237  O249    1.967   .     S
Cu237  O253    1.961   .     S
Cu237  N247    2.028   .     S
Cu237  O252    1.962   .     S
Cu238  O255    1.959   .     S
Cu238  N248    2.028   .     S
Cu238  O250    1.967   .     S
Cu238  O254    1.961   .     S
Cu238  O251    1.962   .     S
H239   C137    1.087   1_655 S
C257   H258    1.089   .     S
C257   H259    1.111   .     S
C257   H260    1.111   .     S
C261   H263    1.111   .     S
C261   H264    1.111   .     S
C261   H262    1.089   .     S
C265   O293    1.300   .     A
C265   C276    1.451   .     S
C265   O295    1.296   .     A
C266   O294    1.300   .     A
C266   C275    1.451   .     S
C266   O296    1.296   .     A
C267   O299    1.292   .     A
C267   O297    1.295   .     A
C267   C269    1.434   .     S
C268   O300    1.292   .     A
C268   O298    1.295   .     A
C268   C270    1.434   .     S
C269   C358    1.332   1_455 S
C269   H371    1.087   1_455 S
C270   C313    1.332   .     S
C270   H328    1.087   .     S
C271   C276    1.403   .     A
C271   H285    1.083   .     S
C272   H286    1.083   .     S
C272   C275    1.403   .     A
C272   C10     1.384   1_565 S
C273   C275    1.400   .     A
C273   H287    1.083   .     S
C273   C7      1.384   1_565 S
C274   C276    1.400   .     A
C274   H288    1.083   .     S
C277   N292    1.352   .     A
C277   H289    1.083   .     S
C277   C1071   1.417   1_554 S
C278   N291    1.352   .     A
C278   H290    1.083   .     S
C278   C676    1.417   .     S
C279   N291    1.394   .     A
C279   C301    1.506   .     S
C279   C673    1.417   .     S
C280   N292    1.394   .     A
C280   C305    1.506   .     S
C280   C1070   1.417   1_554 S
Cu281  O300    1.959   .     S
Cu281  Cu282   2.699   .     S
Cu281  O293    1.967   .     S
Cu281  O297    1.961   .     S
Cu281  N291    2.028   .     S
Cu281  O296    1.962   .     S
Cu282  O299    1.959   .     S
Cu282  N292    2.028   .     S
Cu282  O294    1.967   .     S
Cu282  O298    1.961   .     S
Cu282  O295    1.962   .     S
H283   C313    1.087   .     S
H284   C358    1.087   1_455 S
C301   H302    1.089   .     S
C301   H303    1.111   .     S
C301   H304    1.111   .     S
C305   H307    1.111   .     S
C305   H308    1.111   .     S
C305   H306    1.089   .     S
C309   O337    1.300   .     A
C309   C320    1.451   .     S
C309   O339    1.296   .     A
C310   O338    1.300   .     A
C310   C319    1.451   .     S
C310   O340    1.296   .     A
C311   O343    1.292   .     A
C311   O341    1.295   .     A
C311   C313    1.434   .     S
C312   O344    1.292   .     A
C312   O342    1.295   .     A
C312   C314    1.434   .     S
C314   C357    1.332   .     S
C314   H372    1.087   .     S
C315   C320    1.403   .     A
C315   H329    1.083   .     S
C316   H330    1.083   .     S
C316   C319    1.403   .     A
C316   C54     1.384   1_565 S
C317   C319    1.400   .     A
C317   H331    1.083   .     S
C317   C51     1.384   1_565 S
C318   C320    1.400   .     A
C318   H332    1.083   .     S
C321   N336    1.352   .     A
C321   H333    1.083   .     S
C321   C1115   1.417   1_554 S
C322   N335    1.352   .     A
C322   H334    1.083   .     S
C322   C720    1.417   .     S
C323   N335    1.394   .     A
C323   C345    1.506   .     S
C323   C717    1.417   .     S
C324   N336    1.394   .     A
C324   C349    1.506   .     S
C324   C1114   1.417   1_554 S
Cu325  O344    1.959   .     S
Cu325  Cu326   2.699   .     S
Cu325  O337    1.967   .     S
Cu325  O341    1.961   .     S
Cu325  N335    2.028   .     S
Cu325  O340    1.962   .     S
Cu326  O343    1.959   .     S
Cu326  N336    2.028   .     S
Cu326  O338    1.967   .     S
Cu326  O342    1.961   .     S
Cu326  O339    1.962   .     S
H327   C357    1.087   .     S
C345   H346    1.089   .     S
C345   H347    1.111   .     S
C345   H348    1.111   .     S
C349   H351    1.111   .     S
C349   H352    1.111   .     S
C349   H350    1.089   .     S
C353   O381    1.300   .     A
C353   C364    1.451   .     S
C353   O383    1.296   .     A
C354   O382    1.300   .     A
C354   C363    1.451   .     S
C354   O384    1.296   .     A
C355   O387    1.292   .     A
C355   O385    1.295   .     A
C355   C357    1.434   .     S
C356   O388    1.292   .     A
C356   O386    1.295   .     A
C356   C358    1.434   .     S
C358   C269    1.332   1_655 S
C358   H284    1.087   1_655 S
C359   C364    1.403   .     A
C359   H373    1.083   .     S
C360   H374    1.083   .     S
C360   C363    1.403   .     A
C360   C98     1.384   1_565 S
C361   C363    1.400   .     A
C361   H375    1.083   .     S
C361   C95     1.384   1_565 S
C362   C364    1.400   .     A
C362   H376    1.083   .     S
C365   N380    1.352   .     A
C365   H377    1.083   .     S
C365   C1159   1.417   1_554 S
C366   N379    1.352   .     A
C366   H378    1.083   .     S
C366   C764    1.417   .     S
C367   N379    1.394   .     A
C367   C389    1.506   .     S
C367   C761    1.417   .     S
C368   N380    1.394   .     A
C368   C393    1.506   .     S
C368   C1158   1.417   1_554 S
Cu369  O388    1.959   .     S
Cu369  Cu370   2.699   .     S
Cu369  O381    1.967   .     S
Cu369  O385    1.961   .     S
Cu369  N379    2.028   .     S
Cu369  O384    1.962   .     S
Cu370  O387    1.959   .     S
Cu370  N380    2.028   .     S
Cu370  O382    1.967   .     S
Cu370  O386    1.961   .     S
Cu370  O383    1.962   .     S
H371   C269    1.087   1_655 S
C389   H390    1.089   .     S
C389   H391    1.111   .     S
C389   H392    1.111   .     S
C393   H395    1.111   .     S
C393   H396    1.111   .     S
C393   H394    1.089   .     S
C397   O425    1.300   .     A
C397   C408    1.451   .     S
C397   O427    1.296   .     A
C398   O426    1.300   .     A
C398   C407    1.451   .     S
C398   O428    1.296   .     A
C399   O431    1.292   .     A
C399   O429    1.295   .     A
C399   C401    1.434   .     S
C400   O432    1.292   .     A
C400   O430    1.295   .     A
C400   C402    1.434   .     S
C401   C490    1.332   1_455 S
C401   H503    1.087   1_455 S
C402   C445    1.332   .     S
C402   H460    1.087   .     S
C403   C408    1.403   .     A
C403   H417    1.083   .     S
C403   C669    1.384   1_545 S
C404   H418    1.083   .     S
C404   C407    1.403   .     A
C404   C538    1.384   .     S
C405   C407    1.400   .     A
C405   H419    1.083   .     S
C405   C535    1.384   .     S
C406   C408    1.400   .     A
C406   H420    1.083   .     S
C406   C668    1.384   1_545 S
C409   N424    1.352   .     A
C409   H421    1.083   .     S
C410   N423    1.352   .     A
C410   H422    1.083   .     S
C410   C808    1.417   .     S
C411   N423    1.394   .     A
C411   C433    1.506   .     S
C411   C805    1.417   .     S
C412   N424    1.394   .     A
C412   C437    1.506   .     S
Cu413  O432    1.959   .     S
Cu413  Cu414   2.699   .     S
Cu413  O425    1.967   .     S
Cu413  O429    1.961   .     S
Cu413  N423    2.028   .     S
Cu413  O428    1.962   .     S
Cu414  O431    1.959   .     S
Cu414  N424    2.028   .     S
Cu414  O426    1.967   .     S
Cu414  O430    1.961   .     S
Cu414  O427    1.962   .     S
H415   C445    1.087   .     S
H416   C490    1.087   1_455 S
C433   H434    1.089   .     S
C433   H435    1.111   .     S
C433   H436    1.111   .     S
C437   H439    1.111   .     S
C437   H440    1.111   .     S
C437   H438    1.089   .     S
C441   O469    1.300   .     A
C441   C452    1.451   .     S
C441   O471    1.296   .     A
C442   O470    1.300   .     A
C442   C451    1.451   .     S
C442   O472    1.296   .     A
C443   O475    1.292   .     A
C443   O473    1.295   .     A
C443   C445    1.434   .     S
C444   O476    1.292   .     A
C444   O474    1.295   .     A
C444   C446    1.434   .     S
C446   C489    1.332   .     S
C446   H504    1.087   .     S
C447   C452    1.403   .     A
C447   H461    1.083   .     S
C447   C713    1.384   1_545 S
C448   H462    1.083   .     S
C448   C451    1.403   .     A
C448   C582    1.384   .     S
C449   C451    1.400   .     A
C449   H463    1.083   .     S
C449   C579    1.384   .     S
C450   C452    1.400   .     A
C450   H464    1.083   .     S
C450   C712    1.384   1_545 S
C453   N468    1.352   .     A
C453   H465    1.083   .     S
C454   N467    1.352   .     A
C454   H466    1.083   .     S
C454   C852    1.417   .     S
C455   N467    1.394   .     A
C455   C477    1.506   .     S
C455   C849    1.417   .     S
C456   N468    1.394   .     A
C456   C481    1.506   .     S
Cu457  O476    1.959   .     S
Cu457  Cu458   2.699   .     S
Cu457  O469    1.967   .     S
Cu457  O473    1.961   .     S
Cu457  N467    2.028   .     S
Cu457  O472    1.962   .     S
Cu458  O475    1.959   .     S
Cu458  N468    2.028   .     S
Cu458  O470    1.967   .     S
Cu458  O474    1.961   .     S
Cu458  O471    1.962   .     S
H459   C489    1.087   .     S
C477   H478    1.089   .     S
C477   H479    1.111   .     S
C477   H480    1.111   .     S
C481   H483    1.111   .     S
C481   H484    1.111   .     S
C481   H482    1.089   .     S
C485   O513    1.300   .     A
C485   C496    1.451   .     S
C485   O515    1.296   .     A
C486   O514    1.300   .     A
C486   C495    1.451   .     S
C486   O516    1.296   .     A
C487   O519    1.292   .     A
C487   O517    1.295   .     A
C487   C489    1.434   .     S
C488   O520    1.292   .     A
C488   O518    1.295   .     A
C488   C490    1.434   .     S
C490   C401    1.332   1_655 S
C490   H416    1.087   1_655 S
C491   C496    1.403   .     A
C491   H505    1.083   .     S
C491   C757    1.384   1_545 S
C492   H506    1.083   .     S
C492   C495    1.403   .     A
C492   C626    1.384   .     S
C493   C495    1.400   .     A
C493   H507    1.083   .     S
C493   C623    1.384   .     S
C494   C496    1.400   .     A
C494   H508    1.083   .     S
C494   C756    1.384   1_545 S
C497   N512    1.352   .     A
C497   H509    1.083   .     S
C498   N511    1.352   .     A
C498   H510    1.083   .     S
C498   C896    1.417   .     S
C499   N511    1.394   .     A
C499   C521    1.506   .     S
C499   C893    1.417   .     S
C500   N512    1.394   .     A
C500   C525    1.506   .     S
Cu501  O520    1.959   .     S
Cu501  Cu502   2.699   .     S
Cu501  O513    1.967   .     S
Cu501  O517    1.961   .     S
Cu501  N511    2.028   .     S
Cu501  O516    1.962   .     S
Cu502  O519    1.959   .     S
Cu502  N512    2.028   .     S
Cu502  O514    1.967   .     S
Cu502  O518    1.961   .     S
Cu502  O515    1.962   .     S
H503   C401    1.087   1_655 S
C521   H522    1.089   .     S
C521   H523    1.111   .     S
C521   H524    1.111   .     S
C525   H527    1.111   .     S
C525   H528    1.111   .     S
C525   H526    1.089   .     S
C529   O557    1.300   .     A
C529   C540    1.451   .     S
C529   O559    1.296   .     A
C530   O558    1.300   .     A
C530   C539    1.451   .     S
C530   O560    1.296   .     A
C531   O563    1.292   .     A
C531   O561    1.295   .     A
C531   C533    1.434   .     S
C532   O564    1.292   .     A
C532   O562    1.295   .     A
C532   C534    1.434   .     S
C533   C622    1.332   1_455 S
C533   H635    1.087   1_455 S
C534   C577    1.332   .     S
C534   H592    1.087   .     S
C535   C540    1.403   .     A
C535   H549    1.083   .     S
C536   H550    1.083   .     S
C536   C539    1.403   .     A
C536   C670    1.384   .     S
C537   C539    1.400   .     A
C537   H551    1.083   .     S
C537   C667    1.384   .     S
C538   C540    1.400   .     A
C538   H552    1.083   .     S
C541   N556    1.352   .     A
C541   H553    1.083   .     S
C542   N555    1.352   .     A
C542   H554    1.083   .     S
C542   C940    1.417   .     S
C543   N555    1.394   .     A
C543   C565    1.506   .     S
C543   C937    1.417   .     S
C544   N556    1.394   .     A
C544   C569    1.506   .     S
Cu545  O564    1.959   .     S
Cu545  Cu546   2.699   .     S
Cu545  O557    1.967   .     S
Cu545  O561    1.961   .     S
Cu545  N555    2.028   .     S
Cu545  O560    1.962   .     S
Cu546  O563    1.959   .     S
Cu546  N556    2.028   .     S
Cu546  O558    1.967   .     S
Cu546  O562    1.961   .     S
Cu546  O559    1.962   .     S
H547   C577    1.087   .     S
H548   C622    1.087   1_455 S
C565   H566    1.089   .     S
C565   H567    1.111   .     S
C565   H568    1.111   .     S
C569   H571    1.111   .     S
C569   H572    1.111   .     S
C569   H570    1.089   .     S
C573   O601    1.300   .     A
C573   C584    1.451   .     S
C573   O603    1.296   .     A
C574   O602    1.300   .     A
C574   C583    1.451   .     S
C574   O604    1.296   .     A
C575   O607    1.292   .     A
C575   O605    1.295   .     A
C575   C577    1.434   .     S
C576   O608    1.292   .     A
C576   O606    1.295   .     A
C576   C578    1.434   .     S
C578   C621    1.332   .     S
C578   H636    1.087   .     S
C579   C584    1.403   .     A
C579   H593    1.083   .     S
C580   H594    1.083   .     S
C580   C583    1.403   .     A
C580   C714    1.384   .     S
C581   C583    1.400   .     A
C581   H595    1.083   .     S
C581   C711    1.384   .     S
C582   C584    1.400   .     A
C582   H596    1.083   .     S
C585   N600    1.352   .     A
C585   H597    1.083   .     S
C586   N599    1.352   .     A
C586   H598    1.083   .     S
C586   C984    1.417   .     S
C587   N599    1.394   .     A
C587   C609    1.506   .     S
C587   C981    1.417   .     S
C588   N600    1.394   .     A
C588   C613    1.506   .     S
Cu589  O608    1.959   .     S
Cu589  Cu590   2.699   .     S
Cu589  O601    1.967   .     S
Cu589  O605    1.961   .     S
Cu589  N599    2.028   .     S
Cu589  O604    1.962   .     S
Cu590  O607    1.959   .     S
Cu590  N600    2.028   .     S
Cu590  O602    1.967   .     S
Cu590  O606    1.961   .     S
Cu590  O603    1.962   .     S
H591   C621    1.087   .     S
C609   H610    1.089   .     S
C609   H611    1.111   .     S
C609   H612    1.111   .     S
C613   H615    1.111   .     S
C613   H616    1.111   .     S
C613   H614    1.089   .     S
C617   O645    1.300   .     A
C617   C628    1.451   .     S
C617   O647    1.296   .     A
C618   O646    1.300   .     A
C618   C627    1.451   .     S
C618   O648    1.296   .     A
C619   O651    1.292   .     A
C619   O649    1.295   .     A
C619   C621    1.434   .     S
C620   O652    1.292   .     A
C620   O650    1.295   .     A
C620   C622    1.434   .     S
C622   C533    1.332   1_655 S
C622   H548    1.087   1_655 S
C623   C628    1.403   .     A
C623   H637    1.083   .     S
C624   H638    1.083   .     S
C624   C627    1.403   .     A
C624   C758    1.384   .     S
C625   C627    1.400   .     A
C625   H639    1.083   .     S
C625   C755    1.384   .     S
C626   C628    1.400   .     A
C626   H640    1.083   .     S
C629   N644    1.352   .     A
C629   H641    1.083   .     S
C630   N643    1.352   .     A
C630   H642    1.083   .     S
C630   C1028   1.417   .     S
C631   N643    1.394   .     A
C631   C653    1.506   .     S
C631   C1025   1.417   .     S
C632   N644    1.394   .     A
C632   C657    1.506   .     S
Cu633  O652    1.959   .     S
Cu633  Cu634   2.699   .     S
Cu633  O645    1.967   .     S
Cu633  O649    1.961   .     S
Cu633  N643    2.028   .     S
Cu633  O648    1.962   .     S
Cu634  O651    1.959   .     S
Cu634  N644    2.028   .     S
Cu634  O646    1.967   .     S
Cu634  O650    1.961   .     S
Cu634  O647    1.962   .     S
H635   C533    1.087   1_655 S
C653   H654    1.089   .     S
C653   H655    1.111   .     S
C653   H656    1.111   .     S
C657   H659    1.111   .     S
C657   H660    1.111   .     S
C657   H658    1.089   .     S
C661   O689    1.300   .     A
C661   C672    1.451   .     S
C661   O691    1.296   .     A
C662   O690    1.300   .     A
C662   C671    1.451   .     S
C662   O692    1.296   .     A
C663   O695    1.292   .     A
C663   O693    1.295   .     A
C663   C665    1.434   .     S
C664   O696    1.292   .     A
C664   O694    1.295   .     A
C664   C666    1.434   .     S
C665   C754    1.332   1_455 S
C665   H767    1.087   1_455 S
C666   C709    1.332   .     S
C666   H724    1.087   .     S
C667   C672    1.403   .     A
C667   H681    1.083   .     S
C668   H682    1.083   .     S
C668   C671    1.403   .     A
C668   C406    1.384   1_565 S
C669   C671    1.400   .     A
C669   H683    1.083   .     S
C669   C403    1.384   1_565 S
C670   C672    1.400   .     A
C670   H684    1.083   .     S
C673   N688    1.352   .     A
C673   H685    1.083   .     S
C674   N687    1.352   .     A
C674   H686    1.083   .     S
C674   C1072   1.417   .     S
C675   N687    1.394   .     A
C675   C697    1.506   .     S
C675   C1069   1.417   .     S
C676   N688    1.394   .     A
C676   C701    1.506   .     S
Cu677  O696    1.959   .     S
Cu677  Cu678   2.699   .     S
Cu677  O689    1.967   .     S
Cu677  O693    1.961   .     S
Cu677  N687    2.028   .     S
Cu677  O692    1.962   .     S
Cu678  O695    1.959   .     S
Cu678  N688    2.028   .     S
Cu678  O690    1.967   .     S
Cu678  O694    1.961   .     S
Cu678  O691    1.962   .     S
H679   C709    1.087   .     S
H680   C754    1.087   1_455 S
C697   H698    1.089   .     S
C697   H699    1.111   .     S
C697   H700    1.111   .     S
C701   H703    1.111   .     S
C701   H704    1.111   .     S
C701   H702    1.089   .     S
C705   O733    1.300   .     A
C705   C716    1.451   .     S
C705   O735    1.296   .     A
C706   O734    1.300   .     A
C706   C715    1.451   .     S
C706   O736    1.296   .     A
C707   O739    1.292   .     A
C707   O737    1.295   .     A
C707   C709    1.434   .     S
C708   O740    1.292   .     A
C708   O738    1.295   .     A
C708   C710    1.434   .     S
C710   C753    1.332   .     S
C710   H768    1.087   .     S
C711   C716    1.403   .     A
C711   H725    1.083   .     S
C712   H726    1.083   .     S
C712   C715    1.403   .     A
C712   C450    1.384   1_565 S
C713   C715    1.400   .     A
C713   H727    1.083   .     S
C713   C447    1.384   1_565 S
C714   C716    1.400   .     A
C714   H728    1.083   .     S
C717   N732    1.352   .     A
C717   H729    1.083   .     S
C718   N731    1.352   .     A
C718   H730    1.083   .     S
C718   C1116   1.417   .     S
C719   N731    1.394   .     A
C719   C741    1.506   .     S
C719   C1113   1.417   .     S
C720   N732    1.394   .     A
C720   C745    1.506   .     S
Cu721  O740    1.959   .     S
Cu721  Cu722   2.699   .     S
Cu721  O733    1.967   .     S
Cu721  O737    1.961   .     S
Cu721  N731    2.028   .     S
Cu721  O736    1.962   .     S
Cu722  O739    1.959   .     S
Cu722  N732    2.028   .     S
Cu722  O734    1.967   .     S
Cu722  O738    1.961   .     S
Cu722  O735    1.962   .     S
H723   C753    1.087   .     S
C741   H742    1.089   .     S
C741   H743    1.111   .     S
C741   H744    1.111   .     S
C745   H747    1.111   .     S
C745   H748    1.111   .     S
C745   H746    1.089   .     S
C749   O777    1.300   .     A
C749   C760    1.451   .     S
C749   O779    1.296   .     A
C750   O778    1.300   .     A
C750   C759    1.451   .     S
C750   O780    1.296   .     A
C751   O783    1.292   .     A
C751   O781    1.295   .     A
C751   C753    1.434   .     S
C752   O784    1.292   .     A
C752   O782    1.295   .     A
C752   C754    1.434   .     S
C754   C665    1.332   1_655 S
C754   H680    1.087   1_655 S
C755   C760    1.403   .     A
C755   H769    1.083   .     S
C756   H770    1.083   .     S
C756   C759    1.403   .     A
C756   C494    1.384   1_565 S
C757   C759    1.400   .     A
C757   H771    1.083   .     S
C757   C491    1.384   1_565 S
C758   C760    1.400   .     A
C758   H772    1.083   .     S
C761   N776    1.352   .     A
C761   H773    1.083   .     S
C762   N775    1.352   .     A
C762   H774    1.083   .     S
C762   C1160   1.417   .     S
C763   N775    1.394   .     A
C763   C785    1.506   .     S
C763   C1157   1.417   .     S
C764   N776    1.394   .     A
C764   C789    1.506   .     S
Cu765  O784    1.959   .     S
Cu765  Cu766   2.699   .     S
Cu765  O777    1.967   .     S
Cu765  O781    1.961   .     S
Cu765  N775    2.028   .     S
Cu765  O780    1.962   .     S
Cu766  O783    1.959   .     S
Cu766  N776    2.028   .     S
Cu766  O778    1.967   .     S
Cu766  O782    1.961   .     S
Cu766  O779    1.962   .     S
H767   C665    1.087   1_655 S
C785   H786    1.089   .     S
C785   H787    1.111   .     S
C785   H788    1.111   .     S
C789   H791    1.111   .     S
C789   H792    1.111   .     S
C789   H790    1.089   .     S
C793   O821    1.300   .     A
C793   C804    1.451   .     S
C793   O823    1.296   .     A
C794   O822    1.300   .     A
C794   C803    1.451   .     S
C794   O824    1.296   .     A
C795   O827    1.292   .     A
C795   O825    1.295   .     A
C795   C797    1.434   .     S
C796   O828    1.292   .     A
C796   O826    1.295   .     A
C796   C798    1.434   .     S
C797   C886    1.332   1_455 S
C797   H899    1.087   1_455 S
C798   C841    1.332   .     S
C798   H856    1.087   .     S
C799   C804    1.403   .     A
C799   H813    1.083   .     S
C799   C1065   1.384   1_545 S
C800   H814    1.083   .     S
C800   C803    1.403   .     A
C800   C934    1.384   .     S
C801   C803    1.400   .     A
C801   H815    1.083   .     S
C801   C931    1.384   .     S
C802   C804    1.400   .     A
C802   H816    1.083   .     S
C802   C1064   1.384   1_545 S
C805   N820    1.352   .     A
C805   H817    1.083   .     S
C806   N819    1.352   .     A
C806   H818    1.083   .     S
C806   C16     1.417   1_556 S
C807   N819    1.394   .     A
C807   C829    1.506   .     S
C807   C13     1.417   1_556 S
C808   N820    1.394   .     A
C808   C833    1.506   .     S
Cu809  O828    1.959   .     S
Cu809  Cu810   2.699   .     S
Cu809  O821    1.967   .     S
Cu809  O825    1.961   .     S
Cu809  N819    2.028   .     S
Cu809  O824    1.962   .     S
Cu810  O827    1.959   .     S
Cu810  N820    2.028   .     S
Cu810  O822    1.967   .     S
Cu810  O826    1.961   .     S
Cu810  O823    1.962   .     S
H811   C841    1.087   .     S
H812   C886    1.087   1_455 S
C829   H830    1.089   .     S
C829   H831    1.111   .     S
C829   H832    1.111   .     S
C833   H835    1.111   .     S
C833   H836    1.111   .     S
C833   H834    1.089   .     S
C837   O865    1.300   .     A
C837   C848    1.451   .     S
C837   O867    1.296   .     A
C838   O866    1.300   .     A
C838   C847    1.451   .     S
C838   O868    1.296   .     A
C839   O871    1.292   .     A
C839   O869    1.295   .     A
C839   C841    1.434   .     S
C840   O872    1.292   .     A
C840   O870    1.295   .     A
C840   C842    1.434   .     S
C842   C885    1.332   .     S
C842   H900    1.087   .     S
C843   C848    1.403   .     A
C843   H857    1.083   .     S
C843   C1109   1.384   1_545 S
C844   H858    1.083   .     S
C844   C847    1.403   .     A
C844   C978    1.384   .     S
C845   C847    1.400   .     A
C845   H859    1.083   .     S
C845   C975    1.384   .     S
C846   C848    1.400   .     A
C846   H860    1.083   .     S
C846   C1108   1.384   1_545 S
C849   N864    1.352   .     A
C849   H861    1.083   .     S
C850   N863    1.352   .     A
C850   H862    1.083   .     S
C850   C60     1.417   1_556 S
C851   N863    1.394   .     A
C851   C873    1.506   .     S
C851   C57     1.417   1_556 S
C852   N864    1.394   .     A
C852   C877    1.506   .     S
Cu853  O872    1.959   .     S
Cu853  Cu854   2.699   .     S
Cu853  O865    1.967   .     S
Cu853  O869    1.961   .     S
Cu853  N863    2.028   .     S
Cu853  O868    1.962   .     S
Cu854  O871    1.959   .     S
Cu854  N864    2.028   .     S
Cu854  O866    1.967   .     S
Cu854  O870    1.961   .     S
Cu854  O867    1.962   .     S
H855   C885    1.087   .     S
C873   H874    1.089   .     S
C873   H875    1.111   .     S
C873   H876    1.111   .     S
C877   H879    1.111   .     S
C877   H880    1.111   .     S
C877   H878    1.089   .     S
C881   O909    1.300   .     A
C881   C892    1.451   .     S
C881   O911    1.296   .     A
C882   O910    1.300   .     A
C882   C891    1.451   .     S
C882   O912    1.296   .     A
C883   O915    1.292   .     A
C883   O913    1.295   .     A
C883   C885    1.434   .     S
C884   O916    1.292   .     A
C884   O914    1.295   .     A
C884   C886    1.434   .     S
C886   C797    1.332   1_655 S
C886   H812    1.087   1_655 S
C887   C892    1.403   .     A
C887   H901    1.083   .     S
C887   C1153   1.384   1_545 S
C888   H902    1.083   .     S
C888   C891    1.403   .     A
C888   C1022   1.384   .     S
C889   C891    1.400   .     A
C889   H903    1.083   .     S
C889   C1019   1.384   .     S
C890   C892    1.400   .     A
C890   H904    1.083   .     S
C890   C1152   1.384   1_545 S
C893   N908    1.352   .     A
C893   H905    1.083   .     S
C894   N907    1.352   .     A
C894   H906    1.083   .     S
C894   C104    1.417   1_556 S
C895   N907    1.394   .     A
C895   C917    1.506   .     S
C895   C101    1.417   1_556 S
C896   N908    1.394   .     A
C896   C921    1.506   .     S
Cu897  O916    1.959   .     S
Cu897  Cu898   2.699   .     S
Cu897  O909    1.967   .     S
Cu897  O913    1.961   .     S
Cu897  N907    2.028   .     S
Cu897  O912    1.962   .     S
Cu898  O915    1.959   .     S
Cu898  N908    2.028   .     S
Cu898  O910    1.967   .     S
Cu898  O914    1.961   .     S
Cu898  O911    1.962   .     S
H899   C797    1.087   1_655 S
C917   H918    1.089   .     S
C917   H919    1.111   .     S
C917   H920    1.111   .     S
C921   H923    1.111   .     S
C921   H924    1.111   .     S
C921   H922    1.089   .     S
C925   O953    1.300   .     A
C925   C936    1.451   .     S
C925   O955    1.296   .     A
C926   O954    1.300   .     A
C926   C935    1.451   .     S
C926   O956    1.296   .     A
C927   O959    1.292   .     A
C927   O957    1.295   .     A
C927   C929    1.434   .     S
C928   O960    1.292   .     A
C928   O958    1.295   .     A
C928   C930    1.434   .     S
C929   C1018   1.332   1_455 S
C929   H1031   1.087   1_455 S
C930   C973    1.332   .     S
C930   H988    1.087   .     S
C931   C936    1.403   .     A
C931   H945    1.083   .     S
C932   H946    1.083   .     S
C932   C935    1.403   .     A
C932   C1066   1.384   .     S
C933   C935    1.400   .     A
C933   H947    1.083   .     S
C933   C1063   1.384   .     S
C934   C936    1.400   .     A
C934   H948    1.083   .     S
C937   N952    1.352   .     A
C937   H949    1.083   .     S
C938   N951    1.352   .     A
C938   H950    1.083   .     S
C938   C148    1.417   1_556 S
C939   N951    1.394   .     A
C939   C961    1.506   .     S
C939   C145    1.417   1_556 S
C940   N952    1.394   .     A
C940   C965    1.506   .     S
Cu941  O960    1.959   .     S
Cu941  Cu942   2.699   .     S
Cu941  O953    1.967   .     S
Cu941  O957    1.961   .     S
Cu941  N951    2.028   .     S
Cu941  O956    1.962   .     S
Cu942  O959    1.959   .     S
Cu942  N952    2.028   .     S
Cu942  O954    1.967   .     S
Cu942  O958    1.961   .     S
Cu942  O955    1.962   .     S
H943   C973    1.087   .     S
H944   C1018   1.087   1_455 S
C961   H962    1.089   .     S
C961   H963    1.111   .     S
C961   H964    1.111   .     S
C965   H967    1.111   .     S
C965   H968    1.111   .     S
C965   H966    1.089   .     S
C969   O997    1.300   .     A
C969   C980    1.451   .     S
C969   O999    1.296   .     A
C970   O998    1.300   .     A
C970   C979    1.451   .     S
C970   O1000   1.296   .     A
C971   O1003   1.292   .     A
C971   O1001   1.295   .     A
C971   C973    1.434   .     S
C972   O1004   1.292   .     A
C972   O1002   1.295   .     A
C972   C974    1.434   .     S
C974   C1017   1.332   .     S
C974   H1032   1.087   .     S
C975   C980    1.403   .     A
C975   H989    1.083   .     S
C976   H990    1.083   .     S
C976   C979    1.403   .     A
C976   C1110   1.384   .     S
C977   C979    1.400   .     A
C977   H991    1.083   .     S
C977   C1107   1.384   .     S
C978   C980    1.400   .     A
C978   H992    1.083   .     S
C981   N996    1.352   .     A
C981   H993    1.083   .     S
C982   N995    1.352   .     A
C982   H994    1.083   .     S
C982   C192    1.417   1_556 S
C983   N995    1.394   .     A
C983   C1005   1.506   .     S
C983   C189    1.417   1_556 S
C984   N996    1.394   .     A
C984   C1009   1.506   .     S
Cu985  O1004   1.959   .     S
Cu985  Cu986   2.699   .     S
Cu985  O997    1.967   .     S
Cu985  O1001   1.961   .     S
Cu985  N995    2.028   .     S
Cu985  O1000   1.962   .     S
Cu986  O1003   1.959   .     S
Cu986  N996    2.028   .     S
Cu986  O998    1.967   .     S
Cu986  O1002   1.961   .     S
Cu986  O999    1.962   .     S
H987   C1017   1.087   .     S
C1005  H1006   1.089   .     S
C1005  H1007   1.111   .     S
C1005  H1008   1.111   .     S
C1009  H1011   1.111   .     S
C1009  H1012   1.111   .     S
C1009  H1010   1.089   .     S
C1013  O1041   1.300   .     A
C1013  C1024   1.451   .     S
C1013  O1043   1.296   .     A
C1014  O1042   1.300   .     A
C1014  C1023   1.451   .     S
C1014  O1044   1.296   .     A
C1015  O1047   1.292   .     A
C1015  O1045   1.295   .     A
C1015  C1017   1.434   .     S
C1016  O1048   1.292   .     A
C1016  O1046   1.295   .     A
C1016  C1018   1.434   .     S
C1018  C929    1.332   1_655 S
C1018  H944    1.087   1_655 S
C1019  C1024   1.403   .     A
C1019  H1033   1.083   .     S
C1020  H1034   1.083   .     S
C1020  C1023   1.403   .     A
C1020  C1154   1.384   .     S
C1021  C1023   1.400   .     A
C1021  H1035   1.083   .     S
C1021  C1151   1.384   .     S
C1022  C1024   1.400   .     A
C1022  H1036   1.083   .     S
C1025  N1040   1.352   .     A
C1025  H1037   1.083   .     S
C1026  N1039   1.352   .     A
C1026  H1038   1.083   .     S
C1026  C236    1.417   1_556 S
C1027  N1039   1.394   .     A
C1027  C1049   1.506   .     S
C1027  C233    1.417   1_556 S
C1028  N1040   1.394   .     A
C1028  C1053   1.506   .     S
Cu1029 O1048   1.959   .     S
Cu1029 Cu1030  2.699   .     S
Cu1029 O1041   1.967   .     S
Cu1029 O1045   1.961   .     S
Cu1029 N1039   2.028   .     S
Cu1029 O1044   1.962   .     S
Cu1030 O1047   1.959   .     S
Cu1030 N1040   2.028   .     S
Cu1030 O1042   1.967   .     S
Cu1030 O1046   1.961   .     S
Cu1030 O1043   1.962   .     S
H1031  C929    1.087   1_655 S
C1049  H1050   1.089   .     S
C1049  H1051   1.111   .     S
C1049  H1052   1.111   .     S
C1053  H1055   1.111   .     S
C1053  H1056   1.111   .     S
C1053  H1054   1.089   .     S
C1057  O1085   1.300   .     A
C1057  C1068   1.451   .     S
C1057  O1087   1.296   .     A
C1058  O1086   1.300   .     A
C1058  C1067   1.451   .     S
C1058  O1088   1.296   .     A
C1059  O1091   1.292   .     A
C1059  O1089   1.295   .     A
C1059  C1061   1.434   .     S
C1060  O1092   1.292   .     A
C1060  O1090   1.295   .     A
C1060  C1062   1.434   .     S
C1061  C1150   1.332   1_455 S
C1061  H1163   1.087   1_455 S
C1062  C1105   1.332   .     S
C1062  H1120   1.087   .     S
C1063  C1068   1.403   .     A
C1063  H1077   1.083   .     S
C1064  H1078   1.083   .     S
C1064  C1067   1.403   .     A
C1064  C802    1.384   1_565 S
C1065  C1067   1.400   .     A
C1065  H1079   1.083   .     S
C1065  C799    1.384   1_565 S
C1066  C1068   1.400   .     A
C1066  H1080   1.083   .     S
C1069  N1084   1.352   .     A
C1069  H1081   1.083   .     S
C1070  N1083   1.352   .     A
C1070  H1082   1.083   .     S
C1070  C280    1.417   1_556 S
C1071  N1083   1.394   .     A
C1071  C1093   1.506   .     S
C1071  C277    1.417   1_556 S
C1072  N1084   1.394   .     A
C1072  C1097   1.506   .     S
Cu1073 O1092   1.959   .     S
Cu1073 Cu1074  2.699   .     S
Cu1073 O1085   1.967   .     S
Cu1073 O1089   1.961   .     S
Cu1073 N1083   2.028   .     S
Cu1073 O1088   1.962   .     S
Cu1074 O1091   1.959   .     S
Cu1074 N1084   2.028   .     S
Cu1074 O1086   1.967   .     S
Cu1074 O1090   1.961   .     S
Cu1074 O1087   1.962   .     S
H1075  C1105   1.087   .     S
H1076  C1150   1.087   1_455 S
C1093  H1094   1.089   .     S
C1093  H1095   1.111   .     S
C1093  H1096   1.111   .     S
C1097  H1099   1.111   .     S
C1097  H1100   1.111   .     S
C1097  H1098   1.089   .     S
C1101  O1129   1.300   .     A
C1101  C1112   1.451   .     S
C1101  O1131   1.296   .     A
C1102  O1130   1.300   .     A
C1102  C1111   1.451   .     S
C1102  O1132   1.296   .     A
C1103  O1135   1.292   .     A
C1103  O1133   1.295   .     A
C1103  C1105   1.434   .     S
C1104  O1136   1.292   .     A
C1104  O1134   1.295   .     A
C1104  C1106   1.434   .     S
C1106  C1149   1.332   .     S
C1106  H1164   1.087   .     S
C1107  C1112   1.403   .     A
C1107  H1121   1.083   .     S
C1108  H1122   1.083   .     S
C1108  C1111   1.403   .     A
C1108  C846    1.384   1_565 S
C1109  C1111   1.400   .     A
C1109  H1123   1.083   .     S
C1109  C843    1.384   1_565 S
C1110  C1112   1.400   .     A
C1110  H1124   1.083   .     S
C1113  N1128   1.352   .     A
C1113  H1125   1.083   .     S
C1114  N1127   1.352   .     A
C1114  H1126   1.083   .     S
C1114  C324    1.417   1_556 S
C1115  N1127   1.394   .     A
C1115  C1137   1.506   .     S
C1115  C321    1.417   1_556 S
C1116  N1128   1.394   .     A
C1116  C1141   1.506   .     S
Cu1117 O1136   1.959   .     S
Cu1117 Cu1118  2.699   .     S
Cu1117 O1129   1.967   .     S
Cu1117 O1133   1.961   .     S
Cu1117 N1127   2.028   .     S
Cu1117 O1132   1.962   .     S
Cu1118 O1135   1.959   .     S
Cu1118 N1128   2.028   .     S
Cu1118 O1130   1.967   .     S
Cu1118 O1134   1.961   .     S
Cu1118 O1131   1.962   .     S
H1119  C1149   1.087   .     S
C1137  H1138   1.089   .     S
C1137  H1139   1.111   .     S
C1137  H1140   1.111   .     S
C1141  H1143   1.111   .     S
C1141  H1144   1.111   .     S
C1141  H1142   1.089   .     S
C1145  O1173   1.300   .     A
C1145  C1156   1.451   .     S
C1145  O1175   1.296   .     A
C1146  O1174   1.300   .     A
C1146  C1155   1.451   .     S
C1146  O1176   1.296   .     A
C1147  O1179   1.292   .     A
C1147  O1177   1.295   .     A
C1147  C1149   1.434   .     S
C1148  O1180   1.292   .     A
C1148  O1178   1.295   .     A
C1148  C1150   1.434   .     S
C1150  C1061   1.332   1_655 S
C1150  H1076   1.087   1_655 S
C1151  C1156   1.403   .     A
C1151  H1165   1.083   .     S
C1152  H1166   1.083   .     S
C1152  C1155   1.403   .     A
C1152  C890    1.384   1_565 S
C1153  C1155   1.400   .     A
C1153  H1167   1.083   .     S
C1153  C887    1.384   1_565 S
C1154  C1156   1.400   .     A
C1154  H1168   1.083   .     S
C1157  N1172   1.352   .     A
C1157  H1169   1.083   .     S
C1158  N1171   1.352   .     A
C1158  H1170   1.083   .     S
C1158  C368    1.417   1_556 S
C1159  N1171   1.394   .     A
C1159  C1181   1.506   .     S
C1159  C365    1.417   1_556 S
C1160  N1172   1.394   .     A
C1160  C1185   1.506   .     S
Cu1161 O1180   1.959   .     S
Cu1161 Cu1162  2.699   .     S
Cu1161 O1173   1.967   .     S
Cu1161 O1177   1.961   .     S
Cu1161 N1171   2.028   .     S
Cu1161 O1176   1.962   .     S
Cu1162 O1179   1.959   .     S
Cu1162 N1172   2.028   .     S
Cu1162 O1174   1.967   .     S
Cu1162 O1178   1.961   .     S
Cu1162 O1175   1.962   .     S
H1163  C1061   1.087   1_655 S
C1181  H1182   1.089   .     S
C1181  H1183   1.111   .     S
C1181  H1184   1.111   .     S
C1185  H1187   1.111   .     S
C1185  H1188   1.111   .     S
C1185  H1186   1.089   .     S
