data_str_m2_o10_o16_pcu_sym.180
_audit_creation_date              2020-01-03
_audit_creation_method            'Materials Studio'
_symmetry_space_group_name_H-M    'P1'
_symmetry_Int_Tables_number       1
_symmetry_cell_setting            triclinic
loop_
_symmetry_equiv_pos_as_xyz
  x,y,z
_cell_length_a                    22.2803
_cell_length_b                    26.0734
_cell_length_c                    26.9186
_cell_angle_alpha                 94.0987
_cell_angle_beta                  77.4899
_cell_angle_gamma                 103.1146
loop_
_atom_site_label
_atom_site_type_symbol
_atom_site_fract_x
_atom_site_fract_y
_atom_site_fract_z
_atom_site_U_iso_or_equiv
_atom_site_adp_type
_atom_site_occupancy
C1     C     0.18176   0.26674   0.25154   0.00000  Uiso   1.00
C2     C     0.14201   0.15442   0.48499   0.00000  Uiso   1.00
C3     C     0.15633   0.17602   0.43560   0.00000  Uiso   1.00
C4     C     0.18837   0.16939   0.01583   0.00000  Uiso   1.00
C5     C     0.25006   0.19737   0.49448   0.00000  Uiso   1.00
C6     C     0.26233   0.21850   0.44649   0.00000  Uiso   1.00
C7     C     0.21476   0.21132   0.41934   0.00000  Uiso   1.00
C8     C     0.17394   0.16206   0.06835   0.00000  Uiso   1.00
C9     C     0.28294   0.19498   0.07432   0.00000  Uiso   1.00
C10    C     0.11270   0.16077   0.40290   0.00000  Uiso   1.00
C11    C     0.19028   0.32269   0.25231   0.00000  Uiso   1.00
C12    C     0.13321   0.16561   0.34720   0.00000  Uiso   1.00
C13    C     0.14301   0.01064   0.24779   0.00000  Uiso   1.00
C14    C     0.15155   0.06660   0.24851   0.00000  Uiso   1.00
C15    C     0.20044   0.16996   0.15301   0.00000  Uiso   1.00
C16    C     0.29745   0.20776   0.02310   0.00000  Uiso   1.00
C17    C     0.22038   0.17437   0.09765   0.00000  Uiso   1.00
C18    C     0.05220   0.13151   0.42205   0.00000  Uiso   1.00
C19    C     0.03784   0.10996   0.46985   0.00000  Uiso   1.00
C20    C     0.08310   0.11771   0.49990   0.00000  Uiso   1.00
Cu21   Cu    0.10710   0.16105   0.24435   0.00000  Uiso   1.00
Cu22   Cu    0.22623   0.17228   0.25564   0.00000  Uiso   1.00
H23    H     0.31952   0.20477   0.09632   0.00000  Uiso   1.00
H24    H     0.09745   0.32018   0.24353   0.00000  Uiso   1.00
H25    H     0.00367   0.20583   0.28965   0.00000  Uiso   1.00
H26    H     0.32964   0.12748   0.21038   0.00000  Uiso   1.00
H27    H     0.30784   0.24326   0.43110   0.00000  Uiso   1.00
H28    H     0.01178   0.22760   0.00635   0.00000  Uiso   1.00
H29    H     0.12554   0.15112   0.08784   0.00000  Uiso   1.00
H30    H     0.01770   0.12067   0.39816   0.00000  Uiso   1.00
H31    H     0.32579   0.08346   0.48173   0.00000  Uiso   1.00
H32    H     0.22482   0.23377   0.38516   0.00000  Uiso   1.00
H33    H     0.23584   0.01315   0.25658   0.00000  Uiso   1.00
N34    N     0.31574   0.18074   0.26416   0.00000  Uiso   1.00
N35    N     0.01759   0.15259   0.23584   0.00000  Uiso   1.00
O36    O     0.12797   0.23807   0.24633   0.00000  Uiso   1.00
O37    O     0.22858   0.24755   0.25586   0.00000  Uiso   1.00
O38    O     0.09181   0.15960   0.31839   0.00000  Uiso   1.00
O39    O     0.19242   0.16908   0.32793   0.00000  Uiso   1.00
O40    O     0.10476   0.08578   0.24413   0.00000  Uiso   1.00
O41    O     0.20536   0.09526   0.25367   0.00000  Uiso   1.00
O42    O     0.14092   0.16425   0.17207   0.00000  Uiso   1.00
O43    O     0.24152   0.17373   0.18160   0.00000  Uiso   1.00
C44    C     0.06971   0.08133   0.04098   0.00000  Uiso   1.00
N45    N     0.05872   0.05194   0.07369   0.00000  Uiso   1.00
C46    C     0.51510   0.26674   0.25154   0.00000  Uiso   1.00
C47    C     0.47534   0.15442   0.48499   0.00000  Uiso   1.00
C48    C     0.48967   0.17602   0.43560   0.00000  Uiso   1.00
C49    C     0.52171   0.16939   0.01583   0.00000  Uiso   1.00
C50    C     0.58340   0.19737   0.49448   0.00000  Uiso   1.00
C51    C     0.59566   0.21850   0.44649   0.00000  Uiso   1.00
C52    C     0.54810   0.21132   0.41934   0.00000  Uiso   1.00
C53    C     0.50727   0.16206   0.06835   0.00000  Uiso   1.00
C54    C     0.61628   0.19498   0.07432   0.00000  Uiso   1.00
C55    C     0.44603   0.16077   0.40290   0.00000  Uiso   1.00
C56    C     0.52362   0.32269   0.25231   0.00000  Uiso   1.00
C57    C     0.46655   0.16561   0.34720   0.00000  Uiso   1.00
C58    C     0.47635   0.01064   0.24779   0.00000  Uiso   1.00
C59    C     0.48488   0.06660   0.24851   0.00000  Uiso   1.00
C60    C     0.53377   0.16996   0.15301   0.00000  Uiso   1.00
C61    C     0.63078   0.20776   0.02310   0.00000  Uiso   1.00
C62    C     0.55371   0.17437   0.09765   0.00000  Uiso   1.00
C63    C     0.38553   0.13151   0.42205   0.00000  Uiso   1.00
C64    C     0.37117   0.10996   0.46985   0.00000  Uiso   1.00
C65    C     0.41643   0.11771   0.49990   0.00000  Uiso   1.00
Cu66   Cu    0.44043   0.16105   0.24435   0.00000  Uiso   1.00
Cu67   Cu    0.55957   0.17228   0.25564   0.00000  Uiso   1.00
H68    H     0.65285   0.20477   0.09632   0.00000  Uiso   1.00
H69    H     0.43078   0.32018   0.24353   0.00000  Uiso   1.00
H70    H     0.33701   0.20583   0.28965   0.00000  Uiso   1.00
H71    H     0.66297   0.12748   0.21038   0.00000  Uiso   1.00
H72    H     0.64117   0.24326   0.43110   0.00000  Uiso   1.00
H73    H     0.34512   0.22760   0.00635   0.00000  Uiso   1.00
H74    H     0.45888   0.15112   0.08784   0.00000  Uiso   1.00
H75    H     0.35104   0.12067   0.39816   0.00000  Uiso   1.00
H76    H     0.65912   0.08346   0.48173   0.00000  Uiso   1.00
H77    H     0.55815   0.23377   0.38516   0.00000  Uiso   1.00
H78    H     0.56918   0.01315   0.25658   0.00000  Uiso   1.00
N79    N     0.64908   0.18074   0.26416   0.00000  Uiso   1.00
N80    N     0.35092   0.15259   0.23584   0.00000  Uiso   1.00
O81    O     0.46131   0.23807   0.24633   0.00000  Uiso   1.00
O82    O     0.56191   0.24755   0.25586   0.00000  Uiso   1.00
O83    O     0.42515   0.15960   0.31839   0.00000  Uiso   1.00
O84    O     0.52575   0.16908   0.32793   0.00000  Uiso   1.00
O85    O     0.43809   0.08578   0.24413   0.00000  Uiso   1.00
O86    O     0.53869   0.09526   0.25367   0.00000  Uiso   1.00
O87    O     0.47425   0.16425   0.17207   0.00000  Uiso   1.00
O88    O     0.57485   0.17373   0.18160   0.00000  Uiso   1.00
C89    C     0.40304   0.08133   0.04098   0.00000  Uiso   1.00
N90    N     0.39205   0.05194   0.07369   0.00000  Uiso   1.00
C91    C     0.84843   0.26674   0.25154   0.00000  Uiso   1.00
C92    C     0.80868   0.15442   0.48499   0.00000  Uiso   1.00
C93    C     0.82300   0.17602   0.43560   0.00000  Uiso   1.00
C94    C     0.85504   0.16939   0.01583   0.00000  Uiso   1.00
C95    C     0.91673   0.19737   0.49448   0.00000  Uiso   1.00
C96    C     0.92899   0.21850   0.44649   0.00000  Uiso   1.00
C97    C     0.88143   0.21132   0.41934   0.00000  Uiso   1.00
C98    C     0.84061   0.16206   0.06835   0.00000  Uiso   1.00
C99    C     0.94961   0.19498   0.07432   0.00000  Uiso   1.00
C100   C     0.77937   0.16077   0.40290   0.00000  Uiso   1.00
C101   C     0.85695   0.32269   0.25231   0.00000  Uiso   1.00
C102   C     0.79988   0.16561   0.34720   0.00000  Uiso   1.00
C103   C     0.80968   0.01064   0.24779   0.00000  Uiso   1.00
C104   C     0.81822   0.06660   0.24851   0.00000  Uiso   1.00
C105   C     0.86711   0.16996   0.15301   0.00000  Uiso   1.00
C106   C     0.96412   0.20776   0.02310   0.00000  Uiso   1.00
C107   C     0.88704   0.17437   0.09765   0.00000  Uiso   1.00
C108   C     0.71887   0.13151   0.42205   0.00000  Uiso   1.00
C109   C     0.70450   0.10996   0.46985   0.00000  Uiso   1.00
C110   C     0.74977   0.11771   0.49990   0.00000  Uiso   1.00
Cu111  Cu    0.77377   0.16105   0.24435   0.00000  Uiso   1.00
Cu112  Cu    0.89290   0.17228   0.25564   0.00000  Uiso   1.00
H113   H     0.98619   0.20477   0.09632   0.00000  Uiso   1.00
H114   H     0.76412   0.32018   0.24353   0.00000  Uiso   1.00
H115   H     0.67034   0.20583   0.28965   0.00000  Uiso   1.00
H116   H     0.99631   0.12748   0.21038   0.00000  Uiso   1.00
H117   H     0.97450   0.24326   0.43110   0.00000  Uiso   1.00
H118   H     0.67845   0.22760   0.00635   0.00000  Uiso   1.00
H119   H     0.79221   0.15112   0.08784   0.00000  Uiso   1.00
H120   H     0.68437   0.12067   0.39816   0.00000  Uiso   1.00
H121   H     0.99246   0.08346   0.48173   0.00000  Uiso   1.00
H122   H     0.89149   0.23377   0.38516   0.00000  Uiso   1.00
H123   H     0.90251   0.01315   0.25658   0.00000  Uiso   1.00
N124   N     0.98241   0.18074   0.26416   0.00000  Uiso   1.00
N125   N     0.68426   0.15259   0.23584   0.00000  Uiso   1.00
O126   O     0.79464   0.23807   0.24633   0.00000  Uiso   1.00
O127   O     0.89524   0.24755   0.25586   0.00000  Uiso   1.00
O128   O     0.75848   0.15960   0.31839   0.00000  Uiso   1.00
O129   O     0.85908   0.16908   0.32793   0.00000  Uiso   1.00
O130   O     0.77142   0.08578   0.24413   0.00000  Uiso   1.00
O131   O     0.87203   0.09526   0.25367   0.00000  Uiso   1.00
O132   O     0.80758   0.16425   0.17207   0.00000  Uiso   1.00
O133   O     0.90819   0.17373   0.18160   0.00000  Uiso   1.00
C134   C     0.73638   0.08133   0.04098   0.00000  Uiso   1.00
N135   N     0.72539   0.05194   0.07369   0.00000  Uiso   1.00
C136   C     0.18176   0.60007   0.25154   0.00000  Uiso   1.00
C137   C     0.14201   0.48775   0.48499   0.00000  Uiso   1.00
C138   C     0.15633   0.50935   0.43560   0.00000  Uiso   1.00
C139   C     0.18837   0.50272   0.01583   0.00000  Uiso   1.00
C140   C     0.25006   0.53070   0.49448   0.00000  Uiso   1.00
C141   C     0.26233   0.55184   0.44649   0.00000  Uiso   1.00
C142   C     0.21476   0.54466   0.41934   0.00000  Uiso   1.00
C143   C     0.17394   0.49539   0.06835   0.00000  Uiso   1.00
C144   C     0.28294   0.52831   0.07432   0.00000  Uiso   1.00
C145   C     0.11270   0.49411   0.40290   0.00000  Uiso   1.00
C146   C     0.19028   0.65602   0.25231   0.00000  Uiso   1.00
C147   C     0.13321   0.49894   0.34720   0.00000  Uiso   1.00
C148   C     0.14301   0.34398   0.24779   0.00000  Uiso   1.00
C149   C     0.15155   0.39993   0.24851   0.00000  Uiso   1.00
C150   C     0.20044   0.50329   0.15301   0.00000  Uiso   1.00
C151   C     0.29745   0.54110   0.02310   0.00000  Uiso   1.00
C152   C     0.22038   0.50770   0.09765   0.00000  Uiso   1.00
C153   C     0.05220   0.46484   0.42205   0.00000  Uiso   1.00
C154   C     0.03784   0.44329   0.46985   0.00000  Uiso   1.00
C155   C     0.08310   0.45104   0.49990   0.00000  Uiso   1.00
Cu156  Cu    0.10710   0.49439   0.24435   0.00000  Uiso   1.00
Cu157  Cu    0.22623   0.50561   0.25564   0.00000  Uiso   1.00
H158   H     0.31952   0.53811   0.09632   0.00000  Uiso   1.00
H159   H     0.09745   0.65352   0.24353   0.00000  Uiso   1.00
H160   H     0.00367   0.53917   0.28965   0.00000  Uiso   1.00
H161   H     0.32964   0.46082   0.21038   0.00000  Uiso   1.00
H162   H     0.30784   0.57659   0.43110   0.00000  Uiso   1.00
H163   H     0.01178   0.56093   0.00635   0.00000  Uiso   1.00
H164   H     0.12554   0.48446   0.08784   0.00000  Uiso   1.00
H165   H     0.01770   0.45400   0.39816   0.00000  Uiso   1.00
H166   H     0.32579   0.41680   0.48173   0.00000  Uiso   1.00
H167   H     0.22482   0.56710   0.38516   0.00000  Uiso   1.00
H168   H     0.23584   0.34648   0.25658   0.00000  Uiso   1.00
N169   N     0.31574   0.51407   0.26416   0.00000  Uiso   1.00
N170   N     0.01759   0.48593   0.23584   0.00000  Uiso   1.00
O171   O     0.12797   0.57141   0.24633   0.00000  Uiso   1.00
O172   O     0.22858   0.58089   0.25586   0.00000  Uiso   1.00
O173   O     0.09181   0.49293   0.31839   0.00000  Uiso   1.00
O174   O     0.19242   0.50241   0.32793   0.00000  Uiso   1.00
O175   O     0.10476   0.41911   0.24413   0.00000  Uiso   1.00
O176   O     0.20536   0.42859   0.25367   0.00000  Uiso   1.00
O177   O     0.14092   0.49759   0.17207   0.00000  Uiso   1.00
O178   O     0.24152   0.50707   0.18160   0.00000  Uiso   1.00
C179   C     0.06971   0.41466   0.04098   0.00000  Uiso   1.00
N180   N     0.05872   0.38527   0.07369   0.00000  Uiso   1.00
C181   C     0.51510   0.60007   0.25154   0.00000  Uiso   1.00
C182   C     0.47534   0.48775   0.48499   0.00000  Uiso   1.00
C183   C     0.48967   0.50935   0.43560   0.00000  Uiso   1.00
C184   C     0.52171   0.50272   0.01583   0.00000  Uiso   1.00
C185   C     0.58340   0.53070   0.49448   0.00000  Uiso   1.00
C186   C     0.59566   0.55184   0.44649   0.00000  Uiso   1.00
C187   C     0.54810   0.54466   0.41934   0.00000  Uiso   1.00
C188   C     0.50727   0.49539   0.06835   0.00000  Uiso   1.00
C189   C     0.61628   0.52831   0.07432   0.00000  Uiso   1.00
C190   C     0.44603   0.49411   0.40290   0.00000  Uiso   1.00
C191   C     0.52362   0.65602   0.25231   0.00000  Uiso   1.00
C192   C     0.46655   0.49894   0.34720   0.00000  Uiso   1.00
C193   C     0.47635   0.34398   0.24779   0.00000  Uiso   1.00
C194   C     0.48488   0.39993   0.24851   0.00000  Uiso   1.00
C195   C     0.53377   0.50329   0.15301   0.00000  Uiso   1.00
C196   C     0.63078   0.54110   0.02310   0.00000  Uiso   1.00
C197   C     0.55371   0.50770   0.09765   0.00000  Uiso   1.00
C198   C     0.38553   0.46484   0.42205   0.00000  Uiso   1.00
C199   C     0.37117   0.44329   0.46985   0.00000  Uiso   1.00
C200   C     0.41643   0.45104   0.49990   0.00000  Uiso   1.00
Cu201  Cu    0.44043   0.49439   0.24435   0.00000  Uiso   1.00
Cu202  Cu    0.55957   0.50561   0.25564   0.00000  Uiso   1.00
H203   H     0.65285   0.53811   0.09632   0.00000  Uiso   1.00
H204   H     0.43078   0.65352   0.24353   0.00000  Uiso   1.00
H205   H     0.33701   0.53917   0.28965   0.00000  Uiso   1.00
H206   H     0.66297   0.46082   0.21038   0.00000  Uiso   1.00
H207   H     0.64117   0.57659   0.43110   0.00000  Uiso   1.00
H208   H     0.34512   0.56093   0.00635   0.00000  Uiso   1.00
H209   H     0.45888   0.48446   0.08784   0.00000  Uiso   1.00
H210   H     0.35104   0.45400   0.39816   0.00000  Uiso   1.00
H211   H     0.65912   0.41680   0.48173   0.00000  Uiso   1.00
H212   H     0.55815   0.56710   0.38516   0.00000  Uiso   1.00
H213   H     0.56918   0.34648   0.25658   0.00000  Uiso   1.00
N214   N     0.64908   0.51407   0.26416   0.00000  Uiso   1.00
N215   N     0.35092   0.48593   0.23584   0.00000  Uiso   1.00
O216   O     0.46131   0.57141   0.24633   0.00000  Uiso   1.00
O217   O     0.56191   0.58089   0.25586   0.00000  Uiso   1.00
O218   O     0.42515   0.49293   0.31839   0.00000  Uiso   1.00
O219   O     0.52575   0.50241   0.32793   0.00000  Uiso   1.00
O220   O     0.43809   0.41911   0.24413   0.00000  Uiso   1.00
O221   O     0.53869   0.42859   0.25367   0.00000  Uiso   1.00
O222   O     0.47425   0.49759   0.17207   0.00000  Uiso   1.00
O223   O     0.57485   0.50707   0.18160   0.00000  Uiso   1.00
C224   C     0.40304   0.41466   0.04098   0.00000  Uiso   1.00
N225   N     0.39205   0.38527   0.07369   0.00000  Uiso   1.00
C226   C     0.84843   0.60007   0.25154   0.00000  Uiso   1.00
C227   C     0.80868   0.48775   0.48499   0.00000  Uiso   1.00
C228   C     0.82300   0.50935   0.43560   0.00000  Uiso   1.00
C229   C     0.85504   0.50272   0.01583   0.00000  Uiso   1.00
C230   C     0.91673   0.53070   0.49448   0.00000  Uiso   1.00
C231   C     0.92899   0.55184   0.44649   0.00000  Uiso   1.00
C232   C     0.88143   0.54466   0.41934   0.00000  Uiso   1.00
C233   C     0.84061   0.49539   0.06835   0.00000  Uiso   1.00
C234   C     0.94961   0.52831   0.07432   0.00000  Uiso   1.00
C235   C     0.77937   0.49411   0.40290   0.00000  Uiso   1.00
C236   C     0.85695   0.65602   0.25231   0.00000  Uiso   1.00
C237   C     0.79988   0.49894   0.34720   0.00000  Uiso   1.00
C238   C     0.80968   0.34398   0.24779   0.00000  Uiso   1.00
C239   C     0.81822   0.39993   0.24851   0.00000  Uiso   1.00
C240   C     0.86711   0.50329   0.15301   0.00000  Uiso   1.00
C241   C     0.96412   0.54110   0.02310   0.00000  Uiso   1.00
C242   C     0.88704   0.50770   0.09765   0.00000  Uiso   1.00
C243   C     0.71887   0.46484   0.42205   0.00000  Uiso   1.00
C244   C     0.70450   0.44329   0.46985   0.00000  Uiso   1.00
C245   C     0.74977   0.45104   0.49990   0.00000  Uiso   1.00
Cu246  Cu    0.77377   0.49439   0.24435   0.00000  Uiso   1.00
Cu247  Cu    0.89290   0.50561   0.25564   0.00000  Uiso   1.00
H248   H     0.98619   0.53811   0.09632   0.00000  Uiso   1.00
H249   H     0.76412   0.65352   0.24353   0.00000  Uiso   1.00
H250   H     0.67034   0.53917   0.28965   0.00000  Uiso   1.00
H251   H     0.99631   0.46082   0.21038   0.00000  Uiso   1.00
H252   H     0.97450   0.57659   0.43110   0.00000  Uiso   1.00
H253   H     0.67845   0.56093   0.00635   0.00000  Uiso   1.00
H254   H     0.79221   0.48446   0.08784   0.00000  Uiso   1.00
H255   H     0.68437   0.45400   0.39816   0.00000  Uiso   1.00
H256   H     0.99246   0.41680   0.48173   0.00000  Uiso   1.00
H257   H     0.89149   0.56710   0.38516   0.00000  Uiso   1.00
H258   H     0.90251   0.34648   0.25658   0.00000  Uiso   1.00
N259   N     0.98241   0.51407   0.26416   0.00000  Uiso   1.00
N260   N     0.68426   0.48593   0.23584   0.00000  Uiso   1.00
O261   O     0.79464   0.57141   0.24633   0.00000  Uiso   1.00
O262   O     0.89524   0.58089   0.25586   0.00000  Uiso   1.00
O263   O     0.75848   0.49293   0.31839   0.00000  Uiso   1.00
O264   O     0.85908   0.50241   0.32793   0.00000  Uiso   1.00
O265   O     0.77142   0.41911   0.24413   0.00000  Uiso   1.00
O266   O     0.87203   0.42859   0.25367   0.00000  Uiso   1.00
O267   O     0.80758   0.49759   0.17207   0.00000  Uiso   1.00
O268   O     0.90819   0.50707   0.18160   0.00000  Uiso   1.00
C269   C     0.73638   0.41466   0.04098   0.00000  Uiso   1.00
N270   N     0.72539   0.38527   0.07369   0.00000  Uiso   1.00
C271   C     0.18176   0.93341   0.25154   0.00000  Uiso   1.00
C272   C     0.14201   0.82109   0.48499   0.00000  Uiso   1.00
C273   C     0.15633   0.84269   0.43560   0.00000  Uiso   1.00
C274   C     0.18837   0.83605   0.01583   0.00000  Uiso   1.00
C275   C     0.25006   0.86403   0.49448   0.00000  Uiso   1.00
C276   C     0.26233   0.88517   0.44649   0.00000  Uiso   1.00
C277   C     0.21476   0.87799   0.41934   0.00000  Uiso   1.00
C278   C     0.17394   0.82873   0.06835   0.00000  Uiso   1.00
C279   C     0.28294   0.86165   0.07432   0.00000  Uiso   1.00
C280   C     0.11270   0.82744   0.40290   0.00000  Uiso   1.00
C281   C     0.19028   0.98936   0.25231   0.00000  Uiso   1.00
C282   C     0.13321   0.83228   0.34720   0.00000  Uiso   1.00
C283   C     0.14301   0.67731   0.24779   0.00000  Uiso   1.00
C284   C     0.15155   0.73326   0.24851   0.00000  Uiso   1.00
C285   C     0.20044   0.83663   0.15301   0.00000  Uiso   1.00
C286   C     0.29745   0.87443   0.02310   0.00000  Uiso   1.00
C287   C     0.22038   0.84103   0.09765   0.00000  Uiso   1.00
C288   C     0.05220   0.79818   0.42205   0.00000  Uiso   1.00
C289   C     0.03784   0.77663   0.46985   0.00000  Uiso   1.00
C290   C     0.08310   0.78437   0.49990   0.00000  Uiso   1.00
Cu291  Cu    0.10710   0.82772   0.24435   0.00000  Uiso   1.00
Cu292  Cu    0.22623   0.83895   0.25564   0.00000  Uiso   1.00
H293   H     0.31952   0.87144   0.09632   0.00000  Uiso   1.00
H294   H     0.09745   0.98685   0.24353   0.00000  Uiso   1.00
H295   H     0.00367   0.87250   0.28965   0.00000  Uiso   1.00
H296   H     0.32964   0.79415   0.21038   0.00000  Uiso   1.00
H297   H     0.30784   0.90992   0.43110   0.00000  Uiso   1.00
H298   H     0.01178   0.89427   0.00635   0.00000  Uiso   1.00
H299   H     0.12554   0.81779   0.08784   0.00000  Uiso   1.00
H300   H     0.01770   0.78734   0.39816   0.00000  Uiso   1.00
H301   H     0.32579   0.75013   0.48173   0.00000  Uiso   1.00
H302   H     0.22482   0.90043   0.38516   0.00000  Uiso   1.00
H303   H     0.23584   0.67982   0.25658   0.00000  Uiso   1.00
N304   N     0.31574   0.84741   0.26416   0.00000  Uiso   1.00
N305   N     0.01759   0.81926   0.23584   0.00000  Uiso   1.00
O306   O     0.12797   0.90474   0.24633   0.00000  Uiso   1.00
O307   O     0.22858   0.91422   0.25586   0.00000  Uiso   1.00
O308   O     0.09181   0.82627   0.31839   0.00000  Uiso   1.00
O309   O     0.19242   0.83575   0.32793   0.00000  Uiso   1.00
O310   O     0.10476   0.75245   0.24413   0.00000  Uiso   1.00
O311   O     0.20536   0.76193   0.25367   0.00000  Uiso   1.00
O312   O     0.14092   0.83092   0.17207   0.00000  Uiso   1.00
O313   O     0.24152   0.84040   0.18160   0.00000  Uiso   1.00
C314   C     0.06971   0.74800   0.04098   0.00000  Uiso   1.00
N315   N     0.05872   0.71861   0.07369   0.00000  Uiso   1.00
C316   C     0.51510   0.93341   0.25154   0.00000  Uiso   1.00
C317   C     0.47534   0.82109   0.48499   0.00000  Uiso   1.00
C318   C     0.48967   0.84269   0.43560   0.00000  Uiso   1.00
C319   C     0.52171   0.83605   0.01583   0.00000  Uiso   1.00
C320   C     0.58340   0.86403   0.49448   0.00000  Uiso   1.00
C321   C     0.59566   0.88517   0.44649   0.00000  Uiso   1.00
C322   C     0.54810   0.87799   0.41934   0.00000  Uiso   1.00
C323   C     0.50727   0.82873   0.06835   0.00000  Uiso   1.00
C324   C     0.61628   0.86165   0.07432   0.00000  Uiso   1.00
C325   C     0.44603   0.82744   0.40290   0.00000  Uiso   1.00
C326   C     0.52362   0.98936   0.25231   0.00000  Uiso   1.00
C327   C     0.46655   0.83228   0.34720   0.00000  Uiso   1.00
C328   C     0.47635   0.67731   0.24779   0.00000  Uiso   1.00
C329   C     0.48488   0.73326   0.24851   0.00000  Uiso   1.00
C330   C     0.53377   0.83663   0.15301   0.00000  Uiso   1.00
C331   C     0.63078   0.87443   0.02310   0.00000  Uiso   1.00
C332   C     0.55371   0.84103   0.09765   0.00000  Uiso   1.00
C333   C     0.38553   0.79818   0.42205   0.00000  Uiso   1.00
C334   C     0.37117   0.77663   0.46985   0.00000  Uiso   1.00
C335   C     0.41643   0.78437   0.49990   0.00000  Uiso   1.00
Cu336  Cu    0.44043   0.82772   0.24435   0.00000  Uiso   1.00
Cu337  Cu    0.55957   0.83895   0.25564   0.00000  Uiso   1.00
H338   H     0.65285   0.87144   0.09632   0.00000  Uiso   1.00
H339   H     0.43078   0.98685   0.24353   0.00000  Uiso   1.00
H340   H     0.33701   0.87250   0.28965   0.00000  Uiso   1.00
H341   H     0.66297   0.79415   0.21038   0.00000  Uiso   1.00
H342   H     0.64117   0.90992   0.43110   0.00000  Uiso   1.00
H343   H     0.34512   0.89427   0.00635   0.00000  Uiso   1.00
H344   H     0.45888   0.81779   0.08784   0.00000  Uiso   1.00
H345   H     0.35104   0.78734   0.39816   0.00000  Uiso   1.00
H346   H     0.65912   0.75013   0.48173   0.00000  Uiso   1.00
H347   H     0.55815   0.90043   0.38516   0.00000  Uiso   1.00
H348   H     0.56918   0.67982   0.25658   0.00000  Uiso   1.00
N349   N     0.64908   0.84741   0.26416   0.00000  Uiso   1.00
N350   N     0.35092   0.81926   0.23584   0.00000  Uiso   1.00
O351   O     0.46131   0.90474   0.24633   0.00000  Uiso   1.00
O352   O     0.56191   0.91422   0.25586   0.00000  Uiso   1.00
O353   O     0.42515   0.82627   0.31839   0.00000  Uiso   1.00
O354   O     0.52575   0.83575   0.32793   0.00000  Uiso   1.00
O355   O     0.43809   0.75245   0.24413   0.00000  Uiso   1.00
O356   O     0.53869   0.76193   0.25367   0.00000  Uiso   1.00
O357   O     0.47425   0.83092   0.17207   0.00000  Uiso   1.00
O358   O     0.57485   0.84040   0.18160   0.00000  Uiso   1.00
C359   C     0.40304   0.74800   0.04098   0.00000  Uiso   1.00
N360   N     0.39205   0.71861   0.07369   0.00000  Uiso   1.00
C361   C     0.84843   0.93341   0.25154   0.00000  Uiso   1.00
C362   C     0.80868   0.82109   0.48499   0.00000  Uiso   1.00
C363   C     0.82300   0.84269   0.43560   0.00000  Uiso   1.00
C364   C     0.85504   0.83605   0.01583   0.00000  Uiso   1.00
C365   C     0.91673   0.86403   0.49448   0.00000  Uiso   1.00
C366   C     0.92899   0.88517   0.44649   0.00000  Uiso   1.00
C367   C     0.88143   0.87799   0.41934   0.00000  Uiso   1.00
C368   C     0.84061   0.82873   0.06835   0.00000  Uiso   1.00
C369   C     0.94961   0.86165   0.07432   0.00000  Uiso   1.00
C370   C     0.77937   0.82744   0.40290   0.00000  Uiso   1.00
C371   C     0.85695   0.98936   0.25231   0.00000  Uiso   1.00
C372   C     0.79988   0.83228   0.34720   0.00000  Uiso   1.00
C373   C     0.80968   0.67731   0.24779   0.00000  Uiso   1.00
C374   C     0.81822   0.73326   0.24851   0.00000  Uiso   1.00
C375   C     0.86711   0.83663   0.15301   0.00000  Uiso   1.00
C376   C     0.96412   0.87443   0.02310   0.00000  Uiso   1.00
C377   C     0.88704   0.84103   0.09765   0.00000  Uiso   1.00
C378   C     0.71887   0.79818   0.42205   0.00000  Uiso   1.00
C379   C     0.70450   0.77663   0.46985   0.00000  Uiso   1.00
C380   C     0.74977   0.78437   0.49990   0.00000  Uiso   1.00
Cu381  Cu    0.77377   0.82772   0.24435   0.00000  Uiso   1.00
Cu382  Cu    0.89290   0.83895   0.25564   0.00000  Uiso   1.00
H383   H     0.98619   0.87144   0.09632   0.00000  Uiso   1.00
H384   H     0.76412   0.98685   0.24353   0.00000  Uiso   1.00
H385   H     0.67034   0.87250   0.28965   0.00000  Uiso   1.00
H386   H     0.99631   0.79415   0.21038   0.00000  Uiso   1.00
H387   H     0.97450   0.90992   0.43110   0.00000  Uiso   1.00
H388   H     0.67845   0.89427   0.00635   0.00000  Uiso   1.00
H389   H     0.79221   0.81779   0.08784   0.00000  Uiso   1.00
H390   H     0.68437   0.78734   0.39816   0.00000  Uiso   1.00
H391   H     0.99246   0.75013   0.48173   0.00000  Uiso   1.00
H392   H     0.89149   0.90043   0.38516   0.00000  Uiso   1.00
H393   H     0.90251   0.67982   0.25658   0.00000  Uiso   1.00
N394   N     0.98241   0.84741   0.26416   0.00000  Uiso   1.00
N395   N     0.68426   0.81926   0.23584   0.00000  Uiso   1.00
O396   O     0.79464   0.90474   0.24633   0.00000  Uiso   1.00
O397   O     0.89524   0.91422   0.25586   0.00000  Uiso   1.00
O398   O     0.75848   0.82627   0.31839   0.00000  Uiso   1.00
O399   O     0.85908   0.83575   0.32793   0.00000  Uiso   1.00
O400   O     0.77142   0.75245   0.24413   0.00000  Uiso   1.00
O401   O     0.87203   0.76193   0.25367   0.00000  Uiso   1.00
O402   O     0.80758   0.83092   0.17207   0.00000  Uiso   1.00
O403   O     0.90819   0.84040   0.18160   0.00000  Uiso   1.00
C404   C     0.73638   0.74800   0.04098   0.00000  Uiso   1.00
N405   N     0.72539   0.71861   0.07369   0.00000  Uiso   1.00
C406   C     0.18176   0.26674   0.75154   0.00000  Uiso   1.00
C407   C     0.14201   0.15442   0.98499   0.00000  Uiso   1.00
C408   C     0.15633   0.17602   0.93560   0.00000  Uiso   1.00
C409   C     0.18837   0.16939   0.51583   0.00000  Uiso   1.00
C410   C     0.25006   0.19737   0.99448   0.00000  Uiso   1.00
C411   C     0.26233   0.21850   0.94649   0.00000  Uiso   1.00
C412   C     0.21476   0.21132   0.91934   0.00000  Uiso   1.00
C413   C     0.17394   0.16206   0.56835   0.00000  Uiso   1.00
C414   C     0.28294   0.19498   0.57432   0.00000  Uiso   1.00
C415   C     0.11270   0.16077   0.90290   0.00000  Uiso   1.00
C416   C     0.19028   0.32269   0.75231   0.00000  Uiso   1.00
C417   C     0.13321   0.16561   0.84720   0.00000  Uiso   1.00
C418   C     0.14301   0.01064   0.74779   0.00000  Uiso   1.00
C419   C     0.15155   0.06660   0.74851   0.00000  Uiso   1.00
C420   C     0.20044   0.16996   0.65301   0.00000  Uiso   1.00
C421   C     0.29745   0.20776   0.52310   0.00000  Uiso   1.00
C422   C     0.22038   0.17437   0.59765   0.00000  Uiso   1.00
C423   C     0.05220   0.13151   0.92205   0.00000  Uiso   1.00
C424   C     0.03784   0.10996   0.96985   0.00000  Uiso   1.00
C425   C     0.08310   0.11771   0.99990   0.00000  Uiso   1.00
Cu426  Cu    0.10710   0.16105   0.74435   0.00000  Uiso   1.00
Cu427  Cu    0.22623   0.17228   0.75564   0.00000  Uiso   1.00
H428   H     0.31952   0.20477   0.59632   0.00000  Uiso   1.00
H429   H     0.09745   0.32018   0.74353   0.00000  Uiso   1.00
H430   H     0.00367   0.20583   0.78965   0.00000  Uiso   1.00
H431   H     0.32964   0.12748   0.71038   0.00000  Uiso   1.00
H432   H     0.30784   0.24326   0.93110   0.00000  Uiso   1.00
H433   H     0.01178   0.22760   0.50635   0.00000  Uiso   1.00
H434   H     0.12554   0.15112   0.58784   0.00000  Uiso   1.00
H435   H     0.01770   0.12067   0.89816   0.00000  Uiso   1.00
H436   H     0.32579   0.08346   0.98173   0.00000  Uiso   1.00
H437   H     0.22482   0.23377   0.88516   0.00000  Uiso   1.00
H438   H     0.23584   0.01315   0.75658   0.00000  Uiso   1.00
N439   N     0.31574   0.18074   0.76416   0.00000  Uiso   1.00
N440   N     0.01759   0.15259   0.73584   0.00000  Uiso   1.00
O441   O     0.12797   0.23807   0.74633   0.00000  Uiso   1.00
O442   O     0.22858   0.24755   0.75586   0.00000  Uiso   1.00
O443   O     0.09181   0.15960   0.81839   0.00000  Uiso   1.00
O444   O     0.19242   0.16908   0.82793   0.00000  Uiso   1.00
O445   O     0.10476   0.08578   0.74413   0.00000  Uiso   1.00
O446   O     0.20536   0.09526   0.75367   0.00000  Uiso   1.00
O447   O     0.14092   0.16425   0.67207   0.00000  Uiso   1.00
O448   O     0.24152   0.17373   0.68160   0.00000  Uiso   1.00
C449   C     0.06971   0.08133   0.54098   0.00000  Uiso   1.00
N450   N     0.05872   0.05194   0.57369   0.00000  Uiso   1.00
C451   C     0.51510   0.26674   0.75154   0.00000  Uiso   1.00
C452   C     0.47534   0.15442   0.98499   0.00000  Uiso   1.00
C453   C     0.48967   0.17602   0.93560   0.00000  Uiso   1.00
C454   C     0.52171   0.16939   0.51583   0.00000  Uiso   1.00
C455   C     0.58340   0.19737   0.99448   0.00000  Uiso   1.00
C456   C     0.59566   0.21850   0.94649   0.00000  Uiso   1.00
C457   C     0.54810   0.21132   0.91934   0.00000  Uiso   1.00
C458   C     0.50727   0.16206   0.56835   0.00000  Uiso   1.00
C459   C     0.61628   0.19498   0.57432   0.00000  Uiso   1.00
C460   C     0.44603   0.16077   0.90290   0.00000  Uiso   1.00
C461   C     0.52362   0.32269   0.75231   0.00000  Uiso   1.00
C462   C     0.46655   0.16561   0.84720   0.00000  Uiso   1.00
C463   C     0.47635   0.01064   0.74779   0.00000  Uiso   1.00
C464   C     0.48488   0.06660   0.74851   0.00000  Uiso   1.00
C465   C     0.53377   0.16996   0.65301   0.00000  Uiso   1.00
C466   C     0.63078   0.20776   0.52310   0.00000  Uiso   1.00
C467   C     0.55371   0.17437   0.59765   0.00000  Uiso   1.00
C468   C     0.38553   0.13151   0.92205   0.00000  Uiso   1.00
C469   C     0.37117   0.10996   0.96985   0.00000  Uiso   1.00
C470   C     0.41643   0.11771   0.99990   0.00000  Uiso   1.00
Cu471  Cu    0.44043   0.16105   0.74435   0.00000  Uiso   1.00
Cu472  Cu    0.55957   0.17228   0.75564   0.00000  Uiso   1.00
H473   H     0.65285   0.20477   0.59632   0.00000  Uiso   1.00
H474   H     0.43078   0.32018   0.74353   0.00000  Uiso   1.00
H475   H     0.33701   0.20583   0.78965   0.00000  Uiso   1.00
H476   H     0.66297   0.12748   0.71038   0.00000  Uiso   1.00
H477   H     0.64117   0.24326   0.93110   0.00000  Uiso   1.00
H478   H     0.34512   0.22760   0.50635   0.00000  Uiso   1.00
H479   H     0.45888   0.15112   0.58784   0.00000  Uiso   1.00
H480   H     0.35104   0.12067   0.89816   0.00000  Uiso   1.00
H481   H     0.65912   0.08346   0.98173   0.00000  Uiso   1.00
H482   H     0.55815   0.23377   0.88516   0.00000  Uiso   1.00
H483   H     0.56918   0.01315   0.75658   0.00000  Uiso   1.00
N484   N     0.64908   0.18074   0.76416   0.00000  Uiso   1.00
N485   N     0.35092   0.15259   0.73584   0.00000  Uiso   1.00
O486   O     0.46131   0.23807   0.74633   0.00000  Uiso   1.00
O487   O     0.56191   0.24755   0.75586   0.00000  Uiso   1.00
O488   O     0.42515   0.15960   0.81839   0.00000  Uiso   1.00
O489   O     0.52575   0.16908   0.82793   0.00000  Uiso   1.00
O490   O     0.43809   0.08578   0.74413   0.00000  Uiso   1.00
O491   O     0.53869   0.09526   0.75367   0.00000  Uiso   1.00
O492   O     0.47425   0.16425   0.67207   0.00000  Uiso   1.00
O493   O     0.57485   0.17373   0.68160   0.00000  Uiso   1.00
C494   C     0.40304   0.08133   0.54098   0.00000  Uiso   1.00
N495   N     0.39205   0.05194   0.57369   0.00000  Uiso   1.00
C496   C     0.84843   0.26674   0.75154   0.00000  Uiso   1.00
C497   C     0.80868   0.15442   0.98499   0.00000  Uiso   1.00
C498   C     0.82300   0.17602   0.93560   0.00000  Uiso   1.00
C499   C     0.85504   0.16939   0.51583   0.00000  Uiso   1.00
C500   C     0.91673   0.19737   0.99448   0.00000  Uiso   1.00
C501   C     0.92899   0.21850   0.94649   0.00000  Uiso   1.00
C502   C     0.88143   0.21132   0.91934   0.00000  Uiso   1.00
C503   C     0.84061   0.16206   0.56835   0.00000  Uiso   1.00
C504   C     0.94961   0.19498   0.57432   0.00000  Uiso   1.00
C505   C     0.77937   0.16077   0.90290   0.00000  Uiso   1.00
C506   C     0.85695   0.32269   0.75231   0.00000  Uiso   1.00
C507   C     0.79988   0.16561   0.84720   0.00000  Uiso   1.00
C508   C     0.80968   0.01064   0.74779   0.00000  Uiso   1.00
C509   C     0.81822   0.06660   0.74851   0.00000  Uiso   1.00
C510   C     0.86711   0.16996   0.65301   0.00000  Uiso   1.00
C511   C     0.96412   0.20776   0.52310   0.00000  Uiso   1.00
C512   C     0.88704   0.17437   0.59765   0.00000  Uiso   1.00
C513   C     0.71887   0.13151   0.92205   0.00000  Uiso   1.00
C514   C     0.70450   0.10996   0.96985   0.00000  Uiso   1.00
C515   C     0.74977   0.11771   0.99990   0.00000  Uiso   1.00
Cu516  Cu    0.77377   0.16105   0.74435   0.00000  Uiso   1.00
Cu517  Cu    0.89290   0.17228   0.75564   0.00000  Uiso   1.00
H518   H     0.98619   0.20477   0.59632   0.00000  Uiso   1.00
H519   H     0.76412   0.32018   0.74353   0.00000  Uiso   1.00
H520   H     0.67034   0.20583   0.78965   0.00000  Uiso   1.00
H521   H     0.99631   0.12748   0.71038   0.00000  Uiso   1.00
H522   H     0.97450   0.24326   0.93110   0.00000  Uiso   1.00
H523   H     0.67845   0.22760   0.50635   0.00000  Uiso   1.00
H524   H     0.79221   0.15112   0.58784   0.00000  Uiso   1.00
H525   H     0.68437   0.12067   0.89816   0.00000  Uiso   1.00
H526   H     0.99246   0.08346   0.98173   0.00000  Uiso   1.00
H527   H     0.89149   0.23377   0.88516   0.00000  Uiso   1.00
H528   H     0.90251   0.01315   0.75658   0.00000  Uiso   1.00
N529   N     0.98241   0.18074   0.76416   0.00000  Uiso   1.00
N530   N     0.68426   0.15259   0.73584   0.00000  Uiso   1.00
O531   O     0.79464   0.23807   0.74633   0.00000  Uiso   1.00
O532   O     0.89524   0.24755   0.75586   0.00000  Uiso   1.00
O533   O     0.75848   0.15960   0.81839   0.00000  Uiso   1.00
O534   O     0.85908   0.16908   0.82793   0.00000  Uiso   1.00
O535   O     0.77142   0.08578   0.74413   0.00000  Uiso   1.00
O536   O     0.87203   0.09526   0.75367   0.00000  Uiso   1.00
O537   O     0.80758   0.16425   0.67207   0.00000  Uiso   1.00
O538   O     0.90819   0.17373   0.68160   0.00000  Uiso   1.00
C539   C     0.73638   0.08133   0.54098   0.00000  Uiso   1.00
N540   N     0.72539   0.05194   0.57369   0.00000  Uiso   1.00
C541   C     0.18176   0.60007   0.75154   0.00000  Uiso   1.00
C542   C     0.14201   0.48775   0.98499   0.00000  Uiso   1.00
C543   C     0.15633   0.50935   0.93560   0.00000  Uiso   1.00
C544   C     0.18837   0.50272   0.51583   0.00000  Uiso   1.00
C545   C     0.25006   0.53070   0.99448   0.00000  Uiso   1.00
C546   C     0.26233   0.55184   0.94649   0.00000  Uiso   1.00
C547   C     0.21476   0.54466   0.91934   0.00000  Uiso   1.00
C548   C     0.17394   0.49539   0.56835   0.00000  Uiso   1.00
C549   C     0.28294   0.52831   0.57432   0.00000  Uiso   1.00
C550   C     0.11270   0.49411   0.90290   0.00000  Uiso   1.00
C551   C     0.19028   0.65602   0.75231   0.00000  Uiso   1.00
C552   C     0.13321   0.49894   0.84720   0.00000  Uiso   1.00
C553   C     0.14301   0.34398   0.74779   0.00000  Uiso   1.00
C554   C     0.15155   0.39993   0.74851   0.00000  Uiso   1.00
C555   C     0.20044   0.50329   0.65301   0.00000  Uiso   1.00
C556   C     0.29745   0.54110   0.52310   0.00000  Uiso   1.00
C557   C     0.22038   0.50770   0.59765   0.00000  Uiso   1.00
C558   C     0.05220   0.46484   0.92205   0.00000  Uiso   1.00
C559   C     0.03784   0.44329   0.96985   0.00000  Uiso   1.00
C560   C     0.08310   0.45104   0.99990   0.00000  Uiso   1.00
Cu561  Cu    0.10710   0.49439   0.74435   0.00000  Uiso   1.00
Cu562  Cu    0.22623   0.50561   0.75564   0.00000  Uiso   1.00
H563   H     0.31952   0.53811   0.59632   0.00000  Uiso   1.00
H564   H     0.09745   0.65352   0.74353   0.00000  Uiso   1.00
H565   H     0.00367   0.53917   0.78965   0.00000  Uiso   1.00
H566   H     0.32964   0.46082   0.71038   0.00000  Uiso   1.00
H567   H     0.30784   0.57659   0.93110   0.00000  Uiso   1.00
H568   H     0.01178   0.56093   0.50635   0.00000  Uiso   1.00
H569   H     0.12554   0.48446   0.58784   0.00000  Uiso   1.00
H570   H     0.01770   0.45400   0.89816   0.00000  Uiso   1.00
H571   H     0.32579   0.41680   0.98173   0.00000  Uiso   1.00
H572   H     0.22482   0.56710   0.88516   0.00000  Uiso   1.00
H573   H     0.23584   0.34648   0.75658   0.00000  Uiso   1.00
N574   N     0.31574   0.51407   0.76416   0.00000  Uiso   1.00
N575   N     0.01759   0.48593   0.73584   0.00000  Uiso   1.00
O576   O     0.12797   0.57141   0.74633   0.00000  Uiso   1.00
O577   O     0.22858   0.58089   0.75586   0.00000  Uiso   1.00
O578   O     0.09181   0.49293   0.81839   0.00000  Uiso   1.00
O579   O     0.19242   0.50241   0.82793   0.00000  Uiso   1.00
O580   O     0.10476   0.41911   0.74413   0.00000  Uiso   1.00
O581   O     0.20536   0.42859   0.75367   0.00000  Uiso   1.00
O582   O     0.14092   0.49759   0.67207   0.00000  Uiso   1.00
O583   O     0.24152   0.50707   0.68160   0.00000  Uiso   1.00
C584   C     0.06971   0.41466   0.54098   0.00000  Uiso   1.00
N585   N     0.05872   0.38527   0.57369   0.00000  Uiso   1.00
C586   C     0.51510   0.60007   0.75154   0.00000  Uiso   1.00
C587   C     0.47534   0.48775   0.98499   0.00000  Uiso   1.00
C588   C     0.48967   0.50935   0.93560   0.00000  Uiso   1.00
C589   C     0.52171   0.50272   0.51583   0.00000  Uiso   1.00
C590   C     0.58340   0.53070   0.99448   0.00000  Uiso   1.00
C591   C     0.59566   0.55184   0.94649   0.00000  Uiso   1.00
C592   C     0.54810   0.54466   0.91934   0.00000  Uiso   1.00
C593   C     0.50727   0.49539   0.56835   0.00000  Uiso   1.00
C594   C     0.61628   0.52831   0.57432   0.00000  Uiso   1.00
C595   C     0.44603   0.49411   0.90290   0.00000  Uiso   1.00
C596   C     0.52362   0.65602   0.75231   0.00000  Uiso   1.00
C597   C     0.46655   0.49894   0.84720   0.00000  Uiso   1.00
C598   C     0.47635   0.34398   0.74779   0.00000  Uiso   1.00
C599   C     0.48488   0.39993   0.74851   0.00000  Uiso   1.00
C600   C     0.53377   0.50329   0.65301   0.00000  Uiso   1.00
C601   C     0.63078   0.54110   0.52310   0.00000  Uiso   1.00
C602   C     0.55371   0.50770   0.59765   0.00000  Uiso   1.00
C603   C     0.38553   0.46484   0.92205   0.00000  Uiso   1.00
C604   C     0.37117   0.44329   0.96985   0.00000  Uiso   1.00
C605   C     0.41643   0.45104   0.99990   0.00000  Uiso   1.00
Cu606  Cu    0.44043   0.49439   0.74435   0.00000  Uiso   1.00
Cu607  Cu    0.55957   0.50561   0.75564   0.00000  Uiso   1.00
H608   H     0.65285   0.53811   0.59632   0.00000  Uiso   1.00
H609   H     0.43078   0.65352   0.74353   0.00000  Uiso   1.00
H610   H     0.33701   0.53917   0.78965   0.00000  Uiso   1.00
H611   H     0.66297   0.46082   0.71038   0.00000  Uiso   1.00
H612   H     0.64117   0.57659   0.93110   0.00000  Uiso   1.00
H613   H     0.34512   0.56093   0.50635   0.00000  Uiso   1.00
H614   H     0.45888   0.48446   0.58784   0.00000  Uiso   1.00
H615   H     0.35104   0.45400   0.89816   0.00000  Uiso   1.00
H616   H     0.65912   0.41680   0.98173   0.00000  Uiso   1.00
H617   H     0.55815   0.56710   0.88516   0.00000  Uiso   1.00
H618   H     0.56918   0.34648   0.75658   0.00000  Uiso   1.00
N619   N     0.64908   0.51407   0.76416   0.00000  Uiso   1.00
N620   N     0.35092   0.48593   0.73584   0.00000  Uiso   1.00
O621   O     0.46131   0.57141   0.74633   0.00000  Uiso   1.00
O622   O     0.56191   0.58089   0.75586   0.00000  Uiso   1.00
O623   O     0.42515   0.49293   0.81839   0.00000  Uiso   1.00
O624   O     0.52575   0.50241   0.82793   0.00000  Uiso   1.00
O625   O     0.43809   0.41911   0.74413   0.00000  Uiso   1.00
O626   O     0.53869   0.42859   0.75367   0.00000  Uiso   1.00
O627   O     0.47425   0.49759   0.67207   0.00000  Uiso   1.00
O628   O     0.57485   0.50707   0.68160   0.00000  Uiso   1.00
C629   C     0.40304   0.41466   0.54098   0.00000  Uiso   1.00
N630   N     0.39205   0.38527   0.57369   0.00000  Uiso   1.00
C631   C     0.84843   0.60007   0.75154   0.00000  Uiso   1.00
C632   C     0.80868   0.48775   0.98499   0.00000  Uiso   1.00
C633   C     0.82300   0.50935   0.93560   0.00000  Uiso   1.00
C634   C     0.85504   0.50272   0.51583   0.00000  Uiso   1.00
C635   C     0.91673   0.53070   0.99448   0.00000  Uiso   1.00
C636   C     0.92899   0.55184   0.94649   0.00000  Uiso   1.00
C637   C     0.88143   0.54466   0.91934   0.00000  Uiso   1.00
C638   C     0.84061   0.49539   0.56835   0.00000  Uiso   1.00
C639   C     0.94961   0.52831   0.57432   0.00000  Uiso   1.00
C640   C     0.77937   0.49411   0.90290   0.00000  Uiso   1.00
C641   C     0.85695   0.65602   0.75231   0.00000  Uiso   1.00
C642   C     0.79988   0.49894   0.84720   0.00000  Uiso   1.00
C643   C     0.80968   0.34398   0.74779   0.00000  Uiso   1.00
C644   C     0.81822   0.39993   0.74851   0.00000  Uiso   1.00
C645   C     0.86711   0.50329   0.65301   0.00000  Uiso   1.00
C646   C     0.96412   0.54110   0.52310   0.00000  Uiso   1.00
C647   C     0.88704   0.50770   0.59765   0.00000  Uiso   1.00
C648   C     0.71887   0.46484   0.92205   0.00000  Uiso   1.00
C649   C     0.70450   0.44329   0.96985   0.00000  Uiso   1.00
C650   C     0.74977   0.45104   0.99990   0.00000  Uiso   1.00
Cu651  Cu    0.77377   0.49439   0.74435   0.00000  Uiso   1.00
Cu652  Cu    0.89290   0.50561   0.75564   0.00000  Uiso   1.00
H653   H     0.98619   0.53811   0.59632   0.00000  Uiso   1.00
H654   H     0.76412   0.65352   0.74353   0.00000  Uiso   1.00
H655   H     0.67034   0.53917   0.78965   0.00000  Uiso   1.00
H656   H     0.99631   0.46082   0.71038   0.00000  Uiso   1.00
H657   H     0.97450   0.57659   0.93110   0.00000  Uiso   1.00
H658   H     0.67845   0.56093   0.50635   0.00000  Uiso   1.00
H659   H     0.79221   0.48446   0.58784   0.00000  Uiso   1.00
H660   H     0.68437   0.45400   0.89816   0.00000  Uiso   1.00
H661   H     0.99246   0.41680   0.98173   0.00000  Uiso   1.00
H662   H     0.89149   0.56710   0.88516   0.00000  Uiso   1.00
H663   H     0.90251   0.34648   0.75658   0.00000  Uiso   1.00
N664   N     0.98241   0.51407   0.76416   0.00000  Uiso   1.00
N665   N     0.68426   0.48593   0.73584   0.00000  Uiso   1.00
O666   O     0.79464   0.57141   0.74633   0.00000  Uiso   1.00
O667   O     0.89524   0.58089   0.75586   0.00000  Uiso   1.00
O668   O     0.75848   0.49293   0.81839   0.00000  Uiso   1.00
O669   O     0.85908   0.50241   0.82793   0.00000  Uiso   1.00
O670   O     0.77142   0.41911   0.74413   0.00000  Uiso   1.00
O671   O     0.87203   0.42859   0.75367   0.00000  Uiso   1.00
O672   O     0.80758   0.49759   0.67207   0.00000  Uiso   1.00
O673   O     0.90819   0.50707   0.68160   0.00000  Uiso   1.00
C674   C     0.73638   0.41466   0.54098   0.00000  Uiso   1.00
N675   N     0.72539   0.38527   0.57369   0.00000  Uiso   1.00
C676   C     0.18176   0.93341   0.75154   0.00000  Uiso   1.00
C677   C     0.14201   0.82109   0.98499   0.00000  Uiso   1.00
C678   C     0.15633   0.84269   0.93560   0.00000  Uiso   1.00
C679   C     0.18837   0.83605   0.51583   0.00000  Uiso   1.00
C680   C     0.25006   0.86403   0.99448   0.00000  Uiso   1.00
C681   C     0.26233   0.88517   0.94649   0.00000  Uiso   1.00
C682   C     0.21476   0.87799   0.91934   0.00000  Uiso   1.00
C683   C     0.17394   0.82873   0.56835   0.00000  Uiso   1.00
C684   C     0.28294   0.86165   0.57432   0.00000  Uiso   1.00
C685   C     0.11270   0.82744   0.90290   0.00000  Uiso   1.00
C686   C     0.19028   0.98936   0.75231   0.00000  Uiso   1.00
C687   C     0.13321   0.83228   0.84720   0.00000  Uiso   1.00
C688   C     0.14301   0.67731   0.74779   0.00000  Uiso   1.00
C689   C     0.15155   0.73326   0.74851   0.00000  Uiso   1.00
C690   C     0.20044   0.83663   0.65301   0.00000  Uiso   1.00
C691   C     0.29745   0.87443   0.52310   0.00000  Uiso   1.00
C692   C     0.22038   0.84103   0.59765   0.00000  Uiso   1.00
C693   C     0.05220   0.79818   0.92205   0.00000  Uiso   1.00
C694   C     0.03784   0.77663   0.96985   0.00000  Uiso   1.00
C695   C     0.08310   0.78437   0.99990   0.00000  Uiso   1.00
Cu696  Cu    0.10710   0.82772   0.74435   0.00000  Uiso   1.00
Cu697  Cu    0.22623   0.83895   0.75564   0.00000  Uiso   1.00
H698   H     0.31952   0.87144   0.59632   0.00000  Uiso   1.00
H699   H     0.09745   0.98685   0.74353   0.00000  Uiso   1.00
H700   H     0.00367   0.87250   0.78965   0.00000  Uiso   1.00
H701   H     0.32964   0.79415   0.71038   0.00000  Uiso   1.00
H702   H     0.30784   0.90992   0.93110   0.00000  Uiso   1.00
H703   H     0.01178   0.89427   0.50635   0.00000  Uiso   1.00
H704   H     0.12554   0.81779   0.58784   0.00000  Uiso   1.00
H705   H     0.01770   0.78734   0.89816   0.00000  Uiso   1.00
H706   H     0.32579   0.75013   0.98173   0.00000  Uiso   1.00
H707   H     0.22482   0.90043   0.88516   0.00000  Uiso   1.00
H708   H     0.23584   0.67982   0.75658   0.00000  Uiso   1.00
N709   N     0.31574   0.84741   0.76416   0.00000  Uiso   1.00
N710   N     0.01759   0.81926   0.73584   0.00000  Uiso   1.00
O711   O     0.12797   0.90474   0.74633   0.00000  Uiso   1.00
O712   O     0.22858   0.91422   0.75586   0.00000  Uiso   1.00
O713   O     0.09181   0.82627   0.81839   0.00000  Uiso   1.00
O714   O     0.19242   0.83575   0.82793   0.00000  Uiso   1.00
O715   O     0.10476   0.75245   0.74413   0.00000  Uiso   1.00
O716   O     0.20536   0.76193   0.75367   0.00000  Uiso   1.00
O717   O     0.14092   0.83092   0.67207   0.00000  Uiso   1.00
O718   O     0.24152   0.84040   0.68160   0.00000  Uiso   1.00
C719   C     0.06971   0.74800   0.54098   0.00000  Uiso   1.00
N720   N     0.05872   0.71861   0.57369   0.00000  Uiso   1.00
C721   C     0.51510   0.93341   0.75154   0.00000  Uiso   1.00
C722   C     0.47534   0.82109   0.98499   0.00000  Uiso   1.00
C723   C     0.48967   0.84269   0.93560   0.00000  Uiso   1.00
C724   C     0.52171   0.83605   0.51583   0.00000  Uiso   1.00
C725   C     0.58340   0.86403   0.99448   0.00000  Uiso   1.00
C726   C     0.59566   0.88517   0.94649   0.00000  Uiso   1.00
C727   C     0.54810   0.87799   0.91934   0.00000  Uiso   1.00
C728   C     0.50727   0.82873   0.56835   0.00000  Uiso   1.00
C729   C     0.61628   0.86165   0.57432   0.00000  Uiso   1.00
C730   C     0.44603   0.82744   0.90290   0.00000  Uiso   1.00
C731   C     0.52362   0.98936   0.75231   0.00000  Uiso   1.00
C732   C     0.46655   0.83228   0.84720   0.00000  Uiso   1.00
C733   C     0.47635   0.67731   0.74779   0.00000  Uiso   1.00
C734   C     0.48488   0.73326   0.74851   0.00000  Uiso   1.00
C735   C     0.53377   0.83663   0.65301   0.00000  Uiso   1.00
C736   C     0.63078   0.87443   0.52310   0.00000  Uiso   1.00
C737   C     0.55371   0.84103   0.59765   0.00000  Uiso   1.00
C738   C     0.38553   0.79818   0.92205   0.00000  Uiso   1.00
C739   C     0.37117   0.77663   0.96985   0.00000  Uiso   1.00
C740   C     0.41643   0.78437   0.99990   0.00000  Uiso   1.00
Cu741  Cu    0.44043   0.82772   0.74435   0.00000  Uiso   1.00
Cu742  Cu    0.55957   0.83895   0.75564   0.00000  Uiso   1.00
H743   H     0.65285   0.87144   0.59632   0.00000  Uiso   1.00
H744   H     0.43078   0.98685   0.74353   0.00000  Uiso   1.00
H745   H     0.33701   0.87250   0.78965   0.00000  Uiso   1.00
H746   H     0.66297   0.79415   0.71038   0.00000  Uiso   1.00
H747   H     0.64117   0.90992   0.93110   0.00000  Uiso   1.00
H748   H     0.34512   0.89427   0.50635   0.00000  Uiso   1.00
H749   H     0.45888   0.81779   0.58784   0.00000  Uiso   1.00
H750   H     0.35104   0.78734   0.89816   0.00000  Uiso   1.00
H751   H     0.65912   0.75013   0.98173   0.00000  Uiso   1.00
H752   H     0.55815   0.90043   0.88516   0.00000  Uiso   1.00
H753   H     0.56918   0.67982   0.75658   0.00000  Uiso   1.00
N754   N     0.64908   0.84741   0.76416   0.00000  Uiso   1.00
N755   N     0.35092   0.81926   0.73584   0.00000  Uiso   1.00
O756   O     0.46131   0.90474   0.74633   0.00000  Uiso   1.00
O757   O     0.56191   0.91422   0.75586   0.00000  Uiso   1.00
O758   O     0.42515   0.82627   0.81839   0.00000  Uiso   1.00
O759   O     0.52575   0.83575   0.82793   0.00000  Uiso   1.00
O760   O     0.43809   0.75245   0.74413   0.00000  Uiso   1.00
O761   O     0.53869   0.76193   0.75367   0.00000  Uiso   1.00
O762   O     0.47425   0.83092   0.67207   0.00000  Uiso   1.00
O763   O     0.57485   0.84040   0.68160   0.00000  Uiso   1.00
C764   C     0.40304   0.74800   0.54098   0.00000  Uiso   1.00
N765   N     0.39205   0.71861   0.57369   0.00000  Uiso   1.00
C766   C     0.84843   0.93341   0.75154   0.00000  Uiso   1.00
C767   C     0.80868   0.82109   0.98499   0.00000  Uiso   1.00
C768   C     0.82300   0.84269   0.93560   0.00000  Uiso   1.00
C769   C     0.85504   0.83605   0.51583   0.00000  Uiso   1.00
C770   C     0.91673   0.86403   0.99448   0.00000  Uiso   1.00
C771   C     0.92899   0.88517   0.94649   0.00000  Uiso   1.00
C772   C     0.88143   0.87799   0.91934   0.00000  Uiso   1.00
C773   C     0.84061   0.82873   0.56835   0.00000  Uiso   1.00
C774   C     0.94961   0.86165   0.57432   0.00000  Uiso   1.00
C775   C     0.77937   0.82744   0.90290   0.00000  Uiso   1.00
C776   C     0.85695   0.98936   0.75231   0.00000  Uiso   1.00
C777   C     0.79988   0.83228   0.84720   0.00000  Uiso   1.00
C778   C     0.80968   0.67731   0.74779   0.00000  Uiso   1.00
C779   C     0.81822   0.73326   0.74851   0.00000  Uiso   1.00
C780   C     0.86711   0.83663   0.65301   0.00000  Uiso   1.00
C781   C     0.96412   0.87443   0.52310   0.00000  Uiso   1.00
C782   C     0.88704   0.84103   0.59765   0.00000  Uiso   1.00
C783   C     0.71887   0.79818   0.92205   0.00000  Uiso   1.00
C784   C     0.70450   0.77663   0.96985   0.00000  Uiso   1.00
C785   C     0.74977   0.78437   0.99990   0.00000  Uiso   1.00
Cu786  Cu    0.77377   0.82772   0.74435   0.00000  Uiso   1.00
Cu787  Cu    0.89290   0.83895   0.75564   0.00000  Uiso   1.00
H788   H     0.98619   0.87144   0.59632   0.00000  Uiso   1.00
H789   H     0.76412   0.98685   0.74353   0.00000  Uiso   1.00
H790   H     0.67034   0.87250   0.78965   0.00000  Uiso   1.00
H791   H     0.99631   0.79415   0.71038   0.00000  Uiso   1.00
H792   H     0.97450   0.90992   0.93110   0.00000  Uiso   1.00
H793   H     0.67845   0.89427   0.50635   0.00000  Uiso   1.00
H794   H     0.79221   0.81779   0.58784   0.00000  Uiso   1.00
H795   H     0.68437   0.78734   0.89816   0.00000  Uiso   1.00
H796   H     0.99246   0.75013   0.98173   0.00000  Uiso   1.00
H797   H     0.89149   0.90043   0.88516   0.00000  Uiso   1.00
H798   H     0.90251   0.67982   0.75658   0.00000  Uiso   1.00
N799   N     0.98241   0.84741   0.76416   0.00000  Uiso   1.00
N800   N     0.68426   0.81926   0.73584   0.00000  Uiso   1.00
O801   O     0.79464   0.90474   0.74633   0.00000  Uiso   1.00
O802   O     0.89524   0.91422   0.75586   0.00000  Uiso   1.00
O803   O     0.75848   0.82627   0.81839   0.00000  Uiso   1.00
O804   O     0.85908   0.83575   0.82793   0.00000  Uiso   1.00
O805   O     0.77142   0.75245   0.74413   0.00000  Uiso   1.00
O806   O     0.87203   0.76193   0.75367   0.00000  Uiso   1.00
O807   O     0.80758   0.83092   0.67207   0.00000  Uiso   1.00
O808   O     0.90819   0.84040   0.68160   0.00000  Uiso   1.00
C809   C     0.73638   0.74800   0.54098   0.00000  Uiso   1.00
N810   N     0.72539   0.71861   0.57369   0.00000  Uiso   1.00
loop_
_geom_bond_atom_site_label_1
_geom_bond_atom_site_label_2
_geom_bond_distance
_geom_bond_site_symmetry_2
_ccdc_geom_bond_type
C1     C11     1.427   .     S
C1     O37     1.284   .     A
C1     O36     1.291   .     A
C2     C3      1.424   .     A
C2     C20     1.434   .     A
C2     C409    1.432   .     S
C3     C10     1.422   .     A
C3     C7      1.414   .     A
C4     C8      1.397   .     A
C4     C407    1.432   1_554 S
C4     C410    1.419   1_554 S
C5     C6      1.388   .     A
C5     C409    1.419   .     S
C5     C421    1.405   .     S
C6     C7      1.385   .     A
C6     H27     1.084   .     S
C7     H32     1.081   .     S
C8     C17     1.401   .     A
C8     H29     1.075   .     S
C9     C17     1.398   .     A
C9     C16     1.393   .     A
C9     H23     1.083   .     S
C10    C12     1.475   .     S
C10    C18     1.398   .     A
C11    C148    1.328   .     S
C11    H168    1.088   .     S
C12    O39     1.294   .     A
C12    O38     1.305   .     A
C13    C14     1.427   .     S
C13    C281    1.328   1_545 S
C13    H294    1.088   1_545 S
C14    O41     1.291   .     A
C14    O40     1.284   .     A
C15    O42     1.293   .     A
C15    O43     1.301   .     A
C15    C17     1.465   .     S
C16    C410    1.405   1_554 S
C16    H73     1.084   .     S
C18    H30     1.083   .     S
C18    C19     1.385   .     A
C19    C20     1.396   .     A
C19    H121    1.085   1_455 S
C20    C449    1.446   .     S
Cu21   O40     1.951   .     S
Cu21   N35     2.017   .     S
Cu21   O42     1.929   .     S
Cu21   O36     1.955   .     S
Cu21   Cu22    2.685   .     S
Cu21   O38     1.950   .     S
Cu22   N34     2.017   .     S
Cu22   O41     1.955   .     S
Cu22   O39     1.929   .     S
Cu22   O37     1.951   .     S
Cu22   O43     1.950   .     S
H24    C148    1.088   .     S
H25    N124    1.029   1_455 S
H26    N80     1.029   .     S
H28    C106    1.084   1_455 S
H31    C64     1.085   .     S
H33    C281    1.088   1_545 S
N34    H70     1.029   .     S
N34    N80     1.287   .     S
N35    N124    1.287   1_455 S
N35    H116    1.029   1_455 S
C44    N45     1.158   .     T
C44    C425    1.446   1_554 S
C46    C56     1.427   .     S
C46    O82     1.284   .     A
C46    O81     1.291   .     A
C47    C48     1.424   .     A
C47    C65     1.434   .     A
C47    C454    1.432   .     S
C48    C55     1.422   .     A
C48    C52     1.414   .     A
C49    C53     1.397   .     A
C49    C452    1.432   1_554 S
C49    C455    1.419   1_554 S
C50    C51     1.388   .     A
C50    C454    1.419   .     S
C50    C466    1.405   .     S
C51    C52     1.385   .     A
C51    H72     1.084   .     S
C52    H77     1.081   .     S
C53    C62     1.401   .     A
C53    H74     1.075   .     S
C54    C62     1.398   .     A
C54    C61     1.393   .     A
C54    H68     1.083   .     S
C55    C57     1.475   .     S
C55    C63     1.398   .     A
C56    C193    1.328   .     S
C56    H213    1.088   .     S
C57    O84     1.294   .     A
C57    O83     1.305   .     A
C58    C59     1.427   .     S
C58    C326    1.328   1_545 S
C58    H339    1.088   1_545 S
C59    O86     1.291   .     A
C59    O85     1.284   .     A
C60    O87     1.293   .     A
C60    O88     1.301   .     A
C60    C62     1.465   .     S
C61    C455    1.405   1_554 S
C61    H118    1.084   .     S
C63    H75     1.083   .     S
C63    C64     1.385   .     A
C64    C65     1.396   .     A
C65    C494    1.446   .     S
Cu66   O85     1.951   .     S
Cu66   N80     2.017   .     S
Cu66   O87     1.929   .     S
Cu66   O81     1.955   .     S
Cu66   Cu67    2.685   .     S
Cu66   O83     1.950   .     S
Cu67   N79     2.017   .     S
Cu67   O86     1.955   .     S
Cu67   O84     1.929   .     S
Cu67   O82     1.951   .     S
Cu67   O88     1.950   .     S
H69    C193    1.088   .     S
H71    N125    1.029   .     S
H76    C109    1.085   .     S
H78    C326    1.088   1_545 S
N79    H115    1.029   .     S
N79    N125    1.287   .     S
C89    N90     1.158   .     T
C89    C470    1.446   1_554 S
C91    C101    1.427   .     S
C91    O127    1.284   .     A
C91    O126    1.291   .     A
C92    C93     1.424   .     A
C92    C110    1.434   .     A
C92    C499    1.432   .     S
C93    C100    1.422   .     A
C93    C97     1.414   .     A
C94    C98     1.397   .     A
C94    C497    1.432   1_554 S
C94    C500    1.419   1_554 S
C95    C96     1.388   .     A
C95    C499    1.419   .     S
C95    C511    1.405   .     S
C96    C97     1.385   .     A
C96    H117    1.084   .     S
C97    H122    1.081   .     S
C98    C107    1.401   .     A
C98    H119    1.075   .     S
C99    C107    1.398   .     A
C99    C106    1.393   .     A
C99    H113    1.083   .     S
C100   C102    1.475   .     S
C100   C108    1.398   .     A
C101   C238    1.328   .     S
C101   H258    1.088   .     S
C102   O129    1.294   .     A
C102   O128    1.305   .     A
C103   C104    1.427   .     S
C103   C371    1.328   1_545 S
C103   H384    1.088   1_545 S
C104   O131    1.291   .     A
C104   O130    1.284   .     A
C105   O132    1.293   .     A
C105   O133    1.301   .     A
C105   C107    1.465   .     S
C106   C500    1.405   1_554 S
C106   H28     1.084   1_655 S
C108   H120    1.083   .     S
C108   C109    1.385   .     A
C109   C110    1.396   .     A
C110   C539    1.446   .     S
Cu111  O130    1.951   .     S
Cu111  N125    2.017   .     S
Cu111  O132    1.929   .     S
Cu111  O126    1.955   .     S
Cu111  Cu112   2.685   .     S
Cu111  O128    1.950   .     S
Cu112  N124    2.017   .     S
Cu112  O131    1.955   .     S
Cu112  O129    1.929   .     S
Cu112  O127    1.951   .     S
Cu112  O133    1.950   .     S
H114   C238    1.088   .     S
H116   N35     1.029   1_655 S
H121   C19     1.085   1_655 S
H123   C371    1.088   1_545 S
N124   H25     1.029   1_655 S
N124   N35     1.287   1_655 S
C134   N135    1.158   .     T
C134   C515    1.446   1_554 S
C136   C146    1.427   .     S
C136   O172    1.284   .     A
C136   O171    1.291   .     A
C137   C138    1.424   .     A
C137   C155    1.434   .     A
C137   C544    1.432   .     S
C138   C145    1.422   .     A
C138   C142    1.414   .     A
C139   C143    1.397   .     A
C139   C542    1.432   1_554 S
C139   C545    1.419   1_554 S
C140   C141    1.388   .     A
C140   C544    1.419   .     S
C140   C556    1.405   .     S
C141   C142    1.385   .     A
C141   H162    1.084   .     S
C142   H167    1.081   .     S
C143   C152    1.401   .     A
C143   H164    1.075   .     S
C144   C152    1.398   .     A
C144   C151    1.393   .     A
C144   H158    1.083   .     S
C145   C147    1.475   .     S
C145   C153    1.398   .     A
C146   C283    1.328   .     S
C146   H303    1.088   .     S
C147   O174    1.294   .     A
C147   O173    1.305   .     A
C148   C149    1.427   .     S
C149   O176    1.291   .     A
C149   O175    1.284   .     A
C150   O177    1.293   .     A
C150   O178    1.301   .     A
C150   C152    1.465   .     S
C151   C545    1.405   1_554 S
C151   H208    1.084   .     S
C153   H165    1.083   .     S
C153   C154    1.385   .     A
C154   C155    1.396   .     A
C154   H256    1.085   1_455 S
C155   C584    1.446   .     S
Cu156  O175    1.951   .     S
Cu156  N170    2.017   .     S
Cu156  O177    1.929   .     S
Cu156  O171    1.955   .     S
Cu156  Cu157   2.685   .     S
Cu156  O173    1.950   .     S
Cu157  N169    2.017   .     S
Cu157  O176    1.955   .     S
Cu157  O174    1.929   .     S
Cu157  O172    1.951   .     S
Cu157  O178    1.950   .     S
H159   C283    1.088   .     S
H160   N259    1.029   1_455 S
H161   N215    1.029   .     S
H163   C241    1.084   1_455 S
H166   C199    1.085   .     S
N169   H205    1.029   .     S
N169   N215    1.287   .     S
N170   N259    1.287   1_455 S
N170   H251    1.029   1_455 S
C179   N180    1.158   .     T
C179   C560    1.446   1_554 S
C181   C191    1.427   .     S
C181   O217    1.284   .     A
C181   O216    1.291   .     A
C182   C183    1.424   .     A
C182   C200    1.434   .     A
C182   C589    1.432   .     S
C183   C190    1.422   .     A
C183   C187    1.414   .     A
C184   C188    1.397   .     A
C184   C587    1.432   1_554 S
C184   C590    1.419   1_554 S
C185   C186    1.388   .     A
C185   C589    1.419   .     S
C185   C601    1.405   .     S
C186   C187    1.385   .     A
C186   H207    1.084   .     S
C187   H212    1.081   .     S
C188   C197    1.401   .     A
C188   H209    1.075   .     S
C189   C197    1.398   .     A
C189   C196    1.393   .     A
C189   H203    1.083   .     S
C190   C192    1.475   .     S
C190   C198    1.398   .     A
C191   C328    1.328   .     S
C191   H348    1.088   .     S
C192   O219    1.294   .     A
C192   O218    1.305   .     A
C193   C194    1.427   .     S
C194   O221    1.291   .     A
C194   O220    1.284   .     A
C195   O222    1.293   .     A
C195   O223    1.301   .     A
C195   C197    1.465   .     S
C196   C590    1.405   1_554 S
C196   H253    1.084   .     S
C198   H210    1.083   .     S
C198   C199    1.385   .     A
C199   C200    1.396   .     A
C200   C629    1.446   .     S
Cu201  O220    1.951   .     S
Cu201  N215    2.017   .     S
Cu201  O222    1.929   .     S
Cu201  O216    1.955   .     S
Cu201  Cu202   2.685   .     S
Cu201  O218    1.950   .     S
Cu202  N214    2.017   .     S
Cu202  O221    1.955   .     S
Cu202  O219    1.929   .     S
Cu202  O217    1.951   .     S
Cu202  O223    1.950   .     S
H204   C328    1.088   .     S
H206   N260    1.029   .     S
H211   C244    1.085   .     S
N214   H250    1.029   .     S
N214   N260    1.287   .     S
C224   N225    1.158   .     T
C224   C605    1.446   1_554 S
C226   C236    1.427   .     S
C226   O262    1.284   .     A
C226   O261    1.291   .     A
C227   C228    1.424   .     A
C227   C245    1.434   .     A
C227   C634    1.432   .     S
C228   C235    1.422   .     A
C228   C232    1.414   .     A
C229   C233    1.397   .     A
C229   C632    1.432   1_554 S
C229   C635    1.419   1_554 S
C230   C231    1.388   .     A
C230   C634    1.419   .     S
C230   C646    1.405   .     S
C231   C232    1.385   .     A
C231   H252    1.084   .     S
C232   H257    1.081   .     S
C233   C242    1.401   .     A
C233   H254    1.075   .     S
C234   C242    1.398   .     A
C234   C241    1.393   .     A
C234   H248    1.083   .     S
C235   C237    1.475   .     S
C235   C243    1.398   .     A
C236   C373    1.328   .     S
C236   H393    1.088   .     S
C237   O264    1.294   .     A
C237   O263    1.305   .     A
C238   C239    1.427   .     S
C239   O266    1.291   .     A
C239   O265    1.284   .     A
C240   O267    1.293   .     A
C240   O268    1.301   .     A
C240   C242    1.465   .     S
C241   C635    1.405   1_554 S
C241   H163    1.084   1_655 S
C243   H255    1.083   .     S
C243   C244    1.385   .     A
C244   C245    1.396   .     A
C245   C674    1.446   .     S
Cu246  O265    1.951   .     S
Cu246  N260    2.017   .     S
Cu246  O267    1.929   .     S
Cu246  O261    1.955   .     S
Cu246  Cu247   2.685   .     S
Cu246  O263    1.950   .     S
Cu247  N259    2.017   .     S
Cu247  O266    1.955   .     S
Cu247  O264    1.929   .     S
Cu247  O262    1.951   .     S
Cu247  O268    1.950   .     S
H249   C373    1.088   .     S
H251   N170    1.029   1_655 S
H256   C154    1.085   1_655 S
N259   H160    1.029   1_655 S
N259   N170    1.287   1_655 S
C269   N270    1.158   .     T
C269   C650    1.446   1_554 S
C271   C281    1.427   .     S
C271   O307    1.284   .     A
C271   O306    1.291   .     A
C272   C273    1.424   .     A
C272   C290    1.434   .     A
C272   C679    1.432   .     S
C273   C280    1.422   .     A
C273   C277    1.414   .     A
C274   C278    1.397   .     A
C274   C677    1.432   1_554 S
C274   C680    1.419   1_554 S
C275   C276    1.388   .     A
C275   C679    1.419   .     S
C275   C691    1.405   .     S
C276   C277    1.385   .     A
C276   H297    1.084   .     S
C277   H302    1.081   .     S
C278   C287    1.401   .     A
C278   H299    1.075   .     S
C279   C287    1.398   .     A
C279   C286    1.393   .     A
C279   H293    1.083   .     S
C280   C282    1.475   .     S
C280   C288    1.398   .     A
C281   C13     1.328   1_565 S
C281   H33     1.088   1_565 S
C282   O309    1.294   .     A
C282   O308    1.305   .     A
C283   C284    1.427   .     S
C284   O311    1.291   .     A
C284   O310    1.284   .     A
C285   O312    1.293   .     A
C285   O313    1.301   .     A
C285   C287    1.465   .     S
C286   C680    1.405   1_554 S
C286   H343    1.084   .     S
C288   H300    1.083   .     S
C288   C289    1.385   .     A
C289   C290    1.396   .     A
C289   H391    1.085   1_455 S
C290   C719    1.446   .     S
Cu291  O310    1.951   .     S
Cu291  N305    2.017   .     S
Cu291  O312    1.929   .     S
Cu291  O306    1.955   .     S
Cu291  Cu292   2.685   .     S
Cu291  O308    1.950   .     S
Cu292  N304    2.017   .     S
Cu292  O311    1.955   .     S
Cu292  O309    1.929   .     S
Cu292  O307    1.951   .     S
Cu292  O313    1.950   .     S
H294   C13     1.088   1_565 S
H295   N394    1.029   1_455 S
H296   N350    1.029   .     S
H298   C376    1.084   1_455 S
H301   C334    1.085   .     S
N304   H340    1.029   .     S
N304   N350    1.287   .     S
N305   N394    1.287   1_455 S
N305   H386    1.029   1_455 S
C314   N315    1.158   .     T
C314   C695    1.446   1_554 S
C316   C326    1.427   .     S
C316   O352    1.284   .     A
C316   O351    1.291   .     A
C317   C318    1.424   .     A
C317   C335    1.434   .     A
C317   C724    1.432   .     S
C318   C325    1.422   .     A
C318   C322    1.414   .     A
C319   C323    1.397   .     A
C319   C722    1.432   1_554 S
C319   C725    1.419   1_554 S
C320   C321    1.388   .     A
C320   C724    1.419   .     S
C320   C736    1.405   .     S
C321   C322    1.385   .     A
C321   H342    1.084   .     S
C322   H347    1.081   .     S
C323   C332    1.401   .     A
C323   H344    1.075   .     S
C324   C332    1.398   .     A
C324   C331    1.393   .     A
C324   H338    1.083   .     S
C325   C327    1.475   .     S
C325   C333    1.398   .     A
C326   C58     1.328   1_565 S
C326   H78     1.088   1_565 S
C327   O354    1.294   .     A
C327   O353    1.305   .     A
C328   C329    1.427   .     S
C329   O356    1.291   .     A
C329   O355    1.284   .     A
C330   O357    1.293   .     A
C330   O358    1.301   .     A
C330   C332    1.465   .     S
C331   C725    1.405   1_554 S
C331   H388    1.084   .     S
C333   H345    1.083   .     S
C333   C334    1.385   .     A
C334   C335    1.396   .     A
C335   C764    1.446   .     S
Cu336  O355    1.951   .     S
Cu336  N350    2.017   .     S
Cu336  O357    1.929   .     S
Cu336  O351    1.955   .     S
Cu336  Cu337   2.685   .     S
Cu336  O353    1.950   .     S
Cu337  N349    2.017   .     S
Cu337  O356    1.955   .     S
Cu337  O354    1.929   .     S
Cu337  O352    1.951   .     S
Cu337  O358    1.950   .     S
H339   C58     1.088   1_565 S
H341   N395    1.029   .     S
H346   C379    1.085   .     S
N349   H385    1.029   .     S
N349   N395    1.287   .     S
C359   N360    1.158   .     T
C359   C740    1.446   1_554 S
C361   C371    1.427   .     S
C361   O397    1.284   .     A
C361   O396    1.291   .     A
C362   C363    1.424   .     A
C362   C380    1.434   .     A
C362   C769    1.432   .     S
C363   C370    1.422   .     A
C363   C367    1.414   .     A
C364   C368    1.397   .     A
C364   C767    1.432   1_554 S
C364   C770    1.419   1_554 S
C365   C366    1.388   .     A
C365   C769    1.419   .     S
C365   C781    1.405   .     S
C366   C367    1.385   .     A
C366   H387    1.084   .     S
C367   H392    1.081   .     S
C368   C377    1.401   .     A
C368   H389    1.075   .     S
C369   C377    1.398   .     A
C369   C376    1.393   .     A
C369   H383    1.083   .     S
C370   C372    1.475   .     S
C370   C378    1.398   .     A
C371   C103    1.328   1_565 S
C371   H123    1.088   1_565 S
C372   O399    1.294   .     A
C372   O398    1.305   .     A
C373   C374    1.427   .     S
C374   O401    1.291   .     A
C374   O400    1.284   .     A
C375   O402    1.293   .     A
C375   O403    1.301   .     A
C375   C377    1.465   .     S
C376   C770    1.405   1_554 S
C376   H298    1.084   1_655 S
C378   H390    1.083   .     S
C378   C379    1.385   .     A
C379   C380    1.396   .     A
C380   C809    1.446   .     S
Cu381  O400    1.951   .     S
Cu381  N395    2.017   .     S
Cu381  O402    1.929   .     S
Cu381  O396    1.955   .     S
Cu381  Cu382   2.685   .     S
Cu381  O398    1.950   .     S
Cu382  N394    2.017   .     S
Cu382  O401    1.955   .     S
Cu382  O399    1.929   .     S
Cu382  O397    1.951   .     S
Cu382  O403    1.950   .     S
H384   C103    1.088   1_565 S
H386   N305    1.029   1_655 S
H391   C289    1.085   1_655 S
N394   H295    1.029   1_655 S
N394   N305    1.287   1_655 S
C404   N405    1.158   .     T
C404   C785    1.446   1_554 S
C406   C416    1.427   .     S
C406   O442    1.284   .     A
C406   O441    1.291   .     A
C407   C408    1.424   .     A
C407   C425    1.434   .     A
C407   C4      1.432   1_556 S
C408   C415    1.422   .     A
C408   C412    1.414   .     A
C409   C413    1.397   .     A
C410   C411    1.388   .     A
C410   C4      1.419   1_556 S
C410   C16     1.405   1_556 S
C411   C412    1.385   .     A
C411   H432    1.084   .     S
C412   H437    1.081   .     S
C413   C422    1.401   .     A
C413   H434    1.075   .     S
C414   C422    1.398   .     A
C414   C421    1.393   .     A
C414   H428    1.083   .     S
C415   C417    1.475   .     S
C415   C423    1.398   .     A
C416   C553    1.328   .     S
C416   H573    1.088   .     S
C417   O444    1.294   .     A
C417   O443    1.305   .     A
C418   C419    1.427   .     S
C418   C686    1.328   1_545 S
C418   H699    1.088   1_545 S
C419   O446    1.291   .     A
C419   O445    1.284   .     A
C420   O447    1.293   .     A
C420   O448    1.301   .     A
C420   C422    1.465   .     S
C421   H478    1.084   .     S
C423   H435    1.083   .     S
C423   C424    1.385   .     A
C424   C425    1.396   .     A
C424   H526    1.085   1_455 S
C425   C44     1.446   1_556 S
Cu426  O445    1.951   .     S
Cu426  N440    2.017   .     S
Cu426  O447    1.929   .     S
Cu426  O441    1.955   .     S
Cu426  Cu427   2.685   .     S
Cu426  O443    1.950   .     S
Cu427  N439    2.017   .     S
Cu427  O446    1.955   .     S
Cu427  O444    1.929   .     S
Cu427  O442    1.951   .     S
Cu427  O448    1.950   .     S
H429   C553    1.088   .     S
H430   N529    1.029   1_455 S
H431   N485    1.029   .     S
H433   C511    1.084   1_455 S
H436   C469    1.085   .     S
H438   C686    1.088   1_545 S
N439   H475    1.029   .     S
N439   N485    1.287   .     S
N440   N529    1.287   1_455 S
N440   H521    1.029   1_455 S
C449   N450    1.158   .     T
C451   C461    1.427   .     S
C451   O487    1.284   .     A
C451   O486    1.291   .     A
C452   C453    1.424   .     A
C452   C470    1.434   .     A
C452   C49     1.432   1_556 S
C453   C460    1.422   .     A
C453   C457    1.414   .     A
C454   C458    1.397   .     A
C455   C456    1.388   .     A
C455   C49     1.419   1_556 S
C455   C61     1.405   1_556 S
C456   C457    1.385   .     A
C456   H477    1.084   .     S
C457   H482    1.081   .     S
C458   C467    1.401   .     A
C458   H479    1.075   .     S
C459   C467    1.398   .     A
C459   C466    1.393   .     A
C459   H473    1.083   .     S
C460   C462    1.475   .     S
C460   C468    1.398   .     A
C461   C598    1.328   .     S
C461   H618    1.088   .     S
C462   O489    1.294   .     A
C462   O488    1.305   .     A
C463   C464    1.427   .     S
C463   C731    1.328   1_545 S
C463   H744    1.088   1_545 S
C464   O491    1.291   .     A
C464   O490    1.284   .     A
C465   O492    1.293   .     A
C465   O493    1.301   .     A
C465   C467    1.465   .     S
C466   H523    1.084   .     S
C468   H480    1.083   .     S
C468   C469    1.385   .     A
C469   C470    1.396   .     A
C470   C89     1.446   1_556 S
Cu471  O490    1.951   .     S
Cu471  N485    2.017   .     S
Cu471  O492    1.929   .     S
Cu471  O486    1.955   .     S
Cu471  Cu472   2.685   .     S
Cu471  O488    1.950   .     S
Cu472  N484    2.017   .     S
Cu472  O491    1.955   .     S
Cu472  O489    1.929   .     S
Cu472  O487    1.951   .     S
Cu472  O493    1.950   .     S
H474   C598    1.088   .     S
H476   N530    1.029   .     S
H481   C514    1.085   .     S
H483   C731    1.088   1_545 S
N484   H520    1.029   .     S
N484   N530    1.287   .     S
C494   N495    1.158   .     T
C496   C506    1.427   .     S
C496   O532    1.284   .     A
C496   O531    1.291   .     A
C497   C498    1.424   .     A
C497   C515    1.434   .     A
C497   C94     1.432   1_556 S
C498   C505    1.422   .     A
C498   C502    1.414   .     A
C499   C503    1.397   .     A
C500   C501    1.388   .     A
C500   C94     1.419   1_556 S
C500   C106    1.405   1_556 S
C501   C502    1.385   .     A
C501   H522    1.084   .     S
C502   H527    1.081   .     S
C503   C512    1.401   .     A
C503   H524    1.075   .     S
C504   C512    1.398   .     A
C504   C511    1.393   .     A
C504   H518    1.083   .     S
C505   C507    1.475   .     S
C505   C513    1.398   .     A
C506   C643    1.328   .     S
C506   H663    1.088   .     S
C507   O534    1.294   .     A
C507   O533    1.305   .     A
C508   C509    1.427   .     S
C508   C776    1.328   1_545 S
C508   H789    1.088   1_545 S
C509   O536    1.291   .     A
C509   O535    1.284   .     A
C510   O537    1.293   .     A
C510   O538    1.301   .     A
C510   C512    1.465   .     S
C511   H433    1.084   1_655 S
C513   H525    1.083   .     S
C513   C514    1.385   .     A
C514   C515    1.396   .     A
C515   C134    1.446   1_556 S
Cu516  O535    1.951   .     S
Cu516  N530    2.017   .     S
Cu516  O537    1.929   .     S
Cu516  O531    1.955   .     S
Cu516  Cu517   2.685   .     S
Cu516  O533    1.950   .     S
Cu517  N529    2.017   .     S
Cu517  O536    1.955   .     S
Cu517  O534    1.929   .     S
Cu517  O532    1.951   .     S
Cu517  O538    1.950   .     S
H519   C643    1.088   .     S
H521   N440    1.029   1_655 S
H526   C424    1.085   1_655 S
H528   C776    1.088   1_545 S
N529   H430    1.029   1_655 S
N529   N440    1.287   1_655 S
C539   N540    1.158   .     T
C541   C551    1.427   .     S
C541   O577    1.284   .     A
C541   O576    1.291   .     A
C542   C543    1.424   .     A
C542   C560    1.434   .     A
C542   C139    1.432   1_556 S
C543   C550    1.422   .     A
C543   C547    1.414   .     A
C544   C548    1.397   .     A
C545   C546    1.388   .     A
C545   C139    1.419   1_556 S
C545   C151    1.405   1_556 S
C546   C547    1.385   .     A
C546   H567    1.084   .     S
C547   H572    1.081   .     S
C548   C557    1.401   .     A
C548   H569    1.075   .     S
C549   C557    1.398   .     A
C549   C556    1.393   .     A
C549   H563    1.083   .     S
C550   C552    1.475   .     S
C550   C558    1.398   .     A
C551   C688    1.328   .     S
C551   H708    1.088   .     S
C552   O579    1.294   .     A
C552   O578    1.305   .     A
C553   C554    1.427   .     S
C554   O581    1.291   .     A
C554   O580    1.284   .     A
C555   O582    1.293   .     A
C555   O583    1.301   .     A
C555   C557    1.465   .     S
C556   H613    1.084   .     S
C558   H570    1.083   .     S
C558   C559    1.385   .     A
C559   C560    1.396   .     A
C559   H661    1.085   1_455 S
C560   C179    1.446   1_556 S
Cu561  O580    1.951   .     S
Cu561  N575    2.017   .     S
Cu561  O582    1.929   .     S
Cu561  O576    1.955   .     S
Cu561  Cu562   2.685   .     S
Cu561  O578    1.950   .     S
Cu562  N574    2.017   .     S
Cu562  O581    1.955   .     S
Cu562  O579    1.929   .     S
Cu562  O577    1.951   .     S
Cu562  O583    1.950   .     S
H564   C688    1.088   .     S
H565   N664    1.029   1_455 S
H566   N620    1.029   .     S
H568   C646    1.084   1_455 S
H571   C604    1.085   .     S
N574   H610    1.029   .     S
N574   N620    1.287   .     S
N575   N664    1.287   1_455 S
N575   H656    1.029   1_455 S
C584   N585    1.158   .     T
C586   C596    1.427   .     S
C586   O622    1.284   .     A
C586   O621    1.291   .     A
C587   C588    1.424   .     A
C587   C605    1.434   .     A
C587   C184    1.432   1_556 S
C588   C595    1.422   .     A
C588   C592    1.414   .     A
C589   C593    1.397   .     A
C590   C591    1.388   .     A
C590   C184    1.419   1_556 S
C590   C196    1.405   1_556 S
C591   C592    1.385   .     A
C591   H612    1.084   .     S
C592   H617    1.081   .     S
C593   C602    1.401   .     A
C593   H614    1.075   .     S
C594   C602    1.398   .     A
C594   C601    1.393   .     A
C594   H608    1.083   .     S
C595   C597    1.475   .     S
C595   C603    1.398   .     A
C596   C733    1.328   .     S
C596   H753    1.088   .     S
C597   O624    1.294   .     A
C597   O623    1.305   .     A
C598   C599    1.427   .     S
C599   O626    1.291   .     A
C599   O625    1.284   .     A
C600   O627    1.293   .     A
C600   O628    1.301   .     A
C600   C602    1.465   .     S
C601   H658    1.084   .     S
C603   H615    1.083   .     S
C603   C604    1.385   .     A
C604   C605    1.396   .     A
C605   C224    1.446   1_556 S
Cu606  O625    1.951   .     S
Cu606  N620    2.017   .     S
Cu606  O627    1.929   .     S
Cu606  O621    1.955   .     S
Cu606  Cu607   2.685   .     S
Cu606  O623    1.950   .     S
Cu607  N619    2.017   .     S
Cu607  O626    1.955   .     S
Cu607  O624    1.929   .     S
Cu607  O622    1.951   .     S
Cu607  O628    1.950   .     S
H609   C733    1.088   .     S
H611   N665    1.029   .     S
H616   C649    1.085   .     S
N619   H655    1.029   .     S
N619   N665    1.287   .     S
C629   N630    1.158   .     T
C631   C641    1.427   .     S
C631   O667    1.284   .     A
C631   O666    1.291   .     A
C632   C633    1.424   .     A
C632   C650    1.434   .     A
C632   C229    1.432   1_556 S
C633   C640    1.422   .     A
C633   C637    1.414   .     A
C634   C638    1.397   .     A
C635   C636    1.388   .     A
C635   C229    1.419   1_556 S
C635   C241    1.405   1_556 S
C636   C637    1.385   .     A
C636   H657    1.084   .     S
C637   H662    1.081   .     S
C638   C647    1.401   .     A
C638   H659    1.075   .     S
C639   C647    1.398   .     A
C639   C646    1.393   .     A
C639   H653    1.083   .     S
C640   C642    1.475   .     S
C640   C648    1.398   .     A
C641   C778    1.328   .     S
C641   H798    1.088   .     S
C642   O669    1.294   .     A
C642   O668    1.305   .     A
C643   C644    1.427   .     S
C644   O671    1.291   .     A
C644   O670    1.284   .     A
C645   O672    1.293   .     A
C645   O673    1.301   .     A
C645   C647    1.465   .     S
C646   H568    1.084   1_655 S
C648   H660    1.083   .     S
C648   C649    1.385   .     A
C649   C650    1.396   .     A
C650   C269    1.446   1_556 S
Cu651  O670    1.951   .     S
Cu651  N665    2.017   .     S
Cu651  O672    1.929   .     S
Cu651  O666    1.955   .     S
Cu651  Cu652   2.685   .     S
Cu651  O668    1.950   .     S
Cu652  N664    2.017   .     S
Cu652  O671    1.955   .     S
Cu652  O669    1.929   .     S
Cu652  O667    1.951   .     S
Cu652  O673    1.950   .     S
H654   C778    1.088   .     S
H656   N575    1.029   1_655 S
H661   C559    1.085   1_655 S
N664   H565    1.029   1_655 S
N664   N575    1.287   1_655 S
C674   N675    1.158   .     T
C676   C686    1.427   .     S
C676   O712    1.284   .     A
C676   O711    1.291   .     A
C677   C678    1.424   .     A
C677   C695    1.434   .     A
C677   C274    1.432   1_556 S
C678   C685    1.422   .     A
C678   C682    1.414   .     A
C679   C683    1.397   .     A
C680   C681    1.388   .     A
C680   C274    1.419   1_556 S
C680   C286    1.405   1_556 S
C681   C682    1.385   .     A
C681   H702    1.084   .     S
C682   H707    1.081   .     S
C683   C692    1.401   .     A
C683   H704    1.075   .     S
C684   C692    1.398   .     A
C684   C691    1.393   .     A
C684   H698    1.083   .     S
C685   C687    1.475   .     S
C685   C693    1.398   .     A
C686   C418    1.328   1_565 S
C686   H438    1.088   1_565 S
C687   O714    1.294   .     A
C687   O713    1.305   .     A
C688   C689    1.427   .     S
C689   O716    1.291   .     A
C689   O715    1.284   .     A
C690   O717    1.293   .     A
C690   O718    1.301   .     A
C690   C692    1.465   .     S
C691   H748    1.084   .     S
C693   H705    1.083   .     S
C693   C694    1.385   .     A
C694   C695    1.396   .     A
C694   H796    1.085   1_455 S
C695   C314    1.446   1_556 S
Cu696  O715    1.951   .     S
Cu696  N710    2.017   .     S
Cu696  O717    1.929   .     S
Cu696  O711    1.955   .     S
Cu696  Cu697   2.685   .     S
Cu696  O713    1.950   .     S
Cu697  N709    2.017   .     S
Cu697  O716    1.955   .     S
Cu697  O714    1.929   .     S
Cu697  O712    1.951   .     S
Cu697  O718    1.950   .     S
H699   C418    1.088   1_565 S
H700   N799    1.029   1_455 S
H701   N755    1.029   .     S
H703   C781    1.084   1_455 S
H706   C739    1.085   .     S
N709   H745    1.029   .     S
N709   N755    1.287   .     S
N710   N799    1.287   1_455 S
N710   H791    1.029   1_455 S
C719   N720    1.158   .     T
C721   C731    1.427   .     S
C721   O757    1.284   .     A
C721   O756    1.291   .     A
C722   C723    1.424   .     A
C722   C740    1.434   .     A
C722   C319    1.432   1_556 S
C723   C730    1.422   .     A
C723   C727    1.414   .     A
C724   C728    1.397   .     A
C725   C726    1.388   .     A
C725   C319    1.419   1_556 S
C725   C331    1.405   1_556 S
C726   C727    1.385   .     A
C726   H747    1.084   .     S
C727   H752    1.081   .     S
C728   C737    1.401   .     A
C728   H749    1.075   .     S
C729   C737    1.398   .     A
C729   C736    1.393   .     A
C729   H743    1.083   .     S
C730   C732    1.475   .     S
C730   C738    1.398   .     A
C731   C463    1.328   1_565 S
C731   H483    1.088   1_565 S
C732   O759    1.294   .     A
C732   O758    1.305   .     A
C733   C734    1.427   .     S
C734   O761    1.291   .     A
C734   O760    1.284   .     A
C735   O762    1.293   .     A
C735   O763    1.301   .     A
C735   C737    1.465   .     S
C736   H793    1.084   .     S
C738   H750    1.083   .     S
C738   C739    1.385   .     A
C739   C740    1.396   .     A
C740   C359    1.446   1_556 S
Cu741  O760    1.951   .     S
Cu741  N755    2.017   .     S
Cu741  O762    1.929   .     S
Cu741  O756    1.955   .     S
Cu741  Cu742   2.685   .     S
Cu741  O758    1.950   .     S
Cu742  N754    2.017   .     S
Cu742  O761    1.955   .     S
Cu742  O759    1.929   .     S
Cu742  O757    1.951   .     S
Cu742  O763    1.950   .     S
H744   C463    1.088   1_565 S
H746   N800    1.029   .     S
H751   C784    1.085   .     S
N754   H790    1.029   .     S
N754   N800    1.287   .     S
C764   N765    1.158   .     T
C766   C776    1.427   .     S
C766   O802    1.284   .     A
C766   O801    1.291   .     A
C767   C768    1.424   .     A
C767   C785    1.434   .     A
C767   C364    1.432   1_556 S
C768   C775    1.422   .     A
C768   C772    1.414   .     A
C769   C773    1.397   .     A
C770   C771    1.388   .     A
C770   C364    1.419   1_556 S
C770   C376    1.405   1_556 S
C771   C772    1.385   .     A
C771   H792    1.084   .     S
C772   H797    1.081   .     S
C773   C782    1.401   .     A
C773   H794    1.075   .     S
C774   C782    1.398   .     A
C774   C781    1.393   .     A
C774   H788    1.083   .     S
C775   C777    1.475   .     S
C775   C783    1.398   .     A
C776   C508    1.328   1_565 S
C776   H528    1.088   1_565 S
C777   O804    1.294   .     A
C777   O803    1.305   .     A
C778   C779    1.427   .     S
C779   O806    1.291   .     A
C779   O805    1.284   .     A
C780   O807    1.293   .     A
C780   O808    1.301   .     A
C780   C782    1.465   .     S
C781   H703    1.084   1_655 S
C783   H795    1.083   .     S
C783   C784    1.385   .     A
C784   C785    1.396   .     A
C785   C404    1.446   1_556 S
Cu786  O805    1.951   .     S
Cu786  N800    2.017   .     S
Cu786  O807    1.929   .     S
Cu786  O801    1.955   .     S
Cu786  Cu787   2.685   .     S
Cu786  O803    1.950   .     S
Cu787  N799    2.017   .     S
Cu787  O806    1.955   .     S
Cu787  O804    1.929   .     S
Cu787  O802    1.951   .     S
Cu787  O808    1.950   .     S
H789   C508    1.088   1_565 S
H791   N710    1.029   1_655 S
H796   C694    1.085   1_655 S
N799   H700    1.029   1_655 S
N799   N710    1.287   1_655 S
C809   N810    1.158   .     T
