data_str_m2_o1_o17_pcu_sym.83
_audit_creation_date              2020-01-03
_audit_creation_method            'Materials Studio'
_symmetry_space_group_name_H-M    'P1'
_symmetry_Int_Tables_number       1
_symmetry_cell_setting            triclinic
loop_
_symmetry_equiv_pos_as_xyz
  x,y,z
_cell_length_a                    32.4810
_cell_length_b                    28.9338
_cell_length_c                    30.0584
_cell_angle_alpha                 89.5092
_cell_angle_beta                  93.7972
_cell_angle_gamma                 89.7913
loop_
_atom_site_label
_atom_site_type_symbol
_atom_site_fract_x
_atom_site_fract_y
_atom_site_fract_z
_atom_site_U_iso_or_equiv
_atom_site_adp_type
_atom_site_occupancy
C1     C     0.08754   0.16672   0.25089   0.00000  Uiso   1.00
C2     C     0.04287   0.16678   0.25144   0.00000  Uiso   1.00
C3     C     0.14353   0.02505   0.21817   0.00000  Uiso   1.00
C4     C     0.18985   0.30829   0.28178   0.00000  Uiso   1.00
C5     C     0.18958   0.02429   0.28195   0.00000  Uiso   1.00
C6     C     0.14369   0.30903   0.21807   0.00000  Uiso   1.00
C7     C     0.16501   0.16686   0.16460   0.00000  Uiso   1.00
C8     C     0.16851   0.16647   0.33542   0.00000  Uiso   1.00
C9     C     0.20708   0.16427   0.41028   0.00000  Uiso   1.00
C10    C     0.12672   0.16964   0.08974   0.00000  Uiso   1.00
C11    C     0.16973   0.16577   0.38379   0.00000  Uiso   1.00
C12    C     0.24579   0.16661   0.24911   0.00000  Uiso   1.00
C13    C     0.16397   0.16758   0.11626   0.00000  Uiso   1.00
C14    C     0.13230   0.16887   0.40311   0.00000  Uiso   1.00
C15    C     0.20142   0.16418   0.09705   0.00000  Uiso   1.00
C16    C     0.13070   0.17206   0.44935   0.00000  Uiso   1.00
C17    C     0.20316   0.16158   0.05078   0.00000  Uiso   1.00
C18    C     0.16762   0.16608   0.47670   0.00000  Uiso   1.00
C19    C     0.16626   0.16760   0.02337   0.00000  Uiso   1.00
C20    C     0.20587   0.15865   0.45721   0.00000  Uiso   1.00
C21    C     0.12802   0.17515   0.04282   0.00000  Uiso   1.00
C22    C     0.09328   0.18326   0.46828   0.00000  Uiso   1.00
C23    C     0.09246   0.18772   0.01495   0.00000  Uiso   1.00
C24    C     0.24068   0.15090   0.03182   0.00000  Uiso   1.00
C25    C     0.24612   0.17597   0.38971   0.00000  Uiso   1.00
C26    C     0.08752   0.15858   0.11031   0.00000  Uiso   1.00
C27    C     0.05581   0.19398   0.43893   0.00000  Uiso   1.00
C28    C     0.27856   0.14062   0.06085   0.00000  Uiso   1.00
C29    C     0.05662   0.21090   0.03424   0.00000  Uiso   1.00
C30    C     0.27875   0.12521   0.46729   0.00000  Uiso   1.00
C31    C     0.11679   0.04941   0.18390   0.00000  Uiso   1.00
C32    C     0.21668   0.28394   0.31598   0.00000  Uiso   1.00
C33    C     0.21337   0.04789   0.31837   0.00000  Uiso   1.00
C34    C     0.24151   0.14653   0.48523   0.00000  Uiso   1.00
C35    C     0.11918   0.28542   0.18213   0.00000  Uiso   1.00
C36    C     0.02169   0.12494   0.25475   0.00000  Uiso   1.00
C37    C     0.31164   0.20835   0.24535   0.00000  Uiso   1.00
C38    C     0.31237   0.12476   0.25288   0.00000  Uiso   1.00
C39    C     0.02095   0.20854   0.24731   0.00000  Uiso   1.00
C40    C     0.29046   0.16652   0.24864   0.00000  Uiso   1.00
Cu41   Cu    0.16667   0.21355   0.25000   0.00000  Uiso   1.00
Cu42   Cu    0.16667   0.11978   0.25000   0.00000  Uiso   1.00
H43    H     0.10457   0.17136   0.38110   0.00000  Uiso   1.00
H44    H     0.32004   0.09281   0.08419   0.00000  Uiso   1.00
H45    H     0.06177   0.23312   0.06293   0.00000  Uiso   1.00
H46    H     0.30936   0.13433   0.48094   0.00000  Uiso   1.00
H47    H     0.06034   0.07546   0.16632   0.00000  Uiso   1.00
H48    H     0.27329   0.25828   0.33349   0.00000  Uiso   1.00
H49    H     0.21677   0.06564   0.38319   0.00000  Uiso   1.00
H50    H     0.11429   0.26769   0.11729   0.00000  Uiso   1.00
H51    H     0.22898   0.16107   0.11920   0.00000  Uiso   1.00
H52    H     0.03793   0.09232   0.25890   0.00000  Uiso   1.00
H53    H     0.29540   0.24098   0.24118   0.00000  Uiso   1.00
H54    H     0.29674   0.09197   0.25500   0.00000  Uiso   1.00
H55    H     0.03657   0.24135   0.24536   0.00000  Uiso   1.00
H56    H     0.28513   0.16336   0.34204   0.00000  Uiso   1.00
H57    H     0.04848   0.17209   0.15773   0.00000  Uiso   1.00
H58    H     0.01766   0.24288   0.41119   0.00000  Uiso   1.00
N59    N     0.16667   0.28402   0.25000   0.00000  Uiso   1.00
N60    N     0.16667   0.04931   0.25000   0.00000  Uiso   1.00
O61    O     0.10655   0.20625   0.24999   0.00000  Uiso   1.00
O62    O     0.25705   0.15344   0.35136   0.00000  Uiso   1.00
O63    O     0.06454   0.12930   0.09339   0.00000  Uiso   1.00
O64    O     0.07662   0.18169   0.14835   0.00000  Uiso   1.00
O65    O     0.03618   0.16261   0.42077   0.00000  Uiso   1.00
O66    O     0.04340   0.23992   0.43202   0.00000  Uiso   1.00
O67    O     0.29542   0.17136   0.08287   0.00000  Uiso   1.00
O68    O     0.29462   0.09571   0.06290   0.00000  Uiso   1.00
O69    O     0.02126   0.20485   0.01917   0.00000  Uiso   1.00
O70    O     0.27542   0.09558   0.43863   0.00000  Uiso   1.00
O71    O     0.12856   0.05494   0.14642   0.00000  Uiso   1.00
O72    O     0.22679   0.12709   0.25000   0.00000  Uiso   1.00
O73    O     0.07648   0.06103   0.19293   0.00000  Uiso   1.00
O74    O     0.20495   0.27825   0.35345   0.00000  Uiso   1.00
O75    O     0.25704   0.27261   0.30691   0.00000  Uiso   1.00
O76    O     0.24812   0.06181   0.31295   0.00000  Uiso   1.00
O77    O     0.19728   0.05018   0.36029   0.00000  Uiso   1.00
O78    O     0.08432   0.27230   0.18820   0.00000  Uiso   1.00
O79    O     0.13452   0.28256   0.13987   0.00000  Uiso   1.00
O80    O     0.22679   0.20625   0.25000   0.00000  Uiso   1.00
O81    O     0.10655   0.12709   0.24999   0.00000  Uiso   1.00
O82    O     0.16666   0.20627   0.18513   0.00000  Uiso   1.00
O83    O     0.16668   0.12707   0.31487   0.00000  Uiso   1.00
O84    O     0.16668   0.20627   0.31487   0.00000  Uiso   1.00
O85    O     0.16666   0.12707   0.18513   0.00000  Uiso   1.00
O86    O     0.26897   0.20526   0.40687   0.00000  Uiso   1.00
C87    C     0.42087   0.16672   0.25089   0.00000  Uiso   1.00
C88    C     0.37620   0.16678   0.25144   0.00000  Uiso   1.00
C89    C     0.47686   0.02505   0.21817   0.00000  Uiso   1.00
C90    C     0.52318   0.30829   0.28178   0.00000  Uiso   1.00
C91    C     0.52292   0.02429   0.28195   0.00000  Uiso   1.00
C92    C     0.47702   0.30903   0.21807   0.00000  Uiso   1.00
C93    C     0.49835   0.16686   0.16460   0.00000  Uiso   1.00
C94    C     0.50184   0.16647   0.33542   0.00000  Uiso   1.00
C95    C     0.54041   0.16427   0.41028   0.00000  Uiso   1.00
C96    C     0.46005   0.16964   0.08974   0.00000  Uiso   1.00
C97    C     0.50306   0.16577   0.38379   0.00000  Uiso   1.00
C98    C     0.57913   0.16661   0.24911   0.00000  Uiso   1.00
C99    C     0.49730   0.16758   0.11626   0.00000  Uiso   1.00
C100   C     0.46563   0.16887   0.40311   0.00000  Uiso   1.00
C101   C     0.53475   0.16418   0.09705   0.00000  Uiso   1.00
C102   C     0.46403   0.17206   0.44935   0.00000  Uiso   1.00
C103   C     0.53650   0.16158   0.05078   0.00000  Uiso   1.00
C104   C     0.50096   0.16608   0.47670   0.00000  Uiso   1.00
C105   C     0.49960   0.16760   0.02337   0.00000  Uiso   1.00
C106   C     0.53920   0.15865   0.45721   0.00000  Uiso   1.00
C107   C     0.46136   0.17515   0.04282   0.00000  Uiso   1.00
C108   C     0.42661   0.18326   0.46828   0.00000  Uiso   1.00
C109   C     0.42580   0.18772   0.01495   0.00000  Uiso   1.00
C110   C     0.57402   0.15090   0.03182   0.00000  Uiso   1.00
C111   C     0.57946   0.17597   0.38971   0.00000  Uiso   1.00
C112   C     0.42086   0.15858   0.11031   0.00000  Uiso   1.00
C113   C     0.38915   0.19398   0.43893   0.00000  Uiso   1.00
C114   C     0.61190   0.14062   0.06085   0.00000  Uiso   1.00
C115   C     0.38995   0.21090   0.03424   0.00000  Uiso   1.00
C116   C     0.61209   0.12521   0.46729   0.00000  Uiso   1.00
C117   C     0.45013   0.04941   0.18390   0.00000  Uiso   1.00
C118   C     0.55001   0.28394   0.31598   0.00000  Uiso   1.00
C119   C     0.54671   0.04789   0.31837   0.00000  Uiso   1.00
C120   C     0.57484   0.14653   0.48523   0.00000  Uiso   1.00
C121   C     0.45252   0.28542   0.18213   0.00000  Uiso   1.00
C122   C     0.35502   0.12494   0.25475   0.00000  Uiso   1.00
C123   C     0.64498   0.20835   0.24535   0.00000  Uiso   1.00
C124   C     0.64571   0.12476   0.25288   0.00000  Uiso   1.00
C125   C     0.35429   0.20854   0.24731   0.00000  Uiso   1.00
C126   C     0.62380   0.16652   0.24864   0.00000  Uiso   1.00
Cu127  Cu    0.50000   0.21355   0.25000   0.00000  Uiso   1.00
Cu128  Cu    0.50000   0.11978   0.25000   0.00000  Uiso   1.00
H129   H     0.43790   0.17136   0.38110   0.00000  Uiso   1.00
H130   H     0.65338   0.09281   0.08419   0.00000  Uiso   1.00
H131   H     0.39511   0.23312   0.06293   0.00000  Uiso   1.00
H132   H     0.64269   0.13433   0.48094   0.00000  Uiso   1.00
H133   H     0.39367   0.07546   0.16632   0.00000  Uiso   1.00
H134   H     0.60662   0.25828   0.33349   0.00000  Uiso   1.00
H135   H     0.55010   0.06564   0.38319   0.00000  Uiso   1.00
H136   H     0.44762   0.26769   0.11729   0.00000  Uiso   1.00
H137   H     0.56231   0.16107   0.11920   0.00000  Uiso   1.00
H138   H     0.37127   0.09232   0.25890   0.00000  Uiso   1.00
H139   H     0.62874   0.24098   0.24118   0.00000  Uiso   1.00
H140   H     0.63007   0.09197   0.25500   0.00000  Uiso   1.00
H141   H     0.36990   0.24135   0.24536   0.00000  Uiso   1.00
H142   H     0.61846   0.16336   0.34204   0.00000  Uiso   1.00
H143   H     0.38181   0.17209   0.15773   0.00000  Uiso   1.00
H144   H     0.35099   0.24288   0.41119   0.00000  Uiso   1.00
N145   N     0.50000   0.28402   0.25000   0.00000  Uiso   1.00
N146   N     0.50000   0.04931   0.25000   0.00000  Uiso   1.00
O147   O     0.43988   0.20625   0.24999   0.00000  Uiso   1.00
O148   O     0.59039   0.15344   0.35136   0.00000  Uiso   1.00
O149   O     0.39788   0.12930   0.09339   0.00000  Uiso   1.00
O150   O     0.40996   0.18169   0.14835   0.00000  Uiso   1.00
O151   O     0.36951   0.16261   0.42077   0.00000  Uiso   1.00
O152   O     0.37674   0.23992   0.43202   0.00000  Uiso   1.00
O153   O     0.62875   0.17136   0.08287   0.00000  Uiso   1.00
O154   O     0.62796   0.09571   0.06290   0.00000  Uiso   1.00
O155   O     0.35459   0.20485   0.01917   0.00000  Uiso   1.00
O156   O     0.60875   0.09558   0.43863   0.00000  Uiso   1.00
O157   O     0.46189   0.05494   0.14642   0.00000  Uiso   1.00
O158   O     0.56012   0.12709   0.25000   0.00000  Uiso   1.00
O159   O     0.40982   0.06103   0.19293   0.00000  Uiso   1.00
O160   O     0.53828   0.27825   0.35345   0.00000  Uiso   1.00
O161   O     0.59037   0.27261   0.30691   0.00000  Uiso   1.00
O162   O     0.58145   0.06181   0.31295   0.00000  Uiso   1.00
O163   O     0.53062   0.05018   0.36029   0.00000  Uiso   1.00
O164   O     0.41766   0.27230   0.18820   0.00000  Uiso   1.00
O165   O     0.46786   0.28256   0.13987   0.00000  Uiso   1.00
O166   O     0.56012   0.20625   0.25000   0.00000  Uiso   1.00
O167   O     0.43988   0.12709   0.24999   0.00000  Uiso   1.00
O168   O     0.49999   0.20627   0.18513   0.00000  Uiso   1.00
O169   O     0.50001   0.12707   0.31487   0.00000  Uiso   1.00
O170   O     0.50001   0.20627   0.31487   0.00000  Uiso   1.00
O171   O     0.49999   0.12707   0.18513   0.00000  Uiso   1.00
O172   O     0.60230   0.20526   0.40687   0.00000  Uiso   1.00
C173   C     0.75421   0.16672   0.25089   0.00000  Uiso   1.00
C174   C     0.70953   0.16678   0.25144   0.00000  Uiso   1.00
C175   C     0.81019   0.02505   0.21817   0.00000  Uiso   1.00
C176   C     0.85652   0.30829   0.28178   0.00000  Uiso   1.00
C177   C     0.85625   0.02429   0.28195   0.00000  Uiso   1.00
C178   C     0.81035   0.30903   0.21807   0.00000  Uiso   1.00
C179   C     0.83168   0.16686   0.16460   0.00000  Uiso   1.00
C180   C     0.83517   0.16647   0.33542   0.00000  Uiso   1.00
C181   C     0.87374   0.16427   0.41028   0.00000  Uiso   1.00
C182   C     0.79338   0.16964   0.08974   0.00000  Uiso   1.00
C183   C     0.83639   0.16577   0.38379   0.00000  Uiso   1.00
C184   C     0.91246   0.16661   0.24911   0.00000  Uiso   1.00
C185   C     0.83064   0.16758   0.11626   0.00000  Uiso   1.00
C186   C     0.79896   0.16887   0.40311   0.00000  Uiso   1.00
C187   C     0.86809   0.16418   0.09705   0.00000  Uiso   1.00
C188   C     0.79737   0.17206   0.44935   0.00000  Uiso   1.00
C189   C     0.86983   0.16158   0.05078   0.00000  Uiso   1.00
C190   C     0.83429   0.16608   0.47670   0.00000  Uiso   1.00
C191   C     0.83293   0.16760   0.02337   0.00000  Uiso   1.00
C192   C     0.87253   0.15865   0.45721   0.00000  Uiso   1.00
C193   C     0.79469   0.17515   0.04282   0.00000  Uiso   1.00
C194   C     0.75994   0.18326   0.46828   0.00000  Uiso   1.00
C195   C     0.75913   0.18772   0.01495   0.00000  Uiso   1.00
C196   C     0.90735   0.15090   0.03182   0.00000  Uiso   1.00
C197   C     0.91279   0.17597   0.38971   0.00000  Uiso   1.00
C198   C     0.75419   0.15858   0.11031   0.00000  Uiso   1.00
C199   C     0.72248   0.19398   0.43893   0.00000  Uiso   1.00
C200   C     0.94523   0.14062   0.06085   0.00000  Uiso   1.00
C201   C     0.72329   0.21090   0.03424   0.00000  Uiso   1.00
C202   C     0.94542   0.12521   0.46729   0.00000  Uiso   1.00
C203   C     0.78346   0.04941   0.18390   0.00000  Uiso   1.00
C204   C     0.88334   0.28394   0.31598   0.00000  Uiso   1.00
C205   C     0.88004   0.04789   0.31837   0.00000  Uiso   1.00
C206   C     0.90818   0.14653   0.48523   0.00000  Uiso   1.00
C207   C     0.78585   0.28542   0.18213   0.00000  Uiso   1.00
C208   C     0.68836   0.12494   0.25475   0.00000  Uiso   1.00
C209   C     0.97831   0.20835   0.24535   0.00000  Uiso   1.00
C210   C     0.97904   0.12476   0.25288   0.00000  Uiso   1.00
C211   C     0.68762   0.20854   0.24731   0.00000  Uiso   1.00
C212   C     0.95713   0.16652   0.24864   0.00000  Uiso   1.00
Cu213  Cu    0.83333   0.21355   0.25000   0.00000  Uiso   1.00
Cu214  Cu    0.83333   0.11978   0.25000   0.00000  Uiso   1.00
H215   H     0.77123   0.17136   0.38110   0.00000  Uiso   1.00
H216   H     0.98671   0.09281   0.08419   0.00000  Uiso   1.00
H217   H     0.72844   0.23312   0.06293   0.00000  Uiso   1.00
H218   H     0.97603   0.13433   0.48094   0.00000  Uiso   1.00
H219   H     0.72700   0.07546   0.16632   0.00000  Uiso   1.00
H220   H     0.93995   0.25828   0.33349   0.00000  Uiso   1.00
H221   H     0.88343   0.06564   0.38319   0.00000  Uiso   1.00
H222   H     0.78095   0.26769   0.11729   0.00000  Uiso   1.00
H223   H     0.89564   0.16107   0.11920   0.00000  Uiso   1.00
H224   H     0.70460   0.09232   0.25890   0.00000  Uiso   1.00
H225   H     0.96207   0.24098   0.24118   0.00000  Uiso   1.00
H226   H     0.96341   0.09197   0.25500   0.00000  Uiso   1.00
H227   H     0.70323   0.24135   0.24536   0.00000  Uiso   1.00
H228   H     0.95180   0.16336   0.34204   0.00000  Uiso   1.00
H229   H     0.71514   0.17209   0.15773   0.00000  Uiso   1.00
H230   H     0.68433   0.24288   0.41119   0.00000  Uiso   1.00
N231   N     0.83333   0.28402   0.25000   0.00000  Uiso   1.00
N232   N     0.83333   0.04931   0.25000   0.00000  Uiso   1.00
O233   O     0.77321   0.20625   0.24999   0.00000  Uiso   1.00
O234   O     0.92372   0.15344   0.35136   0.00000  Uiso   1.00
O235   O     0.73121   0.12930   0.09339   0.00000  Uiso   1.00
O236   O     0.74329   0.18169   0.14835   0.00000  Uiso   1.00
O237   O     0.70284   0.16261   0.42077   0.00000  Uiso   1.00
O238   O     0.71007   0.23992   0.43202   0.00000  Uiso   1.00
O239   O     0.96209   0.17136   0.08287   0.00000  Uiso   1.00
O240   O     0.96129   0.09571   0.06290   0.00000  Uiso   1.00
O241   O     0.68792   0.20485   0.01917   0.00000  Uiso   1.00
O242   O     0.94209   0.09558   0.43863   0.00000  Uiso   1.00
O243   O     0.79522   0.05494   0.14642   0.00000  Uiso   1.00
O244   O     0.89345   0.12709   0.25000   0.00000  Uiso   1.00
O245   O     0.74315   0.06103   0.19293   0.00000  Uiso   1.00
O246   O     0.87162   0.27825   0.35345   0.00000  Uiso   1.00
O247   O     0.92370   0.27261   0.30691   0.00000  Uiso   1.00
O248   O     0.91478   0.06181   0.31295   0.00000  Uiso   1.00
O249   O     0.86395   0.05018   0.36029   0.00000  Uiso   1.00
O250   O     0.75099   0.27230   0.18820   0.00000  Uiso   1.00
O251   O     0.80119   0.28256   0.13987   0.00000  Uiso   1.00
O252   O     0.89345   0.20625   0.25000   0.00000  Uiso   1.00
O253   O     0.77321   0.12709   0.24999   0.00000  Uiso   1.00
O254   O     0.83332   0.20627   0.18513   0.00000  Uiso   1.00
O255   O     0.83334   0.12707   0.31487   0.00000  Uiso   1.00
O256   O     0.83334   0.20627   0.31487   0.00000  Uiso   1.00
O257   O     0.83332   0.12707   0.18513   0.00000  Uiso   1.00
O258   O     0.93563   0.20526   0.40687   0.00000  Uiso   1.00
C259   C     0.08754   0.50005   0.25089   0.00000  Uiso   1.00
C260   C     0.04287   0.50012   0.25144   0.00000  Uiso   1.00
C261   C     0.14353   0.35838   0.21817   0.00000  Uiso   1.00
C262   C     0.18985   0.64162   0.28178   0.00000  Uiso   1.00
C263   C     0.18958   0.35763   0.28195   0.00000  Uiso   1.00
C264   C     0.14369   0.64237   0.21807   0.00000  Uiso   1.00
C265   C     0.16501   0.50020   0.16460   0.00000  Uiso   1.00
C266   C     0.16851   0.49980   0.33542   0.00000  Uiso   1.00
C267   C     0.20708   0.49761   0.41028   0.00000  Uiso   1.00
C268   C     0.12672   0.50297   0.08974   0.00000  Uiso   1.00
C269   C     0.16973   0.49910   0.38379   0.00000  Uiso   1.00
C270   C     0.24579   0.49994   0.24911   0.00000  Uiso   1.00
C271   C     0.16397   0.50092   0.11626   0.00000  Uiso   1.00
C272   C     0.13230   0.50220   0.40311   0.00000  Uiso   1.00
C273   C     0.20142   0.49751   0.09705   0.00000  Uiso   1.00
C274   C     0.13070   0.50540   0.44935   0.00000  Uiso   1.00
C275   C     0.20316   0.49491   0.05078   0.00000  Uiso   1.00
C276   C     0.16762   0.49941   0.47670   0.00000  Uiso   1.00
C277   C     0.16626   0.50093   0.02337   0.00000  Uiso   1.00
C278   C     0.20587   0.49199   0.45721   0.00000  Uiso   1.00
C279   C     0.12802   0.50848   0.04282   0.00000  Uiso   1.00
C280   C     0.09328   0.51660   0.46828   0.00000  Uiso   1.00
C281   C     0.09246   0.52106   0.01495   0.00000  Uiso   1.00
C282   C     0.24068   0.48423   0.03182   0.00000  Uiso   1.00
C283   C     0.24612   0.50931   0.38971   0.00000  Uiso   1.00
C284   C     0.08752   0.49191   0.11031   0.00000  Uiso   1.00
C285   C     0.05581   0.52731   0.43893   0.00000  Uiso   1.00
C286   C     0.27856   0.47395   0.06085   0.00000  Uiso   1.00
C287   C     0.05662   0.54423   0.03424   0.00000  Uiso   1.00
C288   C     0.27875   0.45854   0.46729   0.00000  Uiso   1.00
C289   C     0.11679   0.38275   0.18390   0.00000  Uiso   1.00
C290   C     0.21668   0.61728   0.31598   0.00000  Uiso   1.00
C291   C     0.21337   0.38122   0.31837   0.00000  Uiso   1.00
C292   C     0.24151   0.47987   0.48523   0.00000  Uiso   1.00
C293   C     0.11918   0.61876   0.18213   0.00000  Uiso   1.00
C294   C     0.02169   0.45828   0.25475   0.00000  Uiso   1.00
C295   C     0.31164   0.54169   0.24535   0.00000  Uiso   1.00
C296   C     0.31237   0.45810   0.25288   0.00000  Uiso   1.00
C297   C     0.02095   0.54187   0.24731   0.00000  Uiso   1.00
C298   C     0.29046   0.49985   0.24864   0.00000  Uiso   1.00
Cu299  Cu    0.16667   0.54689   0.25000   0.00000  Uiso   1.00
Cu300  Cu    0.16667   0.45311   0.25000   0.00000  Uiso   1.00
H301   H     0.10457   0.50470   0.38110   0.00000  Uiso   1.00
H302   H     0.32004   0.42614   0.08419   0.00000  Uiso   1.00
H303   H     0.06177   0.56646   0.06293   0.00000  Uiso   1.00
H304   H     0.30936   0.46766   0.48094   0.00000  Uiso   1.00
H305   H     0.06034   0.40879   0.16632   0.00000  Uiso   1.00
H306   H     0.27329   0.59162   0.33349   0.00000  Uiso   1.00
H307   H     0.21677   0.39897   0.38319   0.00000  Uiso   1.00
H308   H     0.11429   0.60102   0.11729   0.00000  Uiso   1.00
H309   H     0.22898   0.49440   0.11920   0.00000  Uiso   1.00
H310   H     0.03793   0.42565   0.25890   0.00000  Uiso   1.00
H311   H     0.29540   0.57431   0.24118   0.00000  Uiso   1.00
H312   H     0.29674   0.42530   0.25500   0.00000  Uiso   1.00
H313   H     0.03657   0.57468   0.24536   0.00000  Uiso   1.00
H314   H     0.28513   0.49670   0.34204   0.00000  Uiso   1.00
H315   H     0.04848   0.50543   0.15773   0.00000  Uiso   1.00
H316   H     0.01766   0.57621   0.41119   0.00000  Uiso   1.00
N317   N     0.16667   0.61736   0.25000   0.00000  Uiso   1.00
N318   N     0.16667   0.38264   0.25000   0.00000  Uiso   1.00
O319   O     0.10655   0.53958   0.24999   0.00000  Uiso   1.00
O320   O     0.25705   0.48677   0.35136   0.00000  Uiso   1.00
O321   O     0.06454   0.46263   0.09339   0.00000  Uiso   1.00
O322   O     0.07662   0.51503   0.14835   0.00000  Uiso   1.00
O323   O     0.03618   0.49594   0.42077   0.00000  Uiso   1.00
O324   O     0.04340   0.57326   0.43202   0.00000  Uiso   1.00
O325   O     0.29542   0.50470   0.08287   0.00000  Uiso   1.00
O326   O     0.29462   0.42904   0.06290   0.00000  Uiso   1.00
O327   O     0.02126   0.53818   0.01917   0.00000  Uiso   1.00
O328   O     0.27542   0.42891   0.43863   0.00000  Uiso   1.00
O329   O     0.12856   0.38828   0.14642   0.00000  Uiso   1.00
O330   O     0.22679   0.46042   0.25000   0.00000  Uiso   1.00
O331   O     0.07648   0.39437   0.19293   0.00000  Uiso   1.00
O332   O     0.20495   0.61158   0.35345   0.00000  Uiso   1.00
O333   O     0.25704   0.60594   0.30691   0.00000  Uiso   1.00
O334   O     0.24812   0.39515   0.31295   0.00000  Uiso   1.00
O335   O     0.19728   0.38352   0.36029   0.00000  Uiso   1.00
O336   O     0.08432   0.60563   0.18820   0.00000  Uiso   1.00
O337   O     0.13452   0.61590   0.13987   0.00000  Uiso   1.00
O338   O     0.22679   0.53958   0.25000   0.00000  Uiso   1.00
O339   O     0.10655   0.46042   0.24999   0.00000  Uiso   1.00
O340   O     0.16666   0.53960   0.18513   0.00000  Uiso   1.00
O341   O     0.16668   0.46040   0.31487   0.00000  Uiso   1.00
O342   O     0.16668   0.53960   0.31487   0.00000  Uiso   1.00
O343   O     0.16666   0.46040   0.18513   0.00000  Uiso   1.00
O344   O     0.26897   0.53860   0.40687   0.00000  Uiso   1.00
C345   C     0.42087   0.50005   0.25089   0.00000  Uiso   1.00
C346   C     0.37620   0.50012   0.25144   0.00000  Uiso   1.00
C347   C     0.47686   0.35838   0.21817   0.00000  Uiso   1.00
C348   C     0.52318   0.64162   0.28178   0.00000  Uiso   1.00
C349   C     0.52292   0.35763   0.28195   0.00000  Uiso   1.00
C350   C     0.47702   0.64237   0.21807   0.00000  Uiso   1.00
C351   C     0.49835   0.50020   0.16460   0.00000  Uiso   1.00
C352   C     0.50184   0.49980   0.33542   0.00000  Uiso   1.00
C353   C     0.54041   0.49761   0.41028   0.00000  Uiso   1.00
C354   C     0.46005   0.50297   0.08974   0.00000  Uiso   1.00
C355   C     0.50306   0.49910   0.38379   0.00000  Uiso   1.00
C356   C     0.57913   0.49994   0.24911   0.00000  Uiso   1.00
C357   C     0.49730   0.50092   0.11626   0.00000  Uiso   1.00
C358   C     0.46563   0.50220   0.40311   0.00000  Uiso   1.00
C359   C     0.53475   0.49751   0.09705   0.00000  Uiso   1.00
C360   C     0.46403   0.50540   0.44935   0.00000  Uiso   1.00
C361   C     0.53650   0.49491   0.05078   0.00000  Uiso   1.00
C362   C     0.50096   0.49941   0.47670   0.00000  Uiso   1.00
C363   C     0.49960   0.50093   0.02337   0.00000  Uiso   1.00
C364   C     0.53920   0.49199   0.45721   0.00000  Uiso   1.00
C365   C     0.46136   0.50848   0.04282   0.00000  Uiso   1.00
C366   C     0.42661   0.51660   0.46828   0.00000  Uiso   1.00
C367   C     0.42580   0.52106   0.01495   0.00000  Uiso   1.00
C368   C     0.57402   0.48423   0.03182   0.00000  Uiso   1.00
C369   C     0.57946   0.50931   0.38971   0.00000  Uiso   1.00
C370   C     0.42086   0.49191   0.11031   0.00000  Uiso   1.00
C371   C     0.38915   0.52731   0.43893   0.00000  Uiso   1.00
C372   C     0.61190   0.47395   0.06085   0.00000  Uiso   1.00
C373   C     0.38995   0.54423   0.03424   0.00000  Uiso   1.00
C374   C     0.61209   0.45854   0.46729   0.00000  Uiso   1.00
C375   C     0.45013   0.38275   0.18390   0.00000  Uiso   1.00
C376   C     0.55001   0.61728   0.31598   0.00000  Uiso   1.00
C377   C     0.54671   0.38122   0.31837   0.00000  Uiso   1.00
C378   C     0.57484   0.47987   0.48523   0.00000  Uiso   1.00
C379   C     0.45252   0.61876   0.18213   0.00000  Uiso   1.00
C380   C     0.35502   0.45828   0.25475   0.00000  Uiso   1.00
C381   C     0.64498   0.54169   0.24535   0.00000  Uiso   1.00
C382   C     0.64571   0.45810   0.25288   0.00000  Uiso   1.00
C383   C     0.35429   0.54187   0.24731   0.00000  Uiso   1.00
C384   C     0.62380   0.49985   0.24864   0.00000  Uiso   1.00
Cu385  Cu    0.50000   0.54689   0.25000   0.00000  Uiso   1.00
Cu386  Cu    0.50000   0.45311   0.25000   0.00000  Uiso   1.00
H387   H     0.43790   0.50470   0.38110   0.00000  Uiso   1.00
H388   H     0.65338   0.42614   0.08419   0.00000  Uiso   1.00
H389   H     0.39511   0.56646   0.06293   0.00000  Uiso   1.00
H390   H     0.64269   0.46766   0.48094   0.00000  Uiso   1.00
H391   H     0.39367   0.40879   0.16632   0.00000  Uiso   1.00
H392   H     0.60662   0.59162   0.33349   0.00000  Uiso   1.00
H393   H     0.55010   0.39897   0.38319   0.00000  Uiso   1.00
H394   H     0.44762   0.60102   0.11729   0.00000  Uiso   1.00
H395   H     0.56231   0.49440   0.11920   0.00000  Uiso   1.00
H396   H     0.37127   0.42565   0.25890   0.00000  Uiso   1.00
H397   H     0.62874   0.57431   0.24118   0.00000  Uiso   1.00
H398   H     0.63007   0.42530   0.25500   0.00000  Uiso   1.00
H399   H     0.36990   0.57468   0.24536   0.00000  Uiso   1.00
H400   H     0.61846   0.49670   0.34204   0.00000  Uiso   1.00
H401   H     0.38181   0.50543   0.15773   0.00000  Uiso   1.00
H402   H     0.35099   0.57621   0.41119   0.00000  Uiso   1.00
N403   N     0.50000   0.61736   0.25000   0.00000  Uiso   1.00
N404   N     0.50000   0.38264   0.25000   0.00000  Uiso   1.00
O405   O     0.43988   0.53958   0.24999   0.00000  Uiso   1.00
O406   O     0.59039   0.48677   0.35136   0.00000  Uiso   1.00
O407   O     0.39788   0.46263   0.09339   0.00000  Uiso   1.00
O408   O     0.40996   0.51503   0.14835   0.00000  Uiso   1.00
O409   O     0.36951   0.49594   0.42077   0.00000  Uiso   1.00
O410   O     0.37674   0.57326   0.43202   0.00000  Uiso   1.00
O411   O     0.62875   0.50470   0.08287   0.00000  Uiso   1.00
O412   O     0.62796   0.42904   0.06290   0.00000  Uiso   1.00
O413   O     0.35459   0.53818   0.01917   0.00000  Uiso   1.00
O414   O     0.60875   0.42891   0.43863   0.00000  Uiso   1.00
O415   O     0.46189   0.38828   0.14642   0.00000  Uiso   1.00
O416   O     0.56012   0.46042   0.25000   0.00000  Uiso   1.00
O417   O     0.40982   0.39437   0.19293   0.00000  Uiso   1.00
O418   O     0.53828   0.61158   0.35345   0.00000  Uiso   1.00
O419   O     0.59037   0.60594   0.30691   0.00000  Uiso   1.00
O420   O     0.58145   0.39515   0.31295   0.00000  Uiso   1.00
O421   O     0.53062   0.38352   0.36029   0.00000  Uiso   1.00
O422   O     0.41766   0.60563   0.18820   0.00000  Uiso   1.00
O423   O     0.46786   0.61590   0.13987   0.00000  Uiso   1.00
O424   O     0.56012   0.53958   0.25000   0.00000  Uiso   1.00
O425   O     0.43988   0.46042   0.24999   0.00000  Uiso   1.00
O426   O     0.49999   0.53960   0.18513   0.00000  Uiso   1.00
O427   O     0.50001   0.46040   0.31487   0.00000  Uiso   1.00
O428   O     0.50001   0.53960   0.31487   0.00000  Uiso   1.00
O429   O     0.49999   0.46040   0.18513   0.00000  Uiso   1.00
O430   O     0.60230   0.53860   0.40687   0.00000  Uiso   1.00
C431   C     0.75421   0.50005   0.25089   0.00000  Uiso   1.00
C432   C     0.70953   0.50012   0.25144   0.00000  Uiso   1.00
C433   C     0.81019   0.35838   0.21817   0.00000  Uiso   1.00
C434   C     0.85652   0.64162   0.28178   0.00000  Uiso   1.00
C435   C     0.85625   0.35763   0.28195   0.00000  Uiso   1.00
C436   C     0.81035   0.64237   0.21807   0.00000  Uiso   1.00
C437   C     0.83168   0.50020   0.16460   0.00000  Uiso   1.00
C438   C     0.83517   0.49980   0.33542   0.00000  Uiso   1.00
C439   C     0.87374   0.49761   0.41028   0.00000  Uiso   1.00
C440   C     0.79338   0.50297   0.08974   0.00000  Uiso   1.00
C441   C     0.83639   0.49910   0.38379   0.00000  Uiso   1.00
C442   C     0.91246   0.49994   0.24911   0.00000  Uiso   1.00
C443   C     0.83064   0.50092   0.11626   0.00000  Uiso   1.00
C444   C     0.79896   0.50220   0.40311   0.00000  Uiso   1.00
C445   C     0.86809   0.49751   0.09705   0.00000  Uiso   1.00
C446   C     0.79737   0.50540   0.44935   0.00000  Uiso   1.00
C447   C     0.86983   0.49491   0.05078   0.00000  Uiso   1.00
C448   C     0.83429   0.49941   0.47670   0.00000  Uiso   1.00
C449   C     0.83293   0.50093   0.02337   0.00000  Uiso   1.00
C450   C     0.87253   0.49199   0.45721   0.00000  Uiso   1.00
C451   C     0.79469   0.50848   0.04282   0.00000  Uiso   1.00
C452   C     0.75994   0.51660   0.46828   0.00000  Uiso   1.00
C453   C     0.75913   0.52106   0.01495   0.00000  Uiso   1.00
C454   C     0.90735   0.48423   0.03182   0.00000  Uiso   1.00
C455   C     0.91279   0.50931   0.38971   0.00000  Uiso   1.00
C456   C     0.75419   0.49191   0.11031   0.00000  Uiso   1.00
C457   C     0.72248   0.52731   0.43893   0.00000  Uiso   1.00
C458   C     0.94523   0.47395   0.06085   0.00000  Uiso   1.00
C459   C     0.72329   0.54423   0.03424   0.00000  Uiso   1.00
C460   C     0.94542   0.45854   0.46729   0.00000  Uiso   1.00
C461   C     0.78346   0.38275   0.18390   0.00000  Uiso   1.00
C462   C     0.88334   0.61728   0.31598   0.00000  Uiso   1.00
C463   C     0.88004   0.38122   0.31837   0.00000  Uiso   1.00
C464   C     0.90818   0.47987   0.48523   0.00000  Uiso   1.00
C465   C     0.78585   0.61876   0.18213   0.00000  Uiso   1.00
C466   C     0.68836   0.45828   0.25475   0.00000  Uiso   1.00
C467   C     0.97831   0.54169   0.24535   0.00000  Uiso   1.00
C468   C     0.97904   0.45810   0.25288   0.00000  Uiso   1.00
C469   C     0.68762   0.54187   0.24731   0.00000  Uiso   1.00
C470   C     0.95713   0.49985   0.24864   0.00000  Uiso   1.00
Cu471  Cu    0.83333   0.54689   0.25000   0.00000  Uiso   1.00
Cu472  Cu    0.83333   0.45311   0.25000   0.00000  Uiso   1.00
H473   H     0.77123   0.50470   0.38110   0.00000  Uiso   1.00
H474   H     0.98671   0.42614   0.08419   0.00000  Uiso   1.00
H475   H     0.72844   0.56646   0.06293   0.00000  Uiso   1.00
H476   H     0.97603   0.46766   0.48094   0.00000  Uiso   1.00
H477   H     0.72700   0.40879   0.16632   0.00000  Uiso   1.00
H478   H     0.93995   0.59162   0.33349   0.00000  Uiso   1.00
H479   H     0.88343   0.39897   0.38319   0.00000  Uiso   1.00
H480   H     0.78095   0.60102   0.11729   0.00000  Uiso   1.00
H481   H     0.89564   0.49440   0.11920   0.00000  Uiso   1.00
H482   H     0.70460   0.42565   0.25890   0.00000  Uiso   1.00
H483   H     0.96207   0.57431   0.24118   0.00000  Uiso   1.00
H484   H     0.96341   0.42530   0.25500   0.00000  Uiso   1.00
H485   H     0.70323   0.57468   0.24536   0.00000  Uiso   1.00
H486   H     0.95180   0.49670   0.34204   0.00000  Uiso   1.00
H487   H     0.71514   0.50543   0.15773   0.00000  Uiso   1.00
H488   H     0.68433   0.57621   0.41119   0.00000  Uiso   1.00
N489   N     0.83333   0.61736   0.25000   0.00000  Uiso   1.00
N490   N     0.83333   0.38264   0.25000   0.00000  Uiso   1.00
O491   O     0.77321   0.53958   0.24999   0.00000  Uiso   1.00
O492   O     0.92372   0.48677   0.35136   0.00000  Uiso   1.00
O493   O     0.73121   0.46263   0.09339   0.00000  Uiso   1.00
O494   O     0.74329   0.51503   0.14835   0.00000  Uiso   1.00
O495   O     0.70284   0.49594   0.42077   0.00000  Uiso   1.00
O496   O     0.71007   0.57326   0.43202   0.00000  Uiso   1.00
O497   O     0.96209   0.50470   0.08287   0.00000  Uiso   1.00
O498   O     0.96129   0.42904   0.06290   0.00000  Uiso   1.00
O499   O     0.68792   0.53818   0.01917   0.00000  Uiso   1.00
O500   O     0.94209   0.42891   0.43863   0.00000  Uiso   1.00
O501   O     0.79522   0.38828   0.14642   0.00000  Uiso   1.00
O502   O     0.89345   0.46042   0.25000   0.00000  Uiso   1.00
O503   O     0.74315   0.39437   0.19293   0.00000  Uiso   1.00
O504   O     0.87162   0.61158   0.35345   0.00000  Uiso   1.00
O505   O     0.92370   0.60594   0.30691   0.00000  Uiso   1.00
O506   O     0.91478   0.39515   0.31295   0.00000  Uiso   1.00
O507   O     0.86395   0.38352   0.36029   0.00000  Uiso   1.00
O508   O     0.75099   0.60563   0.18820   0.00000  Uiso   1.00
O509   O     0.80119   0.61590   0.13987   0.00000  Uiso   1.00
O510   O     0.89345   0.53958   0.25000   0.00000  Uiso   1.00
O511   O     0.77321   0.46042   0.24999   0.00000  Uiso   1.00
O512   O     0.83332   0.53960   0.18513   0.00000  Uiso   1.00
O513   O     0.83334   0.46040   0.31487   0.00000  Uiso   1.00
O514   O     0.83334   0.53960   0.31487   0.00000  Uiso   1.00
O515   O     0.83332   0.46040   0.18513   0.00000  Uiso   1.00
O516   O     0.93563   0.53860   0.40687   0.00000  Uiso   1.00
C517   C     0.08754   0.83338   0.25089   0.00000  Uiso   1.00
C518   C     0.04287   0.83345   0.25144   0.00000  Uiso   1.00
C519   C     0.14353   0.69172   0.21817   0.00000  Uiso   1.00
C520   C     0.18985   0.97495   0.28178   0.00000  Uiso   1.00
C521   C     0.18958   0.69096   0.28195   0.00000  Uiso   1.00
C522   C     0.14369   0.97570   0.21807   0.00000  Uiso   1.00
C523   C     0.16501   0.83353   0.16460   0.00000  Uiso   1.00
C524   C     0.16851   0.83313   0.33542   0.00000  Uiso   1.00
C525   C     0.20708   0.83094   0.41028   0.00000  Uiso   1.00
C526   C     0.12672   0.83631   0.08974   0.00000  Uiso   1.00
C527   C     0.16973   0.83243   0.38379   0.00000  Uiso   1.00
C528   C     0.24579   0.83328   0.24911   0.00000  Uiso   1.00
C529   C     0.16397   0.83425   0.11626   0.00000  Uiso   1.00
C530   C     0.13230   0.83553   0.40311   0.00000  Uiso   1.00
C531   C     0.20142   0.83085   0.09705   0.00000  Uiso   1.00
C532   C     0.13070   0.83873   0.44935   0.00000  Uiso   1.00
C533   C     0.20316   0.82825   0.05078   0.00000  Uiso   1.00
C534   C     0.16762   0.83274   0.47670   0.00000  Uiso   1.00
C535   C     0.16626   0.83426   0.02337   0.00000  Uiso   1.00
C536   C     0.20587   0.82532   0.45721   0.00000  Uiso   1.00
C537   C     0.12802   0.84181   0.04282   0.00000  Uiso   1.00
C538   C     0.09328   0.84993   0.46828   0.00000  Uiso   1.00
C539   C     0.09246   0.85439   0.01495   0.00000  Uiso   1.00
C540   C     0.24068   0.81757   0.03182   0.00000  Uiso   1.00
C541   C     0.24612   0.84264   0.38971   0.00000  Uiso   1.00
C542   C     0.08752   0.82525   0.11031   0.00000  Uiso   1.00
C543   C     0.05581   0.86064   0.43893   0.00000  Uiso   1.00
C544   C     0.27856   0.80728   0.06085   0.00000  Uiso   1.00
C545   C     0.05662   0.87756   0.03424   0.00000  Uiso   1.00
C546   C     0.27875   0.79188   0.46729   0.00000  Uiso   1.00
C547   C     0.11679   0.71608   0.18390   0.00000  Uiso   1.00
C548   C     0.21668   0.95061   0.31598   0.00000  Uiso   1.00
C549   C     0.21337   0.71456   0.31837   0.00000  Uiso   1.00
C550   C     0.24151   0.81320   0.48523   0.00000  Uiso   1.00
C551   C     0.11918   0.95209   0.18213   0.00000  Uiso   1.00
C552   C     0.02169   0.79161   0.25475   0.00000  Uiso   1.00
C553   C     0.31164   0.87502   0.24535   0.00000  Uiso   1.00
C554   C     0.31237   0.79143   0.25288   0.00000  Uiso   1.00
C555   C     0.02095   0.87520   0.24731   0.00000  Uiso   1.00
C556   C     0.29046   0.83319   0.24864   0.00000  Uiso   1.00
Cu557  Cu    0.16667   0.88022   0.25000   0.00000  Uiso   1.00
Cu558  Cu    0.16667   0.78645   0.25000   0.00000  Uiso   1.00
H559   H     0.10457   0.83803   0.38110   0.00000  Uiso   1.00
H560   H     0.32004   0.75948   0.08419   0.00000  Uiso   1.00
H561   H     0.06177   0.89979   0.06293   0.00000  Uiso   1.00
H562   H     0.30936   0.80100   0.48094   0.00000  Uiso   1.00
H563   H     0.06034   0.74213   0.16632   0.00000  Uiso   1.00
H564   H     0.27329   0.92495   0.33349   0.00000  Uiso   1.00
H565   H     0.21677   0.73231   0.38319   0.00000  Uiso   1.00
H566   H     0.11429   0.93435   0.11729   0.00000  Uiso   1.00
H567   H     0.22898   0.82774   0.11920   0.00000  Uiso   1.00
H568   H     0.03793   0.75899   0.25890   0.00000  Uiso   1.00
H569   H     0.29540   0.90764   0.24118   0.00000  Uiso   1.00
H570   H     0.29674   0.75863   0.25500   0.00000  Uiso   1.00
H571   H     0.03657   0.90801   0.24536   0.00000  Uiso   1.00
H572   H     0.28513   0.83003   0.34204   0.00000  Uiso   1.00
H573   H     0.04848   0.83876   0.15773   0.00000  Uiso   1.00
H574   H     0.01766   0.90954   0.41119   0.00000  Uiso   1.00
N575   N     0.16667   0.95069   0.25000   0.00000  Uiso   1.00
N576   N     0.16667   0.71598   0.25000   0.00000  Uiso   1.00
O577   O     0.10655   0.87291   0.24999   0.00000  Uiso   1.00
O578   O     0.25705   0.82011   0.35136   0.00000  Uiso   1.00
O579   O     0.06454   0.79596   0.09339   0.00000  Uiso   1.00
O580   O     0.07662   0.84836   0.14835   0.00000  Uiso   1.00
O581   O     0.03618   0.82928   0.42077   0.00000  Uiso   1.00
O582   O     0.04340   0.90659   0.43202   0.00000  Uiso   1.00
O583   O     0.29542   0.83803   0.08287   0.00000  Uiso   1.00
O584   O     0.29462   0.76238   0.06290   0.00000  Uiso   1.00
O585   O     0.02126   0.87152   0.01917   0.00000  Uiso   1.00
O586   O     0.27542   0.76225   0.43863   0.00000  Uiso   1.00
O587   O     0.12856   0.72161   0.14642   0.00000  Uiso   1.00
O588   O     0.22679   0.79375   0.25000   0.00000  Uiso   1.00
O589   O     0.07648   0.72770   0.19293   0.00000  Uiso   1.00
O590   O     0.20495   0.94491   0.35345   0.00000  Uiso   1.00
O591   O     0.25704   0.93927   0.30691   0.00000  Uiso   1.00
O592   O     0.24812   0.72848   0.31295   0.00000  Uiso   1.00
O593   O     0.19728   0.71685   0.36029   0.00000  Uiso   1.00
O594   O     0.08432   0.93897   0.18820   0.00000  Uiso   1.00
O595   O     0.13452   0.94923   0.13987   0.00000  Uiso   1.00
O596   O     0.22679   0.87291   0.25000   0.00000  Uiso   1.00
O597   O     0.10655   0.79375   0.24999   0.00000  Uiso   1.00
O598   O     0.16666   0.87293   0.18513   0.00000  Uiso   1.00
O599   O     0.16668   0.79373   0.31487   0.00000  Uiso   1.00
O600   O     0.16668   0.87293   0.31487   0.00000  Uiso   1.00
O601   O     0.16666   0.79373   0.18513   0.00000  Uiso   1.00
O602   O     0.26897   0.87193   0.40687   0.00000  Uiso   1.00
C603   C     0.42087   0.83338   0.25089   0.00000  Uiso   1.00
C604   C     0.37620   0.83345   0.25144   0.00000  Uiso   1.00
C605   C     0.47686   0.69172   0.21817   0.00000  Uiso   1.00
C606   C     0.52318   0.97495   0.28178   0.00000  Uiso   1.00
C607   C     0.52292   0.69096   0.28195   0.00000  Uiso   1.00
C608   C     0.47702   0.97570   0.21807   0.00000  Uiso   1.00
C609   C     0.49835   0.83353   0.16460   0.00000  Uiso   1.00
C610   C     0.50184   0.83313   0.33542   0.00000  Uiso   1.00
C611   C     0.54041   0.83094   0.41028   0.00000  Uiso   1.00
C612   C     0.46005   0.83631   0.08974   0.00000  Uiso   1.00
C613   C     0.50306   0.83243   0.38379   0.00000  Uiso   1.00
C614   C     0.57913   0.83328   0.24911   0.00000  Uiso   1.00
C615   C     0.49730   0.83425   0.11626   0.00000  Uiso   1.00
C616   C     0.46563   0.83553   0.40311   0.00000  Uiso   1.00
C617   C     0.53475   0.83085   0.09705   0.00000  Uiso   1.00
C618   C     0.46403   0.83873   0.44935   0.00000  Uiso   1.00
C619   C     0.53650   0.82825   0.05078   0.00000  Uiso   1.00
C620   C     0.50096   0.83274   0.47670   0.00000  Uiso   1.00
C621   C     0.49960   0.83426   0.02337   0.00000  Uiso   1.00
C622   C     0.53920   0.82532   0.45721   0.00000  Uiso   1.00
C623   C     0.46136   0.84181   0.04282   0.00000  Uiso   1.00
C624   C     0.42661   0.84993   0.46828   0.00000  Uiso   1.00
C625   C     0.42580   0.85439   0.01495   0.00000  Uiso   1.00
C626   C     0.57402   0.81757   0.03182   0.00000  Uiso   1.00
C627   C     0.57946   0.84264   0.38971   0.00000  Uiso   1.00
C628   C     0.42086   0.82525   0.11031   0.00000  Uiso   1.00
C629   C     0.38915   0.86064   0.43893   0.00000  Uiso   1.00
C630   C     0.61190   0.80728   0.06085   0.00000  Uiso   1.00
C631   C     0.38995   0.87756   0.03424   0.00000  Uiso   1.00
C632   C     0.61209   0.79188   0.46729   0.00000  Uiso   1.00
C633   C     0.45013   0.71608   0.18390   0.00000  Uiso   1.00
C634   C     0.55001   0.95061   0.31598   0.00000  Uiso   1.00
C635   C     0.54671   0.71456   0.31837   0.00000  Uiso   1.00
C636   C     0.57484   0.81320   0.48523   0.00000  Uiso   1.00
C637   C     0.45252   0.95209   0.18213   0.00000  Uiso   1.00
C638   C     0.35502   0.79161   0.25475   0.00000  Uiso   1.00
C639   C     0.64498   0.87502   0.24535   0.00000  Uiso   1.00
C640   C     0.64571   0.79143   0.25288   0.00000  Uiso   1.00
C641   C     0.35429   0.87520   0.24731   0.00000  Uiso   1.00
C642   C     0.62380   0.83319   0.24864   0.00000  Uiso   1.00
Cu643  Cu    0.50000   0.88022   0.25000   0.00000  Uiso   1.00
Cu644  Cu    0.50000   0.78645   0.25000   0.00000  Uiso   1.00
H645   H     0.43790   0.83803   0.38110   0.00000  Uiso   1.00
H646   H     0.65338   0.75948   0.08419   0.00000  Uiso   1.00
H647   H     0.39511   0.89979   0.06293   0.00000  Uiso   1.00
H648   H     0.64269   0.80100   0.48094   0.00000  Uiso   1.00
H649   H     0.39367   0.74213   0.16632   0.00000  Uiso   1.00
H650   H     0.60662   0.92495   0.33349   0.00000  Uiso   1.00
H651   H     0.55010   0.73231   0.38319   0.00000  Uiso   1.00
H652   H     0.44762   0.93435   0.11729   0.00000  Uiso   1.00
H653   H     0.56231   0.82774   0.11920   0.00000  Uiso   1.00
H654   H     0.37127   0.75899   0.25890   0.00000  Uiso   1.00
H655   H     0.62874   0.90764   0.24118   0.00000  Uiso   1.00
H656   H     0.63007   0.75863   0.25500   0.00000  Uiso   1.00
H657   H     0.36990   0.90801   0.24536   0.00000  Uiso   1.00
H658   H     0.61846   0.83003   0.34204   0.00000  Uiso   1.00
H659   H     0.38181   0.83876   0.15773   0.00000  Uiso   1.00
H660   H     0.35099   0.90954   0.41119   0.00000  Uiso   1.00
N661   N     0.50000   0.95069   0.25000   0.00000  Uiso   1.00
N662   N     0.50000   0.71598   0.25000   0.00000  Uiso   1.00
O663   O     0.43988   0.87291   0.24999   0.00000  Uiso   1.00
O664   O     0.59039   0.82011   0.35136   0.00000  Uiso   1.00
O665   O     0.39788   0.79596   0.09339   0.00000  Uiso   1.00
O666   O     0.40996   0.84836   0.14835   0.00000  Uiso   1.00
O667   O     0.36951   0.82928   0.42077   0.00000  Uiso   1.00
O668   O     0.37674   0.90659   0.43202   0.00000  Uiso   1.00
O669   O     0.62875   0.83803   0.08287   0.00000  Uiso   1.00
O670   O     0.62796   0.76238   0.06290   0.00000  Uiso   1.00
O671   O     0.35459   0.87152   0.01917   0.00000  Uiso   1.00
O672   O     0.60875   0.76225   0.43863   0.00000  Uiso   1.00
O673   O     0.46189   0.72161   0.14642   0.00000  Uiso   1.00
O674   O     0.56012   0.79375   0.25000   0.00000  Uiso   1.00
O675   O     0.40982   0.72770   0.19293   0.00000  Uiso   1.00
O676   O     0.53828   0.94491   0.35345   0.00000  Uiso   1.00
O677   O     0.59037   0.93927   0.30691   0.00000  Uiso   1.00
O678   O     0.58145   0.72848   0.31295   0.00000  Uiso   1.00
O679   O     0.53062   0.71685   0.36029   0.00000  Uiso   1.00
O680   O     0.41766   0.93897   0.18820   0.00000  Uiso   1.00
O681   O     0.46786   0.94923   0.13987   0.00000  Uiso   1.00
O682   O     0.56012   0.87291   0.25000   0.00000  Uiso   1.00
O683   O     0.43988   0.79375   0.24999   0.00000  Uiso   1.00
O684   O     0.49999   0.87293   0.18513   0.00000  Uiso   1.00
O685   O     0.50001   0.79373   0.31487   0.00000  Uiso   1.00
O686   O     0.50001   0.87293   0.31487   0.00000  Uiso   1.00
O687   O     0.49999   0.79373   0.18513   0.00000  Uiso   1.00
O688   O     0.60230   0.87193   0.40687   0.00000  Uiso   1.00
C689   C     0.75421   0.83338   0.25089   0.00000  Uiso   1.00
C690   C     0.70953   0.83345   0.25144   0.00000  Uiso   1.00
C691   C     0.81019   0.69172   0.21817   0.00000  Uiso   1.00
C692   C     0.85652   0.97495   0.28178   0.00000  Uiso   1.00
C693   C     0.85625   0.69096   0.28195   0.00000  Uiso   1.00
C694   C     0.81035   0.97570   0.21807   0.00000  Uiso   1.00
C695   C     0.83168   0.83353   0.16460   0.00000  Uiso   1.00
C696   C     0.83517   0.83313   0.33542   0.00000  Uiso   1.00
C697   C     0.87374   0.83094   0.41028   0.00000  Uiso   1.00
C698   C     0.79338   0.83631   0.08974   0.00000  Uiso   1.00
C699   C     0.83639   0.83243   0.38379   0.00000  Uiso   1.00
C700   C     0.91246   0.83328   0.24911   0.00000  Uiso   1.00
C701   C     0.83064   0.83425   0.11626   0.00000  Uiso   1.00
C702   C     0.79896   0.83553   0.40311   0.00000  Uiso   1.00
C703   C     0.86809   0.83085   0.09705   0.00000  Uiso   1.00
C704   C     0.79737   0.83873   0.44935   0.00000  Uiso   1.00
C705   C     0.86983   0.82825   0.05078   0.00000  Uiso   1.00
C706   C     0.83429   0.83274   0.47670   0.00000  Uiso   1.00
C707   C     0.83293   0.83426   0.02337   0.00000  Uiso   1.00
C708   C     0.87253   0.82532   0.45721   0.00000  Uiso   1.00
C709   C     0.79469   0.84181   0.04282   0.00000  Uiso   1.00
C710   C     0.75994   0.84993   0.46828   0.00000  Uiso   1.00
C711   C     0.75913   0.85439   0.01495   0.00000  Uiso   1.00
C712   C     0.90735   0.81757   0.03182   0.00000  Uiso   1.00
C713   C     0.91279   0.84264   0.38971   0.00000  Uiso   1.00
C714   C     0.75419   0.82525   0.11031   0.00000  Uiso   1.00
C715   C     0.72248   0.86064   0.43893   0.00000  Uiso   1.00
C716   C     0.94523   0.80728   0.06085   0.00000  Uiso   1.00
C717   C     0.72329   0.87756   0.03424   0.00000  Uiso   1.00
C718   C     0.94542   0.79188   0.46729   0.00000  Uiso   1.00
C719   C     0.78346   0.71608   0.18390   0.00000  Uiso   1.00
C720   C     0.88334   0.95061   0.31598   0.00000  Uiso   1.00
C721   C     0.88004   0.71456   0.31837   0.00000  Uiso   1.00
C722   C     0.90818   0.81320   0.48523   0.00000  Uiso   1.00
C723   C     0.78585   0.95209   0.18213   0.00000  Uiso   1.00
C724   C     0.68836   0.79161   0.25475   0.00000  Uiso   1.00
C725   C     0.97831   0.87502   0.24535   0.00000  Uiso   1.00
C726   C     0.97904   0.79143   0.25288   0.00000  Uiso   1.00
C727   C     0.68762   0.87520   0.24731   0.00000  Uiso   1.00
C728   C     0.95713   0.83319   0.24864   0.00000  Uiso   1.00
Cu729  Cu    0.83333   0.88022   0.25000   0.00000  Uiso   1.00
Cu730  Cu    0.83333   0.78645   0.25000   0.00000  Uiso   1.00
H731   H     0.77123   0.83803   0.38110   0.00000  Uiso   1.00
H732   H     0.98671   0.75948   0.08419   0.00000  Uiso   1.00
H733   H     0.72844   0.89979   0.06293   0.00000  Uiso   1.00
H734   H     0.97603   0.80100   0.48094   0.00000  Uiso   1.00
H735   H     0.72700   0.74213   0.16632   0.00000  Uiso   1.00
H736   H     0.93995   0.92495   0.33349   0.00000  Uiso   1.00
H737   H     0.88343   0.73231   0.38319   0.00000  Uiso   1.00
H738   H     0.78095   0.93435   0.11729   0.00000  Uiso   1.00
H739   H     0.89564   0.82774   0.11920   0.00000  Uiso   1.00
H740   H     0.70460   0.75899   0.25890   0.00000  Uiso   1.00
H741   H     0.96207   0.90764   0.24118   0.00000  Uiso   1.00
H742   H     0.96341   0.75863   0.25500   0.00000  Uiso   1.00
H743   H     0.70323   0.90801   0.24536   0.00000  Uiso   1.00
H744   H     0.95180   0.83003   0.34204   0.00000  Uiso   1.00
H745   H     0.71514   0.83876   0.15773   0.00000  Uiso   1.00
H746   H     0.68433   0.90954   0.41119   0.00000  Uiso   1.00
N747   N     0.83333   0.95069   0.25000   0.00000  Uiso   1.00
N748   N     0.83333   0.71598   0.25000   0.00000  Uiso   1.00
O749   O     0.77321   0.87291   0.24999   0.00000  Uiso   1.00
O750   O     0.92372   0.82011   0.35136   0.00000  Uiso   1.00
O751   O     0.73121   0.79596   0.09339   0.00000  Uiso   1.00
O752   O     0.74329   0.84836   0.14835   0.00000  Uiso   1.00
O753   O     0.70284   0.82928   0.42077   0.00000  Uiso   1.00
O754   O     0.71007   0.90659   0.43202   0.00000  Uiso   1.00
O755   O     0.96209   0.83803   0.08287   0.00000  Uiso   1.00
O756   O     0.96129   0.76238   0.06290   0.00000  Uiso   1.00
O757   O     0.68792   0.87152   0.01917   0.00000  Uiso   1.00
O758   O     0.94209   0.76225   0.43863   0.00000  Uiso   1.00
O759   O     0.79522   0.72161   0.14642   0.00000  Uiso   1.00
O760   O     0.89345   0.79375   0.25000   0.00000  Uiso   1.00
O761   O     0.74315   0.72770   0.19293   0.00000  Uiso   1.00
O762   O     0.87162   0.94491   0.35345   0.00000  Uiso   1.00
O763   O     0.92370   0.93927   0.30691   0.00000  Uiso   1.00
O764   O     0.91478   0.72848   0.31295   0.00000  Uiso   1.00
O765   O     0.86395   0.71685   0.36029   0.00000  Uiso   1.00
O766   O     0.75099   0.93897   0.18820   0.00000  Uiso   1.00
O767   O     0.80119   0.94923   0.13987   0.00000  Uiso   1.00
O768   O     0.89345   0.87291   0.25000   0.00000  Uiso   1.00
O769   O     0.77321   0.79375   0.24999   0.00000  Uiso   1.00
O770   O     0.83332   0.87293   0.18513   0.00000  Uiso   1.00
O771   O     0.83334   0.79373   0.31487   0.00000  Uiso   1.00
O772   O     0.83334   0.87293   0.31487   0.00000  Uiso   1.00
O773   O     0.83332   0.79373   0.18513   0.00000  Uiso   1.00
O774   O     0.93563   0.87193   0.40687   0.00000  Uiso   1.00
C775   C     0.08754   0.16672   0.75089   0.00000  Uiso   1.00
C776   C     0.04287   0.16678   0.75144   0.00000  Uiso   1.00
C777   C     0.14353   0.02505   0.71817   0.00000  Uiso   1.00
C778   C     0.18985   0.30829   0.78178   0.00000  Uiso   1.00
C779   C     0.18958   0.02429   0.78195   0.00000  Uiso   1.00
C780   C     0.14369   0.30903   0.71807   0.00000  Uiso   1.00
C781   C     0.16501   0.16686   0.66460   0.00000  Uiso   1.00
C782   C     0.16851   0.16647   0.83542   0.00000  Uiso   1.00
C783   C     0.20708   0.16427   0.91028   0.00000  Uiso   1.00
C784   C     0.12672   0.16964   0.58974   0.00000  Uiso   1.00
C785   C     0.16973   0.16577   0.88379   0.00000  Uiso   1.00
C786   C     0.24579   0.16661   0.74911   0.00000  Uiso   1.00
C787   C     0.16397   0.16758   0.61626   0.00000  Uiso   1.00
C788   C     0.13230   0.16887   0.90311   0.00000  Uiso   1.00
C789   C     0.20142   0.16418   0.59705   0.00000  Uiso   1.00
C790   C     0.13070   0.17206   0.94935   0.00000  Uiso   1.00
C791   C     0.20316   0.16158   0.55078   0.00000  Uiso   1.00
C792   C     0.16762   0.16608   0.97670   0.00000  Uiso   1.00
C793   C     0.16626   0.16760   0.52337   0.00000  Uiso   1.00
C794   C     0.20587   0.15865   0.95721   0.00000  Uiso   1.00
C795   C     0.12802   0.17515   0.54282   0.00000  Uiso   1.00
C796   C     0.09328   0.18326   0.96828   0.00000  Uiso   1.00
C797   C     0.09246   0.18772   0.51495   0.00000  Uiso   1.00
C798   C     0.24068   0.15090   0.53182   0.00000  Uiso   1.00
C799   C     0.24612   0.17597   0.88971   0.00000  Uiso   1.00
C800   C     0.08752   0.15858   0.61031   0.00000  Uiso   1.00
C801   C     0.05581   0.19398   0.93893   0.00000  Uiso   1.00
C802   C     0.27856   0.14062   0.56085   0.00000  Uiso   1.00
C803   C     0.05662   0.21090   0.53424   0.00000  Uiso   1.00
C804   C     0.27875   0.12521   0.96729   0.00000  Uiso   1.00
C805   C     0.11679   0.04941   0.68390   0.00000  Uiso   1.00
C806   C     0.21668   0.28394   0.81598   0.00000  Uiso   1.00
C807   C     0.21337   0.04789   0.81837   0.00000  Uiso   1.00
C808   C     0.24151   0.14653   0.98523   0.00000  Uiso   1.00
C809   C     0.11918   0.28542   0.68213   0.00000  Uiso   1.00
C810   C     0.02169   0.12494   0.75475   0.00000  Uiso   1.00
C811   C     0.31164   0.20835   0.74535   0.00000  Uiso   1.00
C812   C     0.31237   0.12476   0.75288   0.00000  Uiso   1.00
C813   C     0.02095   0.20854   0.74731   0.00000  Uiso   1.00
C814   C     0.29046   0.16652   0.74864   0.00000  Uiso   1.00
Cu815  Cu    0.16667   0.21355   0.75000   0.00000  Uiso   1.00
Cu816  Cu    0.16667   0.11978   0.75000   0.00000  Uiso   1.00
H817   H     0.10457   0.17136   0.88110   0.00000  Uiso   1.00
H818   H     0.32004   0.09281   0.58419   0.00000  Uiso   1.00
H819   H     0.06177   0.23312   0.56293   0.00000  Uiso   1.00
H820   H     0.30936   0.13433   0.98094   0.00000  Uiso   1.00
H821   H     0.06034   0.07546   0.66632   0.00000  Uiso   1.00
H822   H     0.27329   0.25828   0.83349   0.00000  Uiso   1.00
H823   H     0.21677   0.06564   0.88319   0.00000  Uiso   1.00
H824   H     0.11429   0.26769   0.61729   0.00000  Uiso   1.00
H825   H     0.22898   0.16107   0.61920   0.00000  Uiso   1.00
H826   H     0.03793   0.09232   0.75890   0.00000  Uiso   1.00
H827   H     0.29540   0.24098   0.74118   0.00000  Uiso   1.00
H828   H     0.29674   0.09197   0.75500   0.00000  Uiso   1.00
H829   H     0.03657   0.24135   0.74536   0.00000  Uiso   1.00
H830   H     0.28513   0.16336   0.84204   0.00000  Uiso   1.00
H831   H     0.04848   0.17209   0.65773   0.00000  Uiso   1.00
H832   H     0.01766   0.24288   0.91119   0.00000  Uiso   1.00
N833   N     0.16667   0.28402   0.75000   0.00000  Uiso   1.00
N834   N     0.16667   0.04931   0.75000   0.00000  Uiso   1.00
O835   O     0.10655   0.20625   0.74999   0.00000  Uiso   1.00
O836   O     0.25705   0.15344   0.85136   0.00000  Uiso   1.00
O837   O     0.06454   0.12930   0.59339   0.00000  Uiso   1.00
O838   O     0.07662   0.18169   0.64835   0.00000  Uiso   1.00
O839   O     0.03618   0.16261   0.92077   0.00000  Uiso   1.00
O840   O     0.04340   0.23992   0.93202   0.00000  Uiso   1.00
O841   O     0.29542   0.17136   0.58287   0.00000  Uiso   1.00
O842   O     0.29462   0.09571   0.56290   0.00000  Uiso   1.00
O843   O     0.02126   0.20485   0.51917   0.00000  Uiso   1.00
O844   O     0.27542   0.09558   0.93863   0.00000  Uiso   1.00
O845   O     0.12856   0.05494   0.64642   0.00000  Uiso   1.00
O846   O     0.22679   0.12709   0.75000   0.00000  Uiso   1.00
O847   O     0.07648   0.06103   0.69293   0.00000  Uiso   1.00
O848   O     0.20495   0.27825   0.85345   0.00000  Uiso   1.00
O849   O     0.25704   0.27261   0.80691   0.00000  Uiso   1.00
O850   O     0.24812   0.06181   0.81295   0.00000  Uiso   1.00
O851   O     0.19728   0.05018   0.86029   0.00000  Uiso   1.00
O852   O     0.08432   0.27230   0.68820   0.00000  Uiso   1.00
O853   O     0.13452   0.28256   0.63987   0.00000  Uiso   1.00
O854   O     0.22679   0.20625   0.75000   0.00000  Uiso   1.00
O855   O     0.10655   0.12709   0.74999   0.00000  Uiso   1.00
O856   O     0.16666   0.20627   0.68513   0.00000  Uiso   1.00
O857   O     0.16668   0.12707   0.81487   0.00000  Uiso   1.00
O858   O     0.16668   0.20627   0.81487   0.00000  Uiso   1.00
O859   O     0.16666   0.12707   0.68513   0.00000  Uiso   1.00
O860   O     0.26897   0.20526   0.90687   0.00000  Uiso   1.00
C861   C     0.42087   0.16672   0.75089   0.00000  Uiso   1.00
C862   C     0.37620   0.16678   0.75144   0.00000  Uiso   1.00
C863   C     0.47686   0.02505   0.71817   0.00000  Uiso   1.00
C864   C     0.52318   0.30829   0.78178   0.00000  Uiso   1.00
C865   C     0.52292   0.02429   0.78195   0.00000  Uiso   1.00
C866   C     0.47702   0.30903   0.71807   0.00000  Uiso   1.00
C867   C     0.49835   0.16686   0.66460   0.00000  Uiso   1.00
C868   C     0.50184   0.16647   0.83542   0.00000  Uiso   1.00
C869   C     0.54041   0.16427   0.91028   0.00000  Uiso   1.00
C870   C     0.46005   0.16964   0.58974   0.00000  Uiso   1.00
C871   C     0.50306   0.16577   0.88379   0.00000  Uiso   1.00
C872   C     0.57913   0.16661   0.74911   0.00000  Uiso   1.00
C873   C     0.49730   0.16758   0.61626   0.00000  Uiso   1.00
C874   C     0.46563   0.16887   0.90311   0.00000  Uiso   1.00
C875   C     0.53475   0.16418   0.59705   0.00000  Uiso   1.00
C876   C     0.46403   0.17206   0.94935   0.00000  Uiso   1.00
C877   C     0.53650   0.16158   0.55078   0.00000  Uiso   1.00
C878   C     0.50096   0.16608   0.97670   0.00000  Uiso   1.00
C879   C     0.49960   0.16760   0.52337   0.00000  Uiso   1.00
C880   C     0.53920   0.15865   0.95721   0.00000  Uiso   1.00
C881   C     0.46136   0.17515   0.54282   0.00000  Uiso   1.00
C882   C     0.42661   0.18326   0.96828   0.00000  Uiso   1.00
C883   C     0.42580   0.18772   0.51495   0.00000  Uiso   1.00
C884   C     0.57402   0.15090   0.53182   0.00000  Uiso   1.00
C885   C     0.57946   0.17597   0.88971   0.00000  Uiso   1.00
C886   C     0.42086   0.15858   0.61031   0.00000  Uiso   1.00
C887   C     0.38915   0.19398   0.93893   0.00000  Uiso   1.00
C888   C     0.61190   0.14062   0.56085   0.00000  Uiso   1.00
C889   C     0.38995   0.21090   0.53424   0.00000  Uiso   1.00
C890   C     0.61209   0.12521   0.96729   0.00000  Uiso   1.00
C891   C     0.45013   0.04941   0.68390   0.00000  Uiso   1.00
C892   C     0.55001   0.28394   0.81598   0.00000  Uiso   1.00
C893   C     0.54671   0.04789   0.81837   0.00000  Uiso   1.00
C894   C     0.57484   0.14653   0.98523   0.00000  Uiso   1.00
C895   C     0.45252   0.28542   0.68213   0.00000  Uiso   1.00
C896   C     0.35502   0.12494   0.75475   0.00000  Uiso   1.00
C897   C     0.64498   0.20835   0.74535   0.00000  Uiso   1.00
C898   C     0.64571   0.12476   0.75288   0.00000  Uiso   1.00
C899   C     0.35429   0.20854   0.74731   0.00000  Uiso   1.00
C900   C     0.62380   0.16652   0.74864   0.00000  Uiso   1.00
Cu901  Cu    0.50000   0.21355   0.75000   0.00000  Uiso   1.00
Cu902  Cu    0.50000   0.11978   0.75000   0.00000  Uiso   1.00
H903   H     0.43790   0.17136   0.88110   0.00000  Uiso   1.00
H904   H     0.65338   0.09281   0.58419   0.00000  Uiso   1.00
H905   H     0.39511   0.23312   0.56293   0.00000  Uiso   1.00
H906   H     0.64269   0.13433   0.98094   0.00000  Uiso   1.00
H907   H     0.39367   0.07546   0.66632   0.00000  Uiso   1.00
H908   H     0.60662   0.25828   0.83349   0.00000  Uiso   1.00
H909   H     0.55010   0.06564   0.88319   0.00000  Uiso   1.00
H910   H     0.44762   0.26769   0.61729   0.00000  Uiso   1.00
H911   H     0.56231   0.16107   0.61920   0.00000  Uiso   1.00
H912   H     0.37127   0.09232   0.75890   0.00000  Uiso   1.00
H913   H     0.62874   0.24098   0.74118   0.00000  Uiso   1.00
H914   H     0.63007   0.09197   0.75500   0.00000  Uiso   1.00
H915   H     0.36990   0.24135   0.74536   0.00000  Uiso   1.00
H916   H     0.61846   0.16336   0.84204   0.00000  Uiso   1.00
H917   H     0.38181   0.17209   0.65773   0.00000  Uiso   1.00
H918   H     0.35099   0.24288   0.91119   0.00000  Uiso   1.00
N919   N     0.50000   0.28402   0.75000   0.00000  Uiso   1.00
N920   N     0.50000   0.04931   0.75000   0.00000  Uiso   1.00
O921   O     0.43988   0.20625   0.74999   0.00000  Uiso   1.00
O922   O     0.59039   0.15344   0.85136   0.00000  Uiso   1.00
O923   O     0.39788   0.12930   0.59339   0.00000  Uiso   1.00
O924   O     0.40996   0.18169   0.64835   0.00000  Uiso   1.00
O925   O     0.36951   0.16261   0.92077   0.00000  Uiso   1.00
O926   O     0.37674   0.23992   0.93202   0.00000  Uiso   1.00
O927   O     0.62875   0.17136   0.58287   0.00000  Uiso   1.00
O928   O     0.62796   0.09571   0.56290   0.00000  Uiso   1.00
O929   O     0.35459   0.20485   0.51917   0.00000  Uiso   1.00
O930   O     0.60875   0.09558   0.93863   0.00000  Uiso   1.00
O931   O     0.46189   0.05494   0.64642   0.00000  Uiso   1.00
O932   O     0.56012   0.12709   0.75000   0.00000  Uiso   1.00
O933   O     0.40982   0.06103   0.69293   0.00000  Uiso   1.00
O934   O     0.53828   0.27825   0.85345   0.00000  Uiso   1.00
O935   O     0.59037   0.27261   0.80691   0.00000  Uiso   1.00
O936   O     0.58145   0.06181   0.81295   0.00000  Uiso   1.00
O937   O     0.53062   0.05018   0.86029   0.00000  Uiso   1.00
O938   O     0.41766   0.27230   0.68820   0.00000  Uiso   1.00
O939   O     0.46786   0.28256   0.63987   0.00000  Uiso   1.00
O940   O     0.56012   0.20625   0.75000   0.00000  Uiso   1.00
O941   O     0.43988   0.12709   0.74999   0.00000  Uiso   1.00
O942   O     0.49999   0.20627   0.68513   0.00000  Uiso   1.00
O943   O     0.50001   0.12707   0.81487   0.00000  Uiso   1.00
O944   O     0.50001   0.20627   0.81487   0.00000  Uiso   1.00
O945   O     0.49999   0.12707   0.68513   0.00000  Uiso   1.00
O946   O     0.60230   0.20526   0.90687   0.00000  Uiso   1.00
C947   C     0.75421   0.16672   0.75089   0.00000  Uiso   1.00
C948   C     0.70953   0.16678   0.75144   0.00000  Uiso   1.00
C949   C     0.81019   0.02505   0.71817   0.00000  Uiso   1.00
C950   C     0.85652   0.30829   0.78178   0.00000  Uiso   1.00
C951   C     0.85625   0.02429   0.78195   0.00000  Uiso   1.00
C952   C     0.81035   0.30903   0.71807   0.00000  Uiso   1.00
C953   C     0.83168   0.16686   0.66460   0.00000  Uiso   1.00
C954   C     0.83517   0.16647   0.83542   0.00000  Uiso   1.00
C955   C     0.87374   0.16427   0.91028   0.00000  Uiso   1.00
C956   C     0.79338   0.16964   0.58974   0.00000  Uiso   1.00
C957   C     0.83639   0.16577   0.88379   0.00000  Uiso   1.00
C958   C     0.91246   0.16661   0.74911   0.00000  Uiso   1.00
C959   C     0.83064   0.16758   0.61626   0.00000  Uiso   1.00
C960   C     0.79896   0.16887   0.90311   0.00000  Uiso   1.00
C961   C     0.86809   0.16418   0.59705   0.00000  Uiso   1.00
C962   C     0.79737   0.17206   0.94935   0.00000  Uiso   1.00
C963   C     0.86983   0.16158   0.55078   0.00000  Uiso   1.00
C964   C     0.83429   0.16608   0.97670   0.00000  Uiso   1.00
C965   C     0.83293   0.16760   0.52337   0.00000  Uiso   1.00
C966   C     0.87253   0.15865   0.95721   0.00000  Uiso   1.00
C967   C     0.79469   0.17515   0.54282   0.00000  Uiso   1.00
C968   C     0.75994   0.18326   0.96828   0.00000  Uiso   1.00
C969   C     0.75913   0.18772   0.51495   0.00000  Uiso   1.00
C970   C     0.90735   0.15090   0.53182   0.00000  Uiso   1.00
C971   C     0.91279   0.17597   0.88971   0.00000  Uiso   1.00
C972   C     0.75419   0.15858   0.61031   0.00000  Uiso   1.00
C973   C     0.72248   0.19398   0.93893   0.00000  Uiso   1.00
C974   C     0.94523   0.14062   0.56085   0.00000  Uiso   1.00
C975   C     0.72329   0.21090   0.53424   0.00000  Uiso   1.00
C976   C     0.94542   0.12521   0.96729   0.00000  Uiso   1.00
C977   C     0.78346   0.04941   0.68390   0.00000  Uiso   1.00
C978   C     0.88334   0.28394   0.81598   0.00000  Uiso   1.00
C979   C     0.88004   0.04789   0.81837   0.00000  Uiso   1.00
C980   C     0.90818   0.14653   0.98523   0.00000  Uiso   1.00
C981   C     0.78585   0.28542   0.68213   0.00000  Uiso   1.00
C982   C     0.68836   0.12494   0.75475   0.00000  Uiso   1.00
C983   C     0.97831   0.20835   0.74535   0.00000  Uiso   1.00
C984   C     0.97904   0.12476   0.75288   0.00000  Uiso   1.00
C985   C     0.68762   0.20854   0.74731   0.00000  Uiso   1.00
C986   C     0.95713   0.16652   0.74864   0.00000  Uiso   1.00
Cu987  Cu    0.83333   0.21355   0.75000   0.00000  Uiso   1.00
Cu988  Cu    0.83333   0.11978   0.75000   0.00000  Uiso   1.00
H989   H     0.77123   0.17136   0.88110   0.00000  Uiso   1.00
H990   H     0.98671   0.09281   0.58419   0.00000  Uiso   1.00
H991   H     0.72844   0.23312   0.56293   0.00000  Uiso   1.00
H992   H     0.97603   0.13433   0.98094   0.00000  Uiso   1.00
H993   H     0.72700   0.07546   0.66632   0.00000  Uiso   1.00
H994   H     0.93995   0.25828   0.83349   0.00000  Uiso   1.00
H995   H     0.88343   0.06564   0.88319   0.00000  Uiso   1.00
H996   H     0.78095   0.26769   0.61729   0.00000  Uiso   1.00
H997   H     0.89564   0.16107   0.61920   0.00000  Uiso   1.00
H998   H     0.70460   0.09232   0.75890   0.00000  Uiso   1.00
H999   H     0.96207   0.24098   0.74118   0.00000  Uiso   1.00
H1000  H     0.96341   0.09197   0.75500   0.00000  Uiso   1.00
H1001  H     0.70323   0.24135   0.74536   0.00000  Uiso   1.00
H1002  H     0.95180   0.16336   0.84204   0.00000  Uiso   1.00
H1003  H     0.71514   0.17209   0.65773   0.00000  Uiso   1.00
H1004  H     0.68433   0.24288   0.91119   0.00000  Uiso   1.00
N1005  N     0.83333   0.28402   0.75000   0.00000  Uiso   1.00
N1006  N     0.83333   0.04931   0.75000   0.00000  Uiso   1.00
O1007  O     0.77321   0.20625   0.74999   0.00000  Uiso   1.00
O1008  O     0.92372   0.15344   0.85136   0.00000  Uiso   1.00
O1009  O     0.73121   0.12930   0.59339   0.00000  Uiso   1.00
O1010  O     0.74329   0.18169   0.64835   0.00000  Uiso   1.00
O1011  O     0.70284   0.16261   0.92077   0.00000  Uiso   1.00
O1012  O     0.71007   0.23992   0.93202   0.00000  Uiso   1.00
O1013  O     0.96209   0.17136   0.58287   0.00000  Uiso   1.00
O1014  O     0.96129   0.09571   0.56290   0.00000  Uiso   1.00
O1015  O     0.68792   0.20485   0.51917   0.00000  Uiso   1.00
O1016  O     0.94209   0.09558   0.93863   0.00000  Uiso   1.00
O1017  O     0.79522   0.05494   0.64642   0.00000  Uiso   1.00
O1018  O     0.89345   0.12709   0.75000   0.00000  Uiso   1.00
O1019  O     0.74315   0.06103   0.69293   0.00000  Uiso   1.00
O1020  O     0.87162   0.27825   0.85345   0.00000  Uiso   1.00
O1021  O     0.92370   0.27261   0.80691   0.00000  Uiso   1.00
O1022  O     0.91478   0.06181   0.81295   0.00000  Uiso   1.00
O1023  O     0.86395   0.05018   0.86029   0.00000  Uiso   1.00
O1024  O     0.75099   0.27230   0.68820   0.00000  Uiso   1.00
O1025  O     0.80119   0.28256   0.63987   0.00000  Uiso   1.00
O1026  O     0.89345   0.20625   0.75000   0.00000  Uiso   1.00
O1027  O     0.77321   0.12709   0.74999   0.00000  Uiso   1.00
O1028  O     0.83332   0.20627   0.68513   0.00000  Uiso   1.00
O1029  O     0.83334   0.12707   0.81487   0.00000  Uiso   1.00
O1030  O     0.83334   0.20627   0.81487   0.00000  Uiso   1.00
O1031  O     0.83332   0.12707   0.68513   0.00000  Uiso   1.00
O1032  O     0.93563   0.20526   0.90687   0.00000  Uiso   1.00
C1033  C     0.08754   0.50005   0.75089   0.00000  Uiso   1.00
C1034  C     0.04287   0.50012   0.75144   0.00000  Uiso   1.00
C1035  C     0.14353   0.35838   0.71817   0.00000  Uiso   1.00
C1036  C     0.18985   0.64162   0.78178   0.00000  Uiso   1.00
C1037  C     0.18958   0.35763   0.78195   0.00000  Uiso   1.00
C1038  C     0.14369   0.64237   0.71807   0.00000  Uiso   1.00
C1039  C     0.16501   0.50020   0.66460   0.00000  Uiso   1.00
C1040  C     0.16851   0.49980   0.83542   0.00000  Uiso   1.00
C1041  C     0.20708   0.49761   0.91028   0.00000  Uiso   1.00
C1042  C     0.12672   0.50297   0.58974   0.00000  Uiso   1.00
C1043  C     0.16973   0.49910   0.88379   0.00000  Uiso   1.00
C1044  C     0.24579   0.49994   0.74911   0.00000  Uiso   1.00
C1045  C     0.16397   0.50092   0.61626   0.00000  Uiso   1.00
C1046  C     0.13230   0.50220   0.90311   0.00000  Uiso   1.00
C1047  C     0.20142   0.49751   0.59705   0.00000  Uiso   1.00
C1048  C     0.13070   0.50540   0.94935   0.00000  Uiso   1.00
C1049  C     0.20316   0.49491   0.55078   0.00000  Uiso   1.00
C1050  C     0.16762   0.49941   0.97670   0.00000  Uiso   1.00
C1051  C     0.16626   0.50093   0.52337   0.00000  Uiso   1.00
C1052  C     0.20587   0.49199   0.95721   0.00000  Uiso   1.00
C1053  C     0.12802   0.50848   0.54282   0.00000  Uiso   1.00
C1054  C     0.09328   0.51660   0.96828   0.00000  Uiso   1.00
C1055  C     0.09246   0.52106   0.51495   0.00000  Uiso   1.00
C1056  C     0.24068   0.48423   0.53182   0.00000  Uiso   1.00
C1057  C     0.24612   0.50931   0.88971   0.00000  Uiso   1.00
C1058  C     0.08752   0.49191   0.61031   0.00000  Uiso   1.00
C1059  C     0.05581   0.52731   0.93893   0.00000  Uiso   1.00
C1060  C     0.27856   0.47395   0.56085   0.00000  Uiso   1.00
C1061  C     0.05662   0.54423   0.53424   0.00000  Uiso   1.00
C1062  C     0.27875   0.45854   0.96729   0.00000  Uiso   1.00
C1063  C     0.11679   0.38275   0.68390   0.00000  Uiso   1.00
C1064  C     0.21668   0.61728   0.81598   0.00000  Uiso   1.00
C1065  C     0.21337   0.38122   0.81837   0.00000  Uiso   1.00
C1066  C     0.24151   0.47987   0.98523   0.00000  Uiso   1.00
C1067  C     0.11918   0.61876   0.68213   0.00000  Uiso   1.00
C1068  C     0.02169   0.45828   0.75475   0.00000  Uiso   1.00
C1069  C     0.31164   0.54169   0.74535   0.00000  Uiso   1.00
C1070  C     0.31237   0.45810   0.75288   0.00000  Uiso   1.00
C1071  C     0.02095   0.54187   0.74731   0.00000  Uiso   1.00
C1072  C     0.29046   0.49985   0.74864   0.00000  Uiso   1.00
Cu1073 Cu    0.16667   0.54689   0.75000   0.00000  Uiso   1.00
Cu1074 Cu    0.16667   0.45311   0.75000   0.00000  Uiso   1.00
H1075  H     0.10457   0.50470   0.88110   0.00000  Uiso   1.00
H1076  H     0.32004   0.42614   0.58419   0.00000  Uiso   1.00
H1077  H     0.06177   0.56646   0.56293   0.00000  Uiso   1.00
H1078  H     0.30936   0.46766   0.98094   0.00000  Uiso   1.00
H1079  H     0.06034   0.40879   0.66632   0.00000  Uiso   1.00
H1080  H     0.27329   0.59162   0.83349   0.00000  Uiso   1.00
H1081  H     0.21677   0.39897   0.88319   0.00000  Uiso   1.00
H1082  H     0.11429   0.60102   0.61729   0.00000  Uiso   1.00
H1083  H     0.22898   0.49440   0.61920   0.00000  Uiso   1.00
H1084  H     0.03793   0.42565   0.75890   0.00000  Uiso   1.00
H1085  H     0.29540   0.57431   0.74118   0.00000  Uiso   1.00
H1086  H     0.29674   0.42530   0.75500   0.00000  Uiso   1.00
H1087  H     0.03657   0.57468   0.74536   0.00000  Uiso   1.00
H1088  H     0.28513   0.49670   0.84204   0.00000  Uiso   1.00
H1089  H     0.04848   0.50543   0.65773   0.00000  Uiso   1.00
H1090  H     0.01766   0.57621   0.91119   0.00000  Uiso   1.00
N1091  N     0.16667   0.61736   0.75000   0.00000  Uiso   1.00
N1092  N     0.16667   0.38264   0.75000   0.00000  Uiso   1.00
O1093  O     0.10655   0.53958   0.74999   0.00000  Uiso   1.00
O1094  O     0.25705   0.48677   0.85136   0.00000  Uiso   1.00
O1095  O     0.06454   0.46263   0.59339   0.00000  Uiso   1.00
O1096  O     0.07662   0.51503   0.64835   0.00000  Uiso   1.00
O1097  O     0.03618   0.49594   0.92077   0.00000  Uiso   1.00
O1098  O     0.04340   0.57326   0.93202   0.00000  Uiso   1.00
O1099  O     0.29542   0.50470   0.58287   0.00000  Uiso   1.00
O1100  O     0.29462   0.42904   0.56290   0.00000  Uiso   1.00
O1101  O     0.02126   0.53818   0.51917   0.00000  Uiso   1.00
O1102  O     0.27542   0.42891   0.93863   0.00000  Uiso   1.00
O1103  O     0.12856   0.38828   0.64642   0.00000  Uiso   1.00
O1104  O     0.22679   0.46042   0.75000   0.00000  Uiso   1.00
O1105  O     0.07648   0.39437   0.69293   0.00000  Uiso   1.00
O1106  O     0.20495   0.61158   0.85345   0.00000  Uiso   1.00
O1107  O     0.25704   0.60594   0.80691   0.00000  Uiso   1.00
O1108  O     0.24812   0.39515   0.81295   0.00000  Uiso   1.00
O1109  O     0.19728   0.38352   0.86029   0.00000  Uiso   1.00
O1110  O     0.08432   0.60563   0.68820   0.00000  Uiso   1.00
O1111  O     0.13452   0.61590   0.63987   0.00000  Uiso   1.00
O1112  O     0.22679   0.53958   0.75000   0.00000  Uiso   1.00
O1113  O     0.10655   0.46042   0.74999   0.00000  Uiso   1.00
O1114  O     0.16666   0.53960   0.68513   0.00000  Uiso   1.00
O1115  O     0.16668   0.46040   0.81487   0.00000  Uiso   1.00
O1116  O     0.16668   0.53960   0.81487   0.00000  Uiso   1.00
O1117  O     0.16666   0.46040   0.68513   0.00000  Uiso   1.00
O1118  O     0.26897   0.53860   0.90687   0.00000  Uiso   1.00
C1119  C     0.42087   0.50005   0.75089   0.00000  Uiso   1.00
C1120  C     0.37620   0.50012   0.75144   0.00000  Uiso   1.00
C1121  C     0.47686   0.35838   0.71817   0.00000  Uiso   1.00
C1122  C     0.52318   0.64162   0.78178   0.00000  Uiso   1.00
C1123  C     0.52292   0.35763   0.78195   0.00000  Uiso   1.00
C1124  C     0.47702   0.64237   0.71807   0.00000  Uiso   1.00
C1125  C     0.49835   0.50020   0.66460   0.00000  Uiso   1.00
C1126  C     0.50184   0.49980   0.83542   0.00000  Uiso   1.00
C1127  C     0.54041   0.49761   0.91028   0.00000  Uiso   1.00
C1128  C     0.46005   0.50297   0.58974   0.00000  Uiso   1.00
C1129  C     0.50306   0.49910   0.88379   0.00000  Uiso   1.00
C1130  C     0.57913   0.49994   0.74911   0.00000  Uiso   1.00
C1131  C     0.49730   0.50092   0.61626   0.00000  Uiso   1.00
C1132  C     0.46563   0.50220   0.90311   0.00000  Uiso   1.00
C1133  C     0.53475   0.49751   0.59705   0.00000  Uiso   1.00
C1134  C     0.46403   0.50540   0.94935   0.00000  Uiso   1.00
C1135  C     0.53650   0.49491   0.55078   0.00000  Uiso   1.00
C1136  C     0.50096   0.49941   0.97670   0.00000  Uiso   1.00
C1137  C     0.49960   0.50093   0.52337   0.00000  Uiso   1.00
C1138  C     0.53920   0.49199   0.95721   0.00000  Uiso   1.00
C1139  C     0.46136   0.50848   0.54282   0.00000  Uiso   1.00
C1140  C     0.42661   0.51660   0.96828   0.00000  Uiso   1.00
C1141  C     0.42580   0.52106   0.51495   0.00000  Uiso   1.00
C1142  C     0.57402   0.48423   0.53182   0.00000  Uiso   1.00
C1143  C     0.57946   0.50931   0.88971   0.00000  Uiso   1.00
C1144  C     0.42086   0.49191   0.61031   0.00000  Uiso   1.00
C1145  C     0.38915   0.52731   0.93893   0.00000  Uiso   1.00
C1146  C     0.61190   0.47395   0.56085   0.00000  Uiso   1.00
C1147  C     0.38995   0.54423   0.53424   0.00000  Uiso   1.00
C1148  C     0.61209   0.45854   0.96729   0.00000  Uiso   1.00
C1149  C     0.45013   0.38275   0.68390   0.00000  Uiso   1.00
C1150  C     0.55001   0.61728   0.81598   0.00000  Uiso   1.00
C1151  C     0.54671   0.38122   0.81837   0.00000  Uiso   1.00
C1152  C     0.57484   0.47987   0.98523   0.00000  Uiso   1.00
C1153  C     0.45252   0.61876   0.68213   0.00000  Uiso   1.00
C1154  C     0.35502   0.45828   0.75475   0.00000  Uiso   1.00
C1155  C     0.64498   0.54169   0.74535   0.00000  Uiso   1.00
C1156  C     0.64571   0.45810   0.75288   0.00000  Uiso   1.00
C1157  C     0.35429   0.54187   0.74731   0.00000  Uiso   1.00
C1158  C     0.62380   0.49985   0.74864   0.00000  Uiso   1.00
Cu1159 Cu    0.50000   0.54689   0.75000   0.00000  Uiso   1.00
Cu1160 Cu    0.50000   0.45311   0.75000   0.00000  Uiso   1.00
H1161  H     0.43790   0.50470   0.88110   0.00000  Uiso   1.00
H1162  H     0.65338   0.42614   0.58419   0.00000  Uiso   1.00
H1163  H     0.39511   0.56646   0.56293   0.00000  Uiso   1.00
H1164  H     0.64269   0.46766   0.98094   0.00000  Uiso   1.00
H1165  H     0.39367   0.40879   0.66632   0.00000  Uiso   1.00
H1166  H     0.60662   0.59162   0.83349   0.00000  Uiso   1.00
H1167  H     0.55010   0.39897   0.88319   0.00000  Uiso   1.00
H1168  H     0.44762   0.60102   0.61729   0.00000  Uiso   1.00
H1169  H     0.56231   0.49440   0.61920   0.00000  Uiso   1.00
H1170  H     0.37127   0.42565   0.75890   0.00000  Uiso   1.00
H1171  H     0.62874   0.57431   0.74118   0.00000  Uiso   1.00
H1172  H     0.63007   0.42530   0.75500   0.00000  Uiso   1.00
H1173  H     0.36990   0.57468   0.74536   0.00000  Uiso   1.00
H1174  H     0.61846   0.49670   0.84204   0.00000  Uiso   1.00
H1175  H     0.38181   0.50543   0.65773   0.00000  Uiso   1.00
H1176  H     0.35099   0.57621   0.91119   0.00000  Uiso   1.00
N1177  N     0.50000   0.61736   0.75000   0.00000  Uiso   1.00
N1178  N     0.50000   0.38264   0.75000   0.00000  Uiso   1.00
O1179  O     0.43988   0.53958   0.74999   0.00000  Uiso   1.00
O1180  O     0.59039   0.48677   0.85136   0.00000  Uiso   1.00
O1181  O     0.39788   0.46263   0.59339   0.00000  Uiso   1.00
O1182  O     0.40996   0.51503   0.64835   0.00000  Uiso   1.00
O1183  O     0.36951   0.49594   0.92077   0.00000  Uiso   1.00
O1184  O     0.37674   0.57326   0.93202   0.00000  Uiso   1.00
O1185  O     0.62875   0.50470   0.58287   0.00000  Uiso   1.00
O1186  O     0.62796   0.42904   0.56290   0.00000  Uiso   1.00
O1187  O     0.35459   0.53818   0.51917   0.00000  Uiso   1.00
O1188  O     0.60875   0.42891   0.93863   0.00000  Uiso   1.00
O1189  O     0.46189   0.38828   0.64642   0.00000  Uiso   1.00
O1190  O     0.56012   0.46042   0.75000   0.00000  Uiso   1.00
O1191  O     0.40982   0.39437   0.69293   0.00000  Uiso   1.00
O1192  O     0.53828   0.61158   0.85345   0.00000  Uiso   1.00
O1193  O     0.59037   0.60594   0.80691   0.00000  Uiso   1.00
O1194  O     0.58145   0.39515   0.81295   0.00000  Uiso   1.00
O1195  O     0.53062   0.38352   0.86029   0.00000  Uiso   1.00
O1196  O     0.41766   0.60563   0.68820   0.00000  Uiso   1.00
O1197  O     0.46786   0.61590   0.63987   0.00000  Uiso   1.00
O1198  O     0.56012   0.53958   0.75000   0.00000  Uiso   1.00
O1199  O     0.43988   0.46042   0.74999   0.00000  Uiso   1.00
O1200  O     0.49999   0.53960   0.68513   0.00000  Uiso   1.00
O1201  O     0.50001   0.46040   0.81487   0.00000  Uiso   1.00
O1202  O     0.50001   0.53960   0.81487   0.00000  Uiso   1.00
O1203  O     0.49999   0.46040   0.68513   0.00000  Uiso   1.00
O1204  O     0.60230   0.53860   0.90687   0.00000  Uiso   1.00
C1205  C     0.75421   0.50005   0.75089   0.00000  Uiso   1.00
C1206  C     0.70953   0.50012   0.75144   0.00000  Uiso   1.00
C1207  C     0.81019   0.35838   0.71817   0.00000  Uiso   1.00
C1208  C     0.85652   0.64162   0.78178   0.00000  Uiso   1.00
C1209  C     0.85625   0.35763   0.78195   0.00000  Uiso   1.00
C1210  C     0.81035   0.64237   0.71807   0.00000  Uiso   1.00
C1211  C     0.83168   0.50020   0.66460   0.00000  Uiso   1.00
C1212  C     0.83517   0.49980   0.83542   0.00000  Uiso   1.00
C1213  C     0.87374   0.49761   0.91028   0.00000  Uiso   1.00
C1214  C     0.79338   0.50297   0.58974   0.00000  Uiso   1.00
C1215  C     0.83639   0.49910   0.88379   0.00000  Uiso   1.00
C1216  C     0.91246   0.49994   0.74911   0.00000  Uiso   1.00
C1217  C     0.83064   0.50092   0.61626   0.00000  Uiso   1.00
C1218  C     0.79896   0.50220   0.90311   0.00000  Uiso   1.00
C1219  C     0.86809   0.49751   0.59705   0.00000  Uiso   1.00
C1220  C     0.79737   0.50540   0.94935   0.00000  Uiso   1.00
C1221  C     0.86983   0.49491   0.55078   0.00000  Uiso   1.00
C1222  C     0.83429   0.49941   0.97670   0.00000  Uiso   1.00
C1223  C     0.83293   0.50093   0.52337   0.00000  Uiso   1.00
C1224  C     0.87253   0.49199   0.95721   0.00000  Uiso   1.00
C1225  C     0.79469   0.50848   0.54282   0.00000  Uiso   1.00
C1226  C     0.75994   0.51660   0.96828   0.00000  Uiso   1.00
C1227  C     0.75913   0.52106   0.51495   0.00000  Uiso   1.00
C1228  C     0.90735   0.48423   0.53182   0.00000  Uiso   1.00
C1229  C     0.91279   0.50931   0.88971   0.00000  Uiso   1.00
C1230  C     0.75419   0.49191   0.61031   0.00000  Uiso   1.00
C1231  C     0.72248   0.52731   0.93893   0.00000  Uiso   1.00
C1232  C     0.94523   0.47395   0.56085   0.00000  Uiso   1.00
C1233  C     0.72329   0.54423   0.53424   0.00000  Uiso   1.00
C1234  C     0.94542   0.45854   0.96729   0.00000  Uiso   1.00
C1235  C     0.78346   0.38275   0.68390   0.00000  Uiso   1.00
C1236  C     0.88334   0.61728   0.81598   0.00000  Uiso   1.00
C1237  C     0.88004   0.38122   0.81837   0.00000  Uiso   1.00
C1238  C     0.90818   0.47987   0.98523   0.00000  Uiso   1.00
C1239  C     0.78585   0.61876   0.68213   0.00000  Uiso   1.00
C1240  C     0.68836   0.45828   0.75475   0.00000  Uiso   1.00
C1241  C     0.97831   0.54169   0.74535   0.00000  Uiso   1.00
C1242  C     0.97904   0.45810   0.75288   0.00000  Uiso   1.00
C1243  C     0.68762   0.54187   0.74731   0.00000  Uiso   1.00
C1244  C     0.95713   0.49985   0.74864   0.00000  Uiso   1.00
Cu1245 Cu    0.83333   0.54689   0.75000   0.00000  Uiso   1.00
Cu1246 Cu    0.83333   0.45311   0.75000   0.00000  Uiso   1.00
H1247  H     0.77123   0.50470   0.88110   0.00000  Uiso   1.00
H1248  H     0.98671   0.42614   0.58419   0.00000  Uiso   1.00
H1249  H     0.72844   0.56646   0.56293   0.00000  Uiso   1.00
H1250  H     0.97603   0.46766   0.98094   0.00000  Uiso   1.00
H1251  H     0.72700   0.40879   0.66632   0.00000  Uiso   1.00
H1252  H     0.93995   0.59162   0.83349   0.00000  Uiso   1.00
H1253  H     0.88343   0.39897   0.88319   0.00000  Uiso   1.00
H1254  H     0.78095   0.60102   0.61729   0.00000  Uiso   1.00
H1255  H     0.89564   0.49440   0.61920   0.00000  Uiso   1.00
H1256  H     0.70460   0.42565   0.75890   0.00000  Uiso   1.00
H1257  H     0.96207   0.57431   0.74118   0.00000  Uiso   1.00
H1258  H     0.96341   0.42530   0.75500   0.00000  Uiso   1.00
H1259  H     0.70323   0.57468   0.74536   0.00000  Uiso   1.00
H1260  H     0.95180   0.49670   0.84204   0.00000  Uiso   1.00
H1261  H     0.71514   0.50543   0.65773   0.00000  Uiso   1.00
H1262  H     0.68433   0.57621   0.91119   0.00000  Uiso   1.00
N1263  N     0.83333   0.61736   0.75000   0.00000  Uiso   1.00
N1264  N     0.83333   0.38264   0.75000   0.00000  Uiso   1.00
O1265  O     0.77321   0.53958   0.74999   0.00000  Uiso   1.00
O1266  O     0.92372   0.48677   0.85136   0.00000  Uiso   1.00
O1267  O     0.73121   0.46263   0.59339   0.00000  Uiso   1.00
O1268  O     0.74329   0.51503   0.64835   0.00000  Uiso   1.00
O1269  O     0.70284   0.49594   0.92077   0.00000  Uiso   1.00
O1270  O     0.71007   0.57326   0.93202   0.00000  Uiso   1.00
O1271  O     0.96209   0.50470   0.58287   0.00000  Uiso   1.00
O1272  O     0.96129   0.42904   0.56290   0.00000  Uiso   1.00
O1273  O     0.68792   0.53818   0.51917   0.00000  Uiso   1.00
O1274  O     0.94209   0.42891   0.93863   0.00000  Uiso   1.00
O1275  O     0.79522   0.38828   0.64642   0.00000  Uiso   1.00
O1276  O     0.89345   0.46042   0.75000   0.00000  Uiso   1.00
O1277  O     0.74315   0.39437   0.69293   0.00000  Uiso   1.00
O1278  O     0.87162   0.61158   0.85345   0.00000  Uiso   1.00
O1279  O     0.92370   0.60594   0.80691   0.00000  Uiso   1.00
O1280  O     0.91478   0.39515   0.81295   0.00000  Uiso   1.00
O1281  O     0.86395   0.38352   0.86029   0.00000  Uiso   1.00
O1282  O     0.75099   0.60563   0.68820   0.00000  Uiso   1.00
O1283  O     0.80119   0.61590   0.63987   0.00000  Uiso   1.00
O1284  O     0.89345   0.53958   0.75000   0.00000  Uiso   1.00
O1285  O     0.77321   0.46042   0.74999   0.00000  Uiso   1.00
O1286  O     0.83332   0.53960   0.68513   0.00000  Uiso   1.00
O1287  O     0.83334   0.46040   0.81487   0.00000  Uiso   1.00
O1288  O     0.83334   0.53960   0.81487   0.00000  Uiso   1.00
O1289  O     0.83332   0.46040   0.68513   0.00000  Uiso   1.00
O1290  O     0.93563   0.53860   0.90687   0.00000  Uiso   1.00
C1291  C     0.08754   0.83338   0.75089   0.00000  Uiso   1.00
C1292  C     0.04287   0.83345   0.75144   0.00000  Uiso   1.00
C1293  C     0.14353   0.69172   0.71817   0.00000  Uiso   1.00
C1294  C     0.18985   0.97495   0.78178   0.00000  Uiso   1.00
C1295  C     0.18958   0.69096   0.78195   0.00000  Uiso   1.00
C1296  C     0.14369   0.97570   0.71807   0.00000  Uiso   1.00
C1297  C     0.16501   0.83353   0.66460   0.00000  Uiso   1.00
C1298  C     0.16851   0.83313   0.83542   0.00000  Uiso   1.00
C1299  C     0.20708   0.83094   0.91028   0.00000  Uiso   1.00
C1300  C     0.12672   0.83631   0.58974   0.00000  Uiso   1.00
C1301  C     0.16973   0.83243   0.88379   0.00000  Uiso   1.00
C1302  C     0.24579   0.83328   0.74911   0.00000  Uiso   1.00
C1303  C     0.16397   0.83425   0.61626   0.00000  Uiso   1.00
C1304  C     0.13230   0.83553   0.90311   0.00000  Uiso   1.00
C1305  C     0.20142   0.83085   0.59705   0.00000  Uiso   1.00
C1306  C     0.13070   0.83873   0.94935   0.00000  Uiso   1.00
C1307  C     0.20316   0.82825   0.55078   0.00000  Uiso   1.00
C1308  C     0.16762   0.83274   0.97670   0.00000  Uiso   1.00
C1309  C     0.16626   0.83426   0.52337   0.00000  Uiso   1.00
C1310  C     0.20587   0.82532   0.95721   0.00000  Uiso   1.00
C1311  C     0.12802   0.84181   0.54282   0.00000  Uiso   1.00
C1312  C     0.09328   0.84993   0.96828   0.00000  Uiso   1.00
C1313  C     0.09246   0.85439   0.51495   0.00000  Uiso   1.00
C1314  C     0.24068   0.81757   0.53182   0.00000  Uiso   1.00
C1315  C     0.24612   0.84264   0.88971   0.00000  Uiso   1.00
C1316  C     0.08752   0.82525   0.61031   0.00000  Uiso   1.00
C1317  C     0.05581   0.86064   0.93893   0.00000  Uiso   1.00
C1318  C     0.27856   0.80728   0.56085   0.00000  Uiso   1.00
C1319  C     0.05662   0.87756   0.53424   0.00000  Uiso   1.00
C1320  C     0.27875   0.79188   0.96729   0.00000  Uiso   1.00
C1321  C     0.11679   0.71608   0.68390   0.00000  Uiso   1.00
C1322  C     0.21668   0.95061   0.81598   0.00000  Uiso   1.00
C1323  C     0.21337   0.71456   0.81837   0.00000  Uiso   1.00
C1324  C     0.24151   0.81320   0.98523   0.00000  Uiso   1.00
C1325  C     0.11918   0.95209   0.68213   0.00000  Uiso   1.00
C1326  C     0.02169   0.79161   0.75475   0.00000  Uiso   1.00
C1327  C     0.31164   0.87502   0.74535   0.00000  Uiso   1.00
C1328  C     0.31237   0.79143   0.75288   0.00000  Uiso   1.00
C1329  C     0.02095   0.87520   0.74731   0.00000  Uiso   1.00
C1330  C     0.29046   0.83319   0.74864   0.00000  Uiso   1.00
Cu1331 Cu    0.16667   0.88022   0.75000   0.00000  Uiso   1.00
Cu1332 Cu    0.16667   0.78645   0.75000   0.00000  Uiso   1.00
H1333  H     0.10457   0.83803   0.88110   0.00000  Uiso   1.00
H1334  H     0.32004   0.75948   0.58419   0.00000  Uiso   1.00
H1335  H     0.06177   0.89979   0.56293   0.00000  Uiso   1.00
H1336  H     0.30936   0.80100   0.98094   0.00000  Uiso   1.00
H1337  H     0.06034   0.74213   0.66632   0.00000  Uiso   1.00
H1338  H     0.27329   0.92495   0.83349   0.00000  Uiso   1.00
H1339  H     0.21677   0.73231   0.88319   0.00000  Uiso   1.00
H1340  H     0.11429   0.93435   0.61729   0.00000  Uiso   1.00
H1341  H     0.22898   0.82774   0.61920   0.00000  Uiso   1.00
H1342  H     0.03793   0.75899   0.75890   0.00000  Uiso   1.00
H1343  H     0.29540   0.90764   0.74118   0.00000  Uiso   1.00
H1344  H     0.29674   0.75863   0.75500   0.00000  Uiso   1.00
H1345  H     0.03657   0.90801   0.74536   0.00000  Uiso   1.00
H1346  H     0.28513   0.83003   0.84204   0.00000  Uiso   1.00
H1347  H     0.04848   0.83876   0.65773   0.00000  Uiso   1.00
H1348  H     0.01766   0.90954   0.91119   0.00000  Uiso   1.00
N1349  N     0.16667   0.95069   0.75000   0.00000  Uiso   1.00
N1350  N     0.16667   0.71598   0.75000   0.00000  Uiso   1.00
O1351  O     0.10655   0.87291   0.74999   0.00000  Uiso   1.00
O1352  O     0.25705   0.82011   0.85136   0.00000  Uiso   1.00
O1353  O     0.06454   0.79596   0.59339   0.00000  Uiso   1.00
O1354  O     0.07662   0.84836   0.64835   0.00000  Uiso   1.00
O1355  O     0.03618   0.82928   0.92077   0.00000  Uiso   1.00
O1356  O     0.04340   0.90659   0.93202   0.00000  Uiso   1.00
O1357  O     0.29542   0.83803   0.58287   0.00000  Uiso   1.00
O1358  O     0.29462   0.76238   0.56290   0.00000  Uiso   1.00
O1359  O     0.02126   0.87152   0.51917   0.00000  Uiso   1.00
O1360  O     0.27542   0.76225   0.93863   0.00000  Uiso   1.00
O1361  O     0.12856   0.72161   0.64642   0.00000  Uiso   1.00
O1362  O     0.22679   0.79375   0.75000   0.00000  Uiso   1.00
O1363  O     0.07648   0.72770   0.69293   0.00000  Uiso   1.00
O1364  O     0.20495   0.94491   0.85345   0.00000  Uiso   1.00
O1365  O     0.25704   0.93927   0.80691   0.00000  Uiso   1.00
O1366  O     0.24812   0.72848   0.81295   0.00000  Uiso   1.00
O1367  O     0.19728   0.71685   0.86029   0.00000  Uiso   1.00
O1368  O     0.08432   0.93897   0.68820   0.00000  Uiso   1.00
O1369  O     0.13452   0.94923   0.63987   0.00000  Uiso   1.00
O1370  O     0.22679   0.87291   0.75000   0.00000  Uiso   1.00
O1371  O     0.10655   0.79375   0.74999   0.00000  Uiso   1.00
O1372  O     0.16666   0.87293   0.68513   0.00000  Uiso   1.00
O1373  O     0.16668   0.79373   0.81487   0.00000  Uiso   1.00
O1374  O     0.16668   0.87293   0.81487   0.00000  Uiso   1.00
O1375  O     0.16666   0.79373   0.68513   0.00000  Uiso   1.00
O1376  O     0.26897   0.87193   0.90687   0.00000  Uiso   1.00
C1377  C     0.42087   0.83338   0.75089   0.00000  Uiso   1.00
C1378  C     0.37620   0.83345   0.75144   0.00000  Uiso   1.00
C1379  C     0.47686   0.69172   0.71817   0.00000  Uiso   1.00
C1380  C     0.52318   0.97495   0.78178   0.00000  Uiso   1.00
C1381  C     0.52292   0.69096   0.78195   0.00000  Uiso   1.00
C1382  C     0.47702   0.97570   0.71807   0.00000  Uiso   1.00
C1383  C     0.49835   0.83353   0.66460   0.00000  Uiso   1.00
C1384  C     0.50184   0.83313   0.83542   0.00000  Uiso   1.00
C1385  C     0.54041   0.83094   0.91028   0.00000  Uiso   1.00
C1386  C     0.46005   0.83631   0.58974   0.00000  Uiso   1.00
C1387  C     0.50306   0.83243   0.88379   0.00000  Uiso   1.00
C1388  C     0.57913   0.83328   0.74911   0.00000  Uiso   1.00
C1389  C     0.49730   0.83425   0.61626   0.00000  Uiso   1.00
C1390  C     0.46563   0.83553   0.90311   0.00000  Uiso   1.00
C1391  C     0.53475   0.83085   0.59705   0.00000  Uiso   1.00
C1392  C     0.46403   0.83873   0.94935   0.00000  Uiso   1.00
C1393  C     0.53650   0.82825   0.55078   0.00000  Uiso   1.00
C1394  C     0.50096   0.83274   0.97670   0.00000  Uiso   1.00
C1395  C     0.49960   0.83426   0.52337   0.00000  Uiso   1.00
C1396  C     0.53920   0.82532   0.95721   0.00000  Uiso   1.00
C1397  C     0.46136   0.84181   0.54282   0.00000  Uiso   1.00
C1398  C     0.42661   0.84993   0.96828   0.00000  Uiso   1.00
C1399  C     0.42580   0.85439   0.51495   0.00000  Uiso   1.00
C1400  C     0.57402   0.81757   0.53182   0.00000  Uiso   1.00
C1401  C     0.57946   0.84264   0.88971   0.00000  Uiso   1.00
C1402  C     0.42086   0.82525   0.61031   0.00000  Uiso   1.00
C1403  C     0.38915   0.86064   0.93893   0.00000  Uiso   1.00
C1404  C     0.61190   0.80728   0.56085   0.00000  Uiso   1.00
C1405  C     0.38995   0.87756   0.53424   0.00000  Uiso   1.00
C1406  C     0.61209   0.79188   0.96729   0.00000  Uiso   1.00
C1407  C     0.45013   0.71608   0.68390   0.00000  Uiso   1.00
C1408  C     0.55001   0.95061   0.81598   0.00000  Uiso   1.00
C1409  C     0.54671   0.71456   0.81837   0.00000  Uiso   1.00
C1410  C     0.57484   0.81320   0.98523   0.00000  Uiso   1.00
C1411  C     0.45252   0.95209   0.68213   0.00000  Uiso   1.00
C1412  C     0.35502   0.79161   0.75475   0.00000  Uiso   1.00
C1413  C     0.64498   0.87502   0.74535   0.00000  Uiso   1.00
C1414  C     0.64571   0.79143   0.75288   0.00000  Uiso   1.00
C1415  C     0.35429   0.87520   0.74731   0.00000  Uiso   1.00
C1416  C     0.62380   0.83319   0.74864   0.00000  Uiso   1.00
Cu1417 Cu    0.50000   0.88022   0.75000   0.00000  Uiso   1.00
Cu1418 Cu    0.50000   0.78645   0.75000   0.00000  Uiso   1.00
H1419  H     0.43790   0.83803   0.88110   0.00000  Uiso   1.00
H1420  H     0.65338   0.75948   0.58419   0.00000  Uiso   1.00
H1421  H     0.39511   0.89979   0.56293   0.00000  Uiso   1.00
H1422  H     0.64269   0.80100   0.98094   0.00000  Uiso   1.00
H1423  H     0.39367   0.74213   0.66632   0.00000  Uiso   1.00
H1424  H     0.60662   0.92495   0.83349   0.00000  Uiso   1.00
H1425  H     0.55010   0.73231   0.88319   0.00000  Uiso   1.00
H1426  H     0.44762   0.93435   0.61729   0.00000  Uiso   1.00
H1427  H     0.56231   0.82774   0.61920   0.00000  Uiso   1.00
H1428  H     0.37127   0.75899   0.75890   0.00000  Uiso   1.00
H1429  H     0.62874   0.90764   0.74118   0.00000  Uiso   1.00
H1430  H     0.63007   0.75863   0.75500   0.00000  Uiso   1.00
H1431  H     0.36990   0.90801   0.74536   0.00000  Uiso   1.00
H1432  H     0.61846   0.83003   0.84204   0.00000  Uiso   1.00
H1433  H     0.38181   0.83876   0.65773   0.00000  Uiso   1.00
H1434  H     0.35099   0.90954   0.91119   0.00000  Uiso   1.00
N1435  N     0.50000   0.95069   0.75000   0.00000  Uiso   1.00
N1436  N     0.50000   0.71598   0.75000   0.00000  Uiso   1.00
O1437  O     0.43988   0.87291   0.74999   0.00000  Uiso   1.00
O1438  O     0.59039   0.82011   0.85136   0.00000  Uiso   1.00
O1439  O     0.39788   0.79596   0.59339   0.00000  Uiso   1.00
O1440  O     0.40996   0.84836   0.64835   0.00000  Uiso   1.00
O1441  O     0.36951   0.82928   0.92077   0.00000  Uiso   1.00
O1442  O     0.37674   0.90659   0.93202   0.00000  Uiso   1.00
O1443  O     0.62875   0.83803   0.58287   0.00000  Uiso   1.00
O1444  O     0.62796   0.76238   0.56290   0.00000  Uiso   1.00
O1445  O     0.35459   0.87152   0.51917   0.00000  Uiso   1.00
O1446  O     0.60875   0.76225   0.93863   0.00000  Uiso   1.00
O1447  O     0.46189   0.72161   0.64642   0.00000  Uiso   1.00
O1448  O     0.56012   0.79375   0.75000   0.00000  Uiso   1.00
O1449  O     0.40982   0.72770   0.69293   0.00000  Uiso   1.00
O1450  O     0.53828   0.94491   0.85345   0.00000  Uiso   1.00
O1451  O     0.59037   0.93927   0.80691   0.00000  Uiso   1.00
O1452  O     0.58145   0.72848   0.81295   0.00000  Uiso   1.00
O1453  O     0.53062   0.71685   0.86029   0.00000  Uiso   1.00
O1454  O     0.41766   0.93897   0.68820   0.00000  Uiso   1.00
O1455  O     0.46786   0.94923   0.63987   0.00000  Uiso   1.00
O1456  O     0.56012   0.87291   0.75000   0.00000  Uiso   1.00
O1457  O     0.43988   0.79375   0.74999   0.00000  Uiso   1.00
O1458  O     0.49999   0.87293   0.68513   0.00000  Uiso   1.00
O1459  O     0.50001   0.79373   0.81487   0.00000  Uiso   1.00
O1460  O     0.50001   0.87293   0.81487   0.00000  Uiso   1.00
O1461  O     0.49999   0.79373   0.68513   0.00000  Uiso   1.00
O1462  O     0.60230   0.87193   0.90687   0.00000  Uiso   1.00
C1463  C     0.75421   0.83338   0.75089   0.00000  Uiso   1.00
C1464  C     0.70953   0.83345   0.75144   0.00000  Uiso   1.00
C1465  C     0.81019   0.69172   0.71817   0.00000  Uiso   1.00
C1466  C     0.85652   0.97495   0.78178   0.00000  Uiso   1.00
C1467  C     0.85625   0.69096   0.78195   0.00000  Uiso   1.00
C1468  C     0.81035   0.97570   0.71807   0.00000  Uiso   1.00
C1469  C     0.83168   0.83353   0.66460   0.00000  Uiso   1.00
C1470  C     0.83517   0.83313   0.83542   0.00000  Uiso   1.00
C1471  C     0.87374   0.83094   0.91028   0.00000  Uiso   1.00
C1472  C     0.79338   0.83631   0.58974   0.00000  Uiso   1.00
C1473  C     0.83639   0.83243   0.88379   0.00000  Uiso   1.00
C1474  C     0.91246   0.83328   0.74911   0.00000  Uiso   1.00
C1475  C     0.83064   0.83425   0.61626   0.00000  Uiso   1.00
C1476  C     0.79896   0.83553   0.90311   0.00000  Uiso   1.00
C1477  C     0.86809   0.83085   0.59705   0.00000  Uiso   1.00
C1478  C     0.79737   0.83873   0.94935   0.00000  Uiso   1.00
C1479  C     0.86983   0.82825   0.55078   0.00000  Uiso   1.00
C1480  C     0.83429   0.83274   0.97670   0.00000  Uiso   1.00
C1481  C     0.83293   0.83426   0.52337   0.00000  Uiso   1.00
C1482  C     0.87253   0.82532   0.95721   0.00000  Uiso   1.00
C1483  C     0.79469   0.84181   0.54282   0.00000  Uiso   1.00
C1484  C     0.75994   0.84993   0.96828   0.00000  Uiso   1.00
C1485  C     0.75913   0.85439   0.51495   0.00000  Uiso   1.00
C1486  C     0.90735   0.81757   0.53182   0.00000  Uiso   1.00
C1487  C     0.91279   0.84264   0.88971   0.00000  Uiso   1.00
C1488  C     0.75419   0.82525   0.61031   0.00000  Uiso   1.00
C1489  C     0.72248   0.86064   0.93893   0.00000  Uiso   1.00
C1490  C     0.94523   0.80728   0.56085   0.00000  Uiso   1.00
C1491  C     0.72329   0.87756   0.53424   0.00000  Uiso   1.00
C1492  C     0.94542   0.79188   0.96729   0.00000  Uiso   1.00
C1493  C     0.78346   0.71608   0.68390   0.00000  Uiso   1.00
C1494  C     0.88334   0.95061   0.81598   0.00000  Uiso   1.00
C1495  C     0.88004   0.71456   0.81837   0.00000  Uiso   1.00
C1496  C     0.90818   0.81320   0.98523   0.00000  Uiso   1.00
C1497  C     0.78585   0.95209   0.68213   0.00000  Uiso   1.00
C1498  C     0.68836   0.79161   0.75475   0.00000  Uiso   1.00
C1499  C     0.97831   0.87502   0.74535   0.00000  Uiso   1.00
C1500  C     0.97904   0.79143   0.75288   0.00000  Uiso   1.00
C1501  C     0.68762   0.87520   0.74731   0.00000  Uiso   1.00
C1502  C     0.95713   0.83319   0.74864   0.00000  Uiso   1.00
Cu1503 Cu    0.83333   0.88022   0.75000   0.00000  Uiso   1.00
Cu1504 Cu    0.83333   0.78645   0.75000   0.00000  Uiso   1.00
H1505  H     0.77123   0.83803   0.88110   0.00000  Uiso   1.00
H1506  H     0.98671   0.75948   0.58419   0.00000  Uiso   1.00
H1507  H     0.72844   0.89979   0.56293   0.00000  Uiso   1.00
H1508  H     0.97603   0.80100   0.98094   0.00000  Uiso   1.00
H1509  H     0.72700   0.74213   0.66632   0.00000  Uiso   1.00
H1510  H     0.93995   0.92495   0.83349   0.00000  Uiso   1.00
H1511  H     0.88343   0.73231   0.88319   0.00000  Uiso   1.00
H1512  H     0.78095   0.93435   0.61729   0.00000  Uiso   1.00
H1513  H     0.89564   0.82774   0.61920   0.00000  Uiso   1.00
H1514  H     0.70460   0.75899   0.75890   0.00000  Uiso   1.00
H1515  H     0.96207   0.90764   0.74118   0.00000  Uiso   1.00
H1516  H     0.96341   0.75863   0.75500   0.00000  Uiso   1.00
H1517  H     0.70323   0.90801   0.74536   0.00000  Uiso   1.00
H1518  H     0.95180   0.83003   0.84204   0.00000  Uiso   1.00
H1519  H     0.71514   0.83876   0.65773   0.00000  Uiso   1.00
H1520  H     0.68433   0.90954   0.91119   0.00000  Uiso   1.00
N1521  N     0.83333   0.95069   0.75000   0.00000  Uiso   1.00
N1522  N     0.83333   0.71598   0.75000   0.00000  Uiso   1.00
O1523  O     0.77321   0.87291   0.74999   0.00000  Uiso   1.00
O1524  O     0.92372   0.82011   0.85136   0.00000  Uiso   1.00
O1525  O     0.73121   0.79596   0.59339   0.00000  Uiso   1.00
O1526  O     0.74329   0.84836   0.64835   0.00000  Uiso   1.00
O1527  O     0.70284   0.82928   0.92077   0.00000  Uiso   1.00
O1528  O     0.71007   0.90659   0.93202   0.00000  Uiso   1.00
O1529  O     0.96209   0.83803   0.58287   0.00000  Uiso   1.00
O1530  O     0.96129   0.76238   0.56290   0.00000  Uiso   1.00
O1531  O     0.68792   0.87152   0.51917   0.00000  Uiso   1.00
O1532  O     0.94209   0.76225   0.93863   0.00000  Uiso   1.00
O1533  O     0.79522   0.72161   0.64642   0.00000  Uiso   1.00
O1534  O     0.89345   0.79375   0.75000   0.00000  Uiso   1.00
O1535  O     0.74315   0.72770   0.69293   0.00000  Uiso   1.00
O1536  O     0.87162   0.94491   0.85345   0.00000  Uiso   1.00
O1537  O     0.92370   0.93927   0.80691   0.00000  Uiso   1.00
O1538  O     0.91478   0.72848   0.81295   0.00000  Uiso   1.00
O1539  O     0.86395   0.71685   0.86029   0.00000  Uiso   1.00
O1540  O     0.75099   0.93897   0.68820   0.00000  Uiso   1.00
O1541  O     0.80119   0.94923   0.63987   0.00000  Uiso   1.00
O1542  O     0.89345   0.87291   0.75000   0.00000  Uiso   1.00
O1543  O     0.77321   0.79375   0.74999   0.00000  Uiso   1.00
O1544  O     0.83332   0.87293   0.68513   0.00000  Uiso   1.00
O1545  O     0.83334   0.79373   0.81487   0.00000  Uiso   1.00
O1546  O     0.83334   0.87293   0.81487   0.00000  Uiso   1.00
O1547  O     0.83332   0.79373   0.68513   0.00000  Uiso   1.00
O1548  O     0.93563   0.87193   0.90687   0.00000  Uiso   1.00
loop_
_geom_bond_atom_site_label_1
_geom_bond_atom_site_label_2
_geom_bond_distance
_geom_bond_site_symmetry_2
_ccdc_geom_bond_type
C1     O81     1.302   .     A
C1     C2      1.452   .     S
C1     O61     1.303   .     A
C2     C39     1.400   .     A
C2     C36     1.401   .     A
C3     N60     1.376   .     A
C3     C31     1.475   .     S
C3     C522    1.428   1_545 S
C4     C32     1.475   .     S
C4     N59     1.376   .     A
C4     C263    1.428   .     S
C5     C33     1.472   .     S
C5     N60     1.375   .     A
C5     C520    1.428   1_545 S
C6     C35     1.473   .     S
C6     N59     1.375   .     A
C6     C261    1.428   .     S
C7     O85     1.301   .     A
C7     C13     1.451   .     S
C7     O82     1.301   .     A
C8     O83     1.301   .     A
C8     O84     1.301   .     A
C8     C11     1.452   .     S
C9     C25     1.486   .     S
C9     C20     1.422   .     A
C9     C11     1.407   .     A
C10    C26     1.486   .     S
C10    C21     1.422   .     A
C10    C13     1.405   .     A
C11    C14     1.385   .     A
C12    O72     1.302   .     A
C12    C40     1.452   .     S
C12    O80     1.302   .     A
C13    C15     1.384   .     A
C14    C16     1.398   .     A
C14    H43     1.083   .     S
C15    H51     1.083   .     S
C15    C17     1.398   .     A
C16    C22     1.414   .     A
C16    C18     1.418   .     A
C17    C24     1.414   .     A
C17    C19     1.418   .     A
C18    C20     1.424   .     A
C18    C793    1.408   .     S
C19    C21     1.424   .     A
C19    C792    1.408   1_554 S
C20    C34     1.427   .     A
C21    C23     1.425   .     A
C22    C27     1.485   .     S
C22    C797    1.412   .     S
C23    C29     1.494   .     S
C23    C796    1.412   1_554 S
C24    C28     1.488   .     S
C24    C808    1.409   1_554 S
C25    O86     1.223   .     D
C25    O62     1.395   .     S
C26    O64     1.395   .     S
C26    O63     1.223   .     D
C27    O65     1.223   .     D
C27    O66     1.398   .     S
C28    O68     1.398   .     S
C28    O67     1.223   .     D
C29    O69     1.220   .     D
C29    H45     1.085   .     S
C30    O70     1.221   .     D
C30    C34     1.490   .     S
C30    H46     1.084   .     S
C31    O73     1.395   .     S
C31    O71     1.223   .     D
C32    O74     1.223   .     D
C32    O75     1.395   .     S
C33    O76     1.220   .     D
C33    O77     1.397   .     S
C34    C798    1.409   .     S
C35    O79     1.398   .     S
C35    O78     1.220   .     D
C36    H52     1.082   .     S
C36    C210    1.383   1_455 S
C37    C40     1.400   .     A
C37    H53     1.082   .     S
C37    C125    1.383   .     S
C38    H54     1.081   .     S
C38    C40     1.400   .     A
C38    C122    1.383   .     S
C39    H55     1.081   .     S
C39    C209    1.383   1_455 S
Cu41   Cu42    2.713   .     S
Cu41   O61     1.965   .     S
Cu41   O80     1.963   .     S
Cu41   N59     2.039   .     S
Cu41   O84     1.959   .     S
Cu41   O82     1.963   .     S
Cu42   O81     1.963   .     S
Cu42   N60     2.039   .     S
Cu42   O72     1.965   .     S
Cu42   O85     1.959   .     S
Cu42   O83     1.963   .     S
H44    O68     1.013   .     S
H47    O73     1.013   .     S
H48    O75     1.013   .     S
H49    O77     1.012   .     S
H50    O79     1.013   .     S
H56    O62     1.013   .     S
H57    O64     1.013   .     S
H58    O66     1.014   .     S
C87    O167    1.302   .     A
C87    C88     1.452   .     S
C87    O147    1.303   .     A
C88    C125    1.400   .     A
C88    C122    1.401   .     A
C89    N146    1.376   .     A
C89    C117    1.475   .     S
C89    C608    1.428   1_545 S
C90    C118    1.475   .     S
C90    N145    1.376   .     A
C90    C349    1.428   .     S
C91    C119    1.472   .     S
C91    N146    1.375   .     A
C91    C606    1.428   1_545 S
C92    C121    1.473   .     S
C92    N145    1.375   .     A
C92    C347    1.428   .     S
C93    O171    1.301   .     A
C93    C99     1.451   .     S
C93    O168    1.301   .     A
C94    O169    1.301   .     A
C94    O170    1.301   .     A
C94    C97     1.452   .     S
C95    C111    1.486   .     S
C95    C106    1.422   .     A
C95    C97     1.407   .     A
C96    C112    1.486   .     S
C96    C107    1.422   .     A
C96    C99     1.405   .     A
C97    C100    1.385   .     A
C98    O158    1.302   .     A
C98    C126    1.452   .     S
C98    O166    1.302   .     A
C99    C101    1.384   .     A
C100   C102    1.398   .     A
C100   H129    1.083   .     S
C101   H137    1.083   .     S
C101   C103    1.398   .     A
C102   C108    1.414   .     A
C102   C104    1.418   .     A
C103   C110    1.414   .     A
C103   C105    1.418   .     A
C104   C106    1.424   .     A
C104   C879    1.408   .     S
C105   C107    1.424   .     A
C105   C878    1.408   1_554 S
C106   C120    1.427   .     A
C107   C109    1.425   .     A
C108   C113    1.485   .     S
C108   C883    1.412   .     S
C109   C115    1.494   .     S
C109   C882    1.412   1_554 S
C110   C114    1.488   .     S
C110   C894    1.409   1_554 S
C111   O172    1.223   .     D
C111   O148    1.395   .     S
C112   O150    1.395   .     S
C112   O149    1.223   .     D
C113   O151    1.223   .     D
C113   O152    1.398   .     S
C114   O154    1.398   .     S
C114   O153    1.223   .     D
C115   O155    1.220   .     D
C115   H131    1.085   .     S
C116   O156    1.221   .     D
C116   C120    1.490   .     S
C116   H132    1.084   .     S
C117   O159    1.395   .     S
C117   O157    1.223   .     D
C118   O160    1.223   .     D
C118   O161    1.395   .     S
C119   O162    1.220   .     D
C119   O163    1.397   .     S
C120   C884    1.409   .     S
C121   O165    1.398   .     S
C121   O164    1.220   .     D
C122   H138    1.082   .     S
C123   C126    1.400   .     A
C123   H139    1.082   .     S
C123   C211    1.383   .     S
C124   H140    1.081   .     S
C124   C126    1.400   .     A
C124   C208    1.383   .     S
C125   H141    1.081   .     S
Cu127  Cu128   2.713   .     S
Cu127  O147    1.965   .     S
Cu127  O166    1.963   .     S
Cu127  N145    2.039   .     S
Cu127  O170    1.959   .     S
Cu127  O168    1.963   .     S
Cu128  O167    1.963   .     S
Cu128  N146    2.039   .     S
Cu128  O158    1.965   .     S
Cu128  O171    1.959   .     S
Cu128  O169    1.963   .     S
H130   O154    1.013   .     S
H133   O159    1.013   .     S
H134   O161    1.013   .     S
H135   O163    1.012   .     S
H136   O165    1.013   .     S
H142   O148    1.013   .     S
H143   O150    1.013   .     S
H144   O152    1.014   .     S
C173   O253    1.302   .     A
C173   C174    1.452   .     S
C173   O233    1.303   .     A
C174   C211    1.400   .     A
C174   C208    1.401   .     A
C175   N232    1.376   .     A
C175   C203    1.475   .     S
C175   C694    1.428   1_545 S
C176   C204    1.475   .     S
C176   N231    1.376   .     A
C176   C435    1.428   .     S
C177   C205    1.472   .     S
C177   N232    1.375   .     A
C177   C692    1.428   1_545 S
C178   C207    1.473   .     S
C178   N231    1.375   .     A
C178   C433    1.428   .     S
C179   O257    1.301   .     A
C179   C185    1.451   .     S
C179   O254    1.301   .     A
C180   O255    1.301   .     A
C180   O256    1.301   .     A
C180   C183    1.452   .     S
C181   C197    1.486   .     S
C181   C192    1.422   .     A
C181   C183    1.407   .     A
C182   C198    1.486   .     S
C182   C193    1.422   .     A
C182   C185    1.405   .     A
C183   C186    1.385   .     A
C184   O244    1.302   .     A
C184   C212    1.452   .     S
C184   O252    1.302   .     A
C185   C187    1.384   .     A
C186   C188    1.398   .     A
C186   H215    1.083   .     S
C187   H223    1.083   .     S
C187   C189    1.398   .     A
C188   C194    1.414   .     A
C188   C190    1.418   .     A
C189   C196    1.414   .     A
C189   C191    1.418   .     A
C190   C192    1.424   .     A
C190   C965    1.408   .     S
C191   C193    1.424   .     A
C191   C964    1.408   1_554 S
C192   C206    1.427   .     A
C193   C195    1.425   .     A
C194   C199    1.485   .     S
C194   C969    1.412   .     S
C195   C201    1.494   .     S
C195   C968    1.412   1_554 S
C196   C200    1.488   .     S
C196   C980    1.409   1_554 S
C197   O258    1.223   .     D
C197   O234    1.395   .     S
C198   O236    1.395   .     S
C198   O235    1.223   .     D
C199   O237    1.223   .     D
C199   O238    1.398   .     S
C200   O240    1.398   .     S
C200   O239    1.223   .     D
C201   O241    1.220   .     D
C201   H217    1.085   .     S
C202   O242    1.221   .     D
C202   C206    1.490   .     S
C202   H218    1.084   .     S
C203   O245    1.395   .     S
C203   O243    1.223   .     D
C204   O246    1.223   .     D
C204   O247    1.395   .     S
C205   O248    1.220   .     D
C205   O249    1.397   .     S
C206   C970    1.409   .     S
C207   O251    1.398   .     S
C207   O250    1.220   .     D
C208   H224    1.082   .     S
C209   C212    1.400   .     A
C209   H225    1.082   .     S
C209   C39     1.383   1_655 S
C210   H226    1.081   .     S
C210   C212    1.400   .     A
C210   C36     1.383   1_655 S
C211   H227    1.081   .     S
Cu213  Cu214   2.713   .     S
Cu213  O233    1.965   .     S
Cu213  O252    1.963   .     S
Cu213  N231    2.039   .     S
Cu213  O256    1.959   .     S
Cu213  O254    1.963   .     S
Cu214  O253    1.963   .     S
Cu214  N232    2.039   .     S
Cu214  O244    1.965   .     S
Cu214  O257    1.959   .     S
Cu214  O255    1.963   .     S
H216   O240    1.013   .     S
H219   O245    1.013   .     S
H220   O247    1.013   .     S
H221   O249    1.012   .     S
H222   O251    1.013   .     S
H228   O234    1.013   .     S
H229   O236    1.013   .     S
H230   O238    1.014   .     S
C259   O339    1.302   .     A
C259   C260    1.452   .     S
C259   O319    1.303   .     A
C260   C297    1.400   .     A
C260   C294    1.401   .     A
C261   N318    1.376   .     A
C261   C289    1.475   .     S
C262   C290    1.475   .     S
C262   N317    1.376   .     A
C262   C521    1.428   .     S
C263   C291    1.472   .     S
C263   N318    1.375   .     A
C264   C293    1.473   .     S
C264   N317    1.375   .     A
C264   C519    1.428   .     S
C265   O343    1.301   .     A
C265   C271    1.451   .     S
C265   O340    1.301   .     A
C266   O341    1.301   .     A
C266   O342    1.301   .     A
C266   C269    1.452   .     S
C267   C283    1.486   .     S
C267   C278    1.422   .     A
C267   C269    1.407   .     A
C268   C284    1.486   .     S
C268   C279    1.422   .     A
C268   C271    1.405   .     A
C269   C272    1.385   .     A
C270   O330    1.302   .     A
C270   C298    1.452   .     S
C270   O338    1.302   .     A
C271   C273    1.384   .     A
C272   C274    1.398   .     A
C272   H301    1.083   .     S
C273   H309    1.083   .     S
C273   C275    1.398   .     A
C274   C280    1.414   .     A
C274   C276    1.418   .     A
C275   C282    1.414   .     A
C275   C277    1.418   .     A
C276   C278    1.424   .     A
C276   C1051   1.408   .     S
C277   C279    1.424   .     A
C277   C1050   1.408   1_554 S
C278   C292    1.427   .     A
C279   C281    1.425   .     A
C280   C285    1.485   .     S
C280   C1055   1.412   .     S
C281   C287    1.494   .     S
C281   C1054   1.412   1_554 S
C282   C286    1.488   .     S
C282   C1066   1.409   1_554 S
C283   O344    1.223   .     D
C283   O320    1.395   .     S
C284   O322    1.395   .     S
C284   O321    1.223   .     D
C285   O323    1.223   .     D
C285   O324    1.398   .     S
C286   O326    1.398   .     S
C286   O325    1.223   .     D
C287   O327    1.220   .     D
C287   H303    1.085   .     S
C288   O328    1.221   .     D
C288   C292    1.490   .     S
C288   H304    1.084   .     S
C289   O331    1.395   .     S
C289   O329    1.223   .     D
C290   O332    1.223   .     D
C290   O333    1.395   .     S
C291   O334    1.220   .     D
C291   O335    1.397   .     S
C292   C1056   1.409   .     S
C293   O337    1.398   .     S
C293   O336    1.220   .     D
C294   H310    1.082   .     S
C294   C468    1.383   1_455 S
C295   C298    1.400   .     A
C295   H311    1.082   .     S
C295   C383    1.383   .     S
C296   H312    1.081   .     S
C296   C298    1.400   .     A
C296   C380    1.383   .     S
C297   H313    1.081   .     S
C297   C467    1.383   1_455 S
Cu299  Cu300   2.713   .     S
Cu299  O319    1.965   .     S
Cu299  O338    1.963   .     S
Cu299  N317    2.039   .     S
Cu299  O342    1.959   .     S
Cu299  O340    1.963   .     S
Cu300  O339    1.963   .     S
Cu300  N318    2.039   .     S
Cu300  O330    1.965   .     S
Cu300  O343    1.959   .     S
Cu300  O341    1.963   .     S
H302   O326    1.013   .     S
H305   O331    1.013   .     S
H306   O333    1.013   .     S
H307   O335    1.012   .     S
H308   O337    1.013   .     S
H314   O320    1.013   .     S
H315   O322    1.013   .     S
H316   O324    1.014   .     S
C345   O425    1.302   .     A
C345   C346    1.452   .     S
C345   O405    1.303   .     A
C346   C383    1.400   .     A
C346   C380    1.401   .     A
C347   N404    1.376   .     A
C347   C375    1.475   .     S
C348   C376    1.475   .     S
C348   N403    1.376   .     A
C348   C607    1.428   .     S
C349   C377    1.472   .     S
C349   N404    1.375   .     A
C350   C379    1.473   .     S
C350   N403    1.375   .     A
C350   C605    1.428   .     S
C351   O429    1.301   .     A
C351   C357    1.451   .     S
C351   O426    1.301   .     A
C352   O427    1.301   .     A
C352   O428    1.301   .     A
C352   C355    1.452   .     S
C353   C369    1.486   .     S
C353   C364    1.422   .     A
C353   C355    1.407   .     A
C354   C370    1.486   .     S
C354   C365    1.422   .     A
C354   C357    1.405   .     A
C355   C358    1.385   .     A
C356   O416    1.302   .     A
C356   C384    1.452   .     S
C356   O424    1.302   .     A
C357   C359    1.384   .     A
C358   C360    1.398   .     A
C358   H387    1.083   .     S
C359   H395    1.083   .     S
C359   C361    1.398   .     A
C360   C366    1.414   .     A
C360   C362    1.418   .     A
C361   C368    1.414   .     A
C361   C363    1.418   .     A
C362   C364    1.424   .     A
C362   C1137   1.408   .     S
C363   C365    1.424   .     A
C363   C1136   1.408   1_554 S
C364   C378    1.427   .     A
C365   C367    1.425   .     A
C366   C371    1.485   .     S
C366   C1141   1.412   .     S
C367   C373    1.494   .     S
C367   C1140   1.412   1_554 S
C368   C372    1.488   .     S
C368   C1152   1.409   1_554 S
C369   O430    1.223   .     D
C369   O406    1.395   .     S
C370   O408    1.395   .     S
C370   O407    1.223   .     D
C371   O409    1.223   .     D
C371   O410    1.398   .     S
C372   O412    1.398   .     S
C372   O411    1.223   .     D
C373   O413    1.220   .     D
C373   H389    1.085   .     S
C374   O414    1.221   .     D
C374   C378    1.490   .     S
C374   H390    1.084   .     S
C375   O417    1.395   .     S
C375   O415    1.223   .     D
C376   O418    1.223   .     D
C376   O419    1.395   .     S
C377   O420    1.220   .     D
C377   O421    1.397   .     S
C378   C1142   1.409   .     S
C379   O423    1.398   .     S
C379   O422    1.220   .     D
C380   H396    1.082   .     S
C381   C384    1.400   .     A
C381   H397    1.082   .     S
C381   C469    1.383   .     S
C382   H398    1.081   .     S
C382   C384    1.400   .     A
C382   C466    1.383   .     S
C383   H399    1.081   .     S
Cu385  Cu386   2.713   .     S
Cu385  O405    1.965   .     S
Cu385  O424    1.963   .     S
Cu385  N403    2.039   .     S
Cu385  O428    1.959   .     S
Cu385  O426    1.963   .     S
Cu386  O425    1.963   .     S
Cu386  N404    2.039   .     S
Cu386  O416    1.965   .     S
Cu386  O429    1.959   .     S
Cu386  O427    1.963   .     S
H388   O412    1.013   .     S
H391   O417    1.013   .     S
H392   O419    1.013   .     S
H393   O421    1.012   .     S
H394   O423    1.013   .     S
H400   O406    1.013   .     S
H401   O408    1.013   .     S
H402   O410    1.014   .     S
C431   O511    1.302   .     A
C431   C432    1.452   .     S
C431   O491    1.303   .     A
C432   C469    1.400   .     A
C432   C466    1.401   .     A
C433   N490    1.376   .     A
C433   C461    1.475   .     S
C434   C462    1.475   .     S
C434   N489    1.376   .     A
C434   C693    1.428   .     S
C435   C463    1.472   .     S
C435   N490    1.375   .     A
C436   C465    1.473   .     S
C436   N489    1.375   .     A
C436   C691    1.428   .     S
C437   O515    1.301   .     A
C437   C443    1.451   .     S
C437   O512    1.301   .     A
C438   O513    1.301   .     A
C438   O514    1.301   .     A
C438   C441    1.452   .     S
C439   C455    1.486   .     S
C439   C450    1.422   .     A
C439   C441    1.407   .     A
C440   C456    1.486   .     S
C440   C451    1.422   .     A
C440   C443    1.405   .     A
C441   C444    1.385   .     A
C442   O502    1.302   .     A
C442   C470    1.452   .     S
C442   O510    1.302   .     A
C443   C445    1.384   .     A
C444   C446    1.398   .     A
C444   H473    1.083   .     S
C445   H481    1.083   .     S
C445   C447    1.398   .     A
C446   C452    1.414   .     A
C446   C448    1.418   .     A
C447   C454    1.414   .     A
C447   C449    1.418   .     A
C448   C450    1.424   .     A
C448   C1223   1.408   .     S
C449   C451    1.424   .     A
C449   C1222   1.408   1_554 S
C450   C464    1.427   .     A
C451   C453    1.425   .     A
C452   C457    1.485   .     S
C452   C1227   1.412   .     S
C453   C459    1.494   .     S
C453   C1226   1.412   1_554 S
C454   C458    1.488   .     S
C454   C1238   1.409   1_554 S
C455   O516    1.223   .     D
C455   O492    1.395   .     S
C456   O494    1.395   .     S
C456   O493    1.223   .     D
C457   O495    1.223   .     D
C457   O496    1.398   .     S
C458   O498    1.398   .     S
C458   O497    1.223   .     D
C459   O499    1.220   .     D
C459   H475    1.085   .     S
C460   O500    1.221   .     D
C460   C464    1.490   .     S
C460   H476    1.084   .     S
C461   O503    1.395   .     S
C461   O501    1.223   .     D
C462   O504    1.223   .     D
C462   O505    1.395   .     S
C463   O506    1.220   .     D
C463   O507    1.397   .     S
C464   C1228   1.409   .     S
C465   O509    1.398   .     S
C465   O508    1.220   .     D
C466   H482    1.082   .     S
C467   C470    1.400   .     A
C467   H483    1.082   .     S
C467   C297    1.383   1_655 S
C468   H484    1.081   .     S
C468   C470    1.400   .     A
C468   C294    1.383   1_655 S
C469   H485    1.081   .     S
Cu471  Cu472   2.713   .     S
Cu471  O491    1.965   .     S
Cu471  O510    1.963   .     S
Cu471  N489    2.039   .     S
Cu471  O514    1.959   .     S
Cu471  O512    1.963   .     S
Cu472  O511    1.963   .     S
Cu472  N490    2.039   .     S
Cu472  O502    1.965   .     S
Cu472  O515    1.959   .     S
Cu472  O513    1.963   .     S
H474   O498    1.013   .     S
H477   O503    1.013   .     S
H478   O505    1.013   .     S
H479   O507    1.012   .     S
H480   O509    1.013   .     S
H486   O492    1.013   .     S
H487   O494    1.013   .     S
H488   O496    1.014   .     S
C517   O597    1.302   .     A
C517   C518    1.452   .     S
C517   O577    1.303   .     A
C518   C555    1.400   .     A
C518   C552    1.401   .     A
C519   N576    1.376   .     A
C519   C547    1.475   .     S
C520   C548    1.475   .     S
C520   N575    1.376   .     A
C520   C5      1.428   1_565 S
C521   C549    1.472   .     S
C521   N576    1.375   .     A
C522   C551    1.473   .     S
C522   N575    1.375   .     A
C522   C3      1.428   1_565 S
C523   O601    1.301   .     A
C523   C529    1.451   .     S
C523   O598    1.301   .     A
C524   O599    1.301   .     A
C524   O600    1.301   .     A
C524   C527    1.452   .     S
C525   C541    1.486   .     S
C525   C536    1.422   .     A
C525   C527    1.407   .     A
C526   C542    1.486   .     S
C526   C537    1.422   .     A
C526   C529    1.405   .     A
C527   C530    1.385   .     A
C528   O588    1.302   .     A
C528   C556    1.452   .     S
C528   O596    1.302   .     A
C529   C531    1.384   .     A
C530   C532    1.398   .     A
C530   H559    1.083   .     S
C531   H567    1.083   .     S
C531   C533    1.398   .     A
C532   C538    1.414   .     A
C532   C534    1.418   .     A
C533   C540    1.414   .     A
C533   C535    1.418   .     A
C534   C536    1.424   .     A
C534   C1309   1.408   .     S
C535   C537    1.424   .     A
C535   C1308   1.408   1_554 S
C536   C550    1.427   .     A
C537   C539    1.425   .     A
C538   C543    1.485   .     S
C538   C1313   1.412   .     S
C539   C545    1.494   .     S
C539   C1312   1.412   1_554 S
C540   C544    1.488   .     S
C540   C1324   1.409   1_554 S
C541   O602    1.223   .     D
C541   O578    1.395   .     S
C542   O580    1.395   .     S
C542   O579    1.223   .     D
C543   O581    1.223   .     D
C543   O582    1.398   .     S
C544   O584    1.398   .     S
C544   O583    1.223   .     D
C545   O585    1.220   .     D
C545   H561    1.085   .     S
C546   O586    1.221   .     D
C546   C550    1.490   .     S
C546   H562    1.084   .     S
C547   O589    1.395   .     S
C547   O587    1.223   .     D
C548   O590    1.223   .     D
C548   O591    1.395   .     S
C549   O592    1.220   .     D
C549   O593    1.397   .     S
C550   C1314   1.409   .     S
C551   O595    1.398   .     S
C551   O594    1.220   .     D
C552   H568    1.082   .     S
C552   C726    1.383   1_455 S
C553   C556    1.400   .     A
C553   H569    1.082   .     S
C553   C641    1.383   .     S
C554   H570    1.081   .     S
C554   C556    1.400   .     A
C554   C638    1.383   .     S
C555   H571    1.081   .     S
C555   C725    1.383   1_455 S
Cu557  Cu558   2.713   .     S
Cu557  O577    1.965   .     S
Cu557  O596    1.963   .     S
Cu557  N575    2.039   .     S
Cu557  O600    1.959   .     S
Cu557  O598    1.963   .     S
Cu558  O597    1.963   .     S
Cu558  N576    2.039   .     S
Cu558  O588    1.965   .     S
Cu558  O601    1.959   .     S
Cu558  O599    1.963   .     S
H560   O584    1.013   .     S
H563   O589    1.013   .     S
H564   O591    1.013   .     S
H565   O593    1.012   .     S
H566   O595    1.013   .     S
H572   O578    1.013   .     S
H573   O580    1.013   .     S
H574   O582    1.014   .     S
C603   O683    1.302   .     A
C603   C604    1.452   .     S
C603   O663    1.303   .     A
C604   C641    1.400   .     A
C604   C638    1.401   .     A
C605   N662    1.376   .     A
C605   C633    1.475   .     S
C606   C634    1.475   .     S
C606   N661    1.376   .     A
C606   C91     1.428   1_565 S
C607   C635    1.472   .     S
C607   N662    1.375   .     A
C608   C637    1.473   .     S
C608   N661    1.375   .     A
C608   C89     1.428   1_565 S
C609   O687    1.301   .     A
C609   C615    1.451   .     S
C609   O684    1.301   .     A
C610   O685    1.301   .     A
C610   O686    1.301   .     A
C610   C613    1.452   .     S
C611   C627    1.486   .     S
C611   C622    1.422   .     A
C611   C613    1.407   .     A
C612   C628    1.486   .     S
C612   C623    1.422   .     A
C612   C615    1.405   .     A
C613   C616    1.385   .     A
C614   O674    1.302   .     A
C614   C642    1.452   .     S
C614   O682    1.302   .     A
C615   C617    1.384   .     A
C616   C618    1.398   .     A
C616   H645    1.083   .     S
C617   H653    1.083   .     S
C617   C619    1.398   .     A
C618   C624    1.414   .     A
C618   C620    1.418   .     A
C619   C626    1.414   .     A
C619   C621    1.418   .     A
C620   C622    1.424   .     A
C620   C1395   1.408   .     S
C621   C623    1.424   .     A
C621   C1394   1.408   1_554 S
C622   C636    1.427   .     A
C623   C625    1.425   .     A
C624   C629    1.485   .     S
C624   C1399   1.412   .     S
C625   C631    1.494   .     S
C625   C1398   1.412   1_554 S
C626   C630    1.488   .     S
C626   C1410   1.409   1_554 S
C627   O688    1.223   .     D
C627   O664    1.395   .     S
C628   O666    1.395   .     S
C628   O665    1.223   .     D
C629   O667    1.223   .     D
C629   O668    1.398   .     S
C630   O670    1.398   .     S
C630   O669    1.223   .     D
C631   O671    1.220   .     D
C631   H647    1.085   .     S
C632   O672    1.221   .     D
C632   C636    1.490   .     S
C632   H648    1.084   .     S
C633   O675    1.395   .     S
C633   O673    1.223   .     D
C634   O676    1.223   .     D
C634   O677    1.395   .     S
C635   O678    1.220   .     D
C635   O679    1.397   .     S
C636   C1400   1.409   .     S
C637   O681    1.398   .     S
C637   O680    1.220   .     D
C638   H654    1.082   .     S
C639   C642    1.400   .     A
C639   H655    1.082   .     S
C639   C727    1.383   .     S
C640   H656    1.081   .     S
C640   C642    1.400   .     A
C640   C724    1.383   .     S
C641   H657    1.081   .     S
Cu643  Cu644   2.713   .     S
Cu643  O663    1.965   .     S
Cu643  O682    1.963   .     S
Cu643  N661    2.039   .     S
Cu643  O686    1.959   .     S
Cu643  O684    1.963   .     S
Cu644  O683    1.963   .     S
Cu644  N662    2.039   .     S
Cu644  O674    1.965   .     S
Cu644  O687    1.959   .     S
Cu644  O685    1.963   .     S
H646   O670    1.013   .     S
H649   O675    1.013   .     S
H650   O677    1.013   .     S
H651   O679    1.012   .     S
H652   O681    1.013   .     S
H658   O664    1.013   .     S
H659   O666    1.013   .     S
H660   O668    1.014   .     S
C689   O769    1.302   .     A
C689   C690    1.452   .     S
C689   O749    1.303   .     A
C690   C727    1.400   .     A
C690   C724    1.401   .     A
C691   N748    1.376   .     A
C691   C719    1.475   .     S
C692   C720    1.475   .     S
C692   N747    1.376   .     A
C692   C177    1.428   1_565 S
C693   C721    1.472   .     S
C693   N748    1.375   .     A
C694   C723    1.473   .     S
C694   N747    1.375   .     A
C694   C175    1.428   1_565 S
C695   O773    1.301   .     A
C695   C701    1.451   .     S
C695   O770    1.301   .     A
C696   O771    1.301   .     A
C696   O772    1.301   .     A
C696   C699    1.452   .     S
C697   C713    1.486   .     S
C697   C708    1.422   .     A
C697   C699    1.407   .     A
C698   C714    1.486   .     S
C698   C709    1.422   .     A
C698   C701    1.405   .     A
C699   C702    1.385   .     A
C700   O760    1.302   .     A
C700   C728    1.452   .     S
C700   O768    1.302   .     A
C701   C703    1.384   .     A
C702   C704    1.398   .     A
C702   H731    1.083   .     S
C703   H739    1.083   .     S
C703   C705    1.398   .     A
C704   C710    1.414   .     A
C704   C706    1.418   .     A
C705   C712    1.414   .     A
C705   C707    1.418   .     A
C706   C708    1.424   .     A
C706   C1481   1.408   .     S
C707   C709    1.424   .     A
C707   C1480   1.408   1_554 S
C708   C722    1.427   .     A
C709   C711    1.425   .     A
C710   C715    1.485   .     S
C710   C1485   1.412   .     S
C711   C717    1.494   .     S
C711   C1484   1.412   1_554 S
C712   C716    1.488   .     S
C712   C1496   1.409   1_554 S
C713   O774    1.223   .     D
C713   O750    1.395   .     S
C714   O752    1.395   .     S
C714   O751    1.223   .     D
C715   O753    1.223   .     D
C715   O754    1.398   .     S
C716   O756    1.398   .     S
C716   O755    1.223   .     D
C717   O757    1.220   .     D
C717   H733    1.085   .     S
C718   O758    1.221   .     D
C718   C722    1.490   .     S
C718   H734    1.084   .     S
C719   O761    1.395   .     S
C719   O759    1.223   .     D
C720   O762    1.223   .     D
C720   O763    1.395   .     S
C721   O764    1.220   .     D
C721   O765    1.397   .     S
C722   C1486   1.409   .     S
C723   O767    1.398   .     S
C723   O766    1.220   .     D
C724   H740    1.082   .     S
C725   C728    1.400   .     A
C725   H741    1.082   .     S
C725   C555    1.383   1_655 S
C726   H742    1.081   .     S
C726   C728    1.400   .     A
C726   C552    1.383   1_655 S
C727   H743    1.081   .     S
Cu729  Cu730   2.713   .     S
Cu729  O749    1.965   .     S
Cu729  O768    1.963   .     S
Cu729  N747    2.039   .     S
Cu729  O772    1.959   .     S
Cu729  O770    1.963   .     S
Cu730  O769    1.963   .     S
Cu730  N748    2.039   .     S
Cu730  O760    1.965   .     S
Cu730  O773    1.959   .     S
Cu730  O771    1.963   .     S
H732   O756    1.013   .     S
H735   O761    1.013   .     S
H736   O763    1.013   .     S
H737   O765    1.012   .     S
H738   O767    1.013   .     S
H744   O750    1.013   .     S
H745   O752    1.013   .     S
H746   O754    1.014   .     S
C775   O855    1.302   .     A
C775   C776    1.452   .     S
C775   O835    1.303   .     A
C776   C813    1.400   .     A
C776   C810    1.401   .     A
C777   N834    1.376   .     A
C777   C805    1.475   .     S
C777   C1296   1.428   1_545 S
C778   C806    1.475   .     S
C778   N833    1.376   .     A
C778   C1037   1.428   .     S
C779   C807    1.472   .     S
C779   N834    1.375   .     A
C779   C1294   1.428   1_545 S
C780   C809    1.473   .     S
C780   N833    1.375   .     A
C780   C1035   1.428   .     S
C781   O859    1.301   .     A
C781   C787    1.451   .     S
C781   O856    1.301   .     A
C782   O857    1.301   .     A
C782   O858    1.301   .     A
C782   C785    1.452   .     S
C783   C799    1.486   .     S
C783   C794    1.422   .     A
C783   C785    1.407   .     A
C784   C800    1.486   .     S
C784   C795    1.422   .     A
C784   C787    1.405   .     A
C785   C788    1.385   .     A
C786   O846    1.302   .     A
C786   C814    1.452   .     S
C786   O854    1.302   .     A
C787   C789    1.384   .     A
C788   C790    1.398   .     A
C788   H817    1.083   .     S
C789   H825    1.083   .     S
C789   C791    1.398   .     A
C790   C796    1.414   .     A
C790   C792    1.418   .     A
C791   C798    1.414   .     A
C791   C793    1.418   .     A
C792   C794    1.424   .     A
C792   C19     1.408   1_556 S
C793   C795    1.424   .     A
C794   C808    1.427   .     A
C795   C797    1.425   .     A
C796   C801    1.485   .     S
C796   C23     1.412   1_556 S
C797   C803    1.494   .     S
C798   C802    1.488   .     S
C799   O860    1.223   .     D
C799   O836    1.395   .     S
C800   O838    1.395   .     S
C800   O837    1.223   .     D
C801   O839    1.223   .     D
C801   O840    1.398   .     S
C802   O842    1.398   .     S
C802   O841    1.223   .     D
C803   O843    1.220   .     D
C803   H819    1.085   .     S
C804   O844    1.221   .     D
C804   C808    1.490   .     S
C804   H820    1.084   .     S
C805   O847    1.395   .     S
C805   O845    1.223   .     D
C806   O848    1.223   .     D
C806   O849    1.395   .     S
C807   O850    1.220   .     D
C807   O851    1.397   .     S
C808   C24     1.409   1_556 S
C809   O853    1.398   .     S
C809   O852    1.220   .     D
C810   H826    1.082   .     S
C810   C984    1.383   1_455 S
C811   C814    1.400   .     A
C811   H827    1.082   .     S
C811   C899    1.383   .     S
C812   H828    1.081   .     S
C812   C814    1.400   .     A
C812   C896    1.383   .     S
C813   H829    1.081   .     S
C813   C983    1.383   1_455 S
Cu815  Cu816   2.713   .     S
Cu815  O835    1.965   .     S
Cu815  O854    1.963   .     S
Cu815  N833    2.039   .     S
Cu815  O858    1.959   .     S
Cu815  O856    1.963   .     S
Cu816  O855    1.963   .     S
Cu816  N834    2.039   .     S
Cu816  O846    1.965   .     S
Cu816  O859    1.959   .     S
Cu816  O857    1.963   .     S
H818   O842    1.013   .     S
H821   O847    1.013   .     S
H822   O849    1.013   .     S
H823   O851    1.012   .     S
H824   O853    1.013   .     S
H830   O836    1.013   .     S
H831   O838    1.013   .     S
H832   O840    1.014   .     S
C861   O941    1.302   .     A
C861   C862    1.452   .     S
C861   O921    1.303   .     A
C862   C899    1.400   .     A
C862   C896    1.401   .     A
C863   N920    1.376   .     A
C863   C891    1.475   .     S
C863   C1382   1.428   1_545 S
C864   C892    1.475   .     S
C864   N919    1.376   .     A
C864   C1123   1.428   .     S
C865   C893    1.472   .     S
C865   N920    1.375   .     A
C865   C1380   1.428   1_545 S
C866   C895    1.473   .     S
C866   N919    1.375   .     A
C866   C1121   1.428   .     S
C867   O945    1.301   .     A
C867   C873    1.451   .     S
C867   O942    1.301   .     A
C868   O943    1.301   .     A
C868   O944    1.301   .     A
C868   C871    1.452   .     S
C869   C885    1.486   .     S
C869   C880    1.422   .     A
C869   C871    1.407   .     A
C870   C886    1.486   .     S
C870   C881    1.422   .     A
C870   C873    1.405   .     A
C871   C874    1.385   .     A
C872   O932    1.302   .     A
C872   C900    1.452   .     S
C872   O940    1.302   .     A
C873   C875    1.384   .     A
C874   C876    1.398   .     A
C874   H903    1.083   .     S
C875   H911    1.083   .     S
C875   C877    1.398   .     A
C876   C882    1.414   .     A
C876   C878    1.418   .     A
C877   C884    1.414   .     A
C877   C879    1.418   .     A
C878   C880    1.424   .     A
C878   C105    1.408   1_556 S
C879   C881    1.424   .     A
C880   C894    1.427   .     A
C881   C883    1.425   .     A
C882   C887    1.485   .     S
C882   C109    1.412   1_556 S
C883   C889    1.494   .     S
C884   C888    1.488   .     S
C885   O946    1.223   .     D
C885   O922    1.395   .     S
C886   O924    1.395   .     S
C886   O923    1.223   .     D
C887   O925    1.223   .     D
C887   O926    1.398   .     S
C888   O928    1.398   .     S
C888   O927    1.223   .     D
C889   O929    1.220   .     D
C889   H905    1.085   .     S
C890   O930    1.221   .     D
C890   C894    1.490   .     S
C890   H906    1.084   .     S
C891   O933    1.395   .     S
C891   O931    1.223   .     D
C892   O934    1.223   .     D
C892   O935    1.395   .     S
C893   O936    1.220   .     D
C893   O937    1.397   .     S
C894   C110    1.409   1_556 S
C895   O939    1.398   .     S
C895   O938    1.220   .     D
C896   H912    1.082   .     S
C897   C900    1.400   .     A
C897   H913    1.082   .     S
C897   C985    1.383   .     S
C898   H914    1.081   .     S
C898   C900    1.400   .     A
C898   C982    1.383   .     S
C899   H915    1.081   .     S
Cu901  Cu902   2.713   .     S
Cu901  O921    1.965   .     S
Cu901  O940    1.963   .     S
Cu901  N919    2.039   .     S
Cu901  O944    1.959   .     S
Cu901  O942    1.963   .     S
Cu902  O941    1.963   .     S
Cu902  N920    2.039   .     S
Cu902  O932    1.965   .     S
Cu902  O945    1.959   .     S
Cu902  O943    1.963   .     S
H904   O928    1.013   .     S
H907   O933    1.013   .     S
H908   O935    1.013   .     S
H909   O937    1.012   .     S
H910   O939    1.013   .     S
H916   O922    1.013   .     S
H917   O924    1.013   .     S
H918   O926    1.014   .     S
C947   O1027   1.302   .     A
C947   C948    1.452   .     S
C947   O1007   1.303   .     A
C948   C985    1.400   .     A
C948   C982    1.401   .     A
C949   N1006   1.376   .     A
C949   C977    1.475   .     S
C949   C1468   1.428   1_545 S
C950   C978    1.475   .     S
C950   N1005   1.376   .     A
C950   C1209   1.428   .     S
C951   C979    1.472   .     S
C951   N1006   1.375   .     A
C951   C1466   1.428   1_545 S
C952   C981    1.473   .     S
C952   N1005   1.375   .     A
C952   C1207   1.428   .     S
C953   O1031   1.301   .     A
C953   C959    1.451   .     S
C953   O1028   1.301   .     A
C954   O1029   1.301   .     A
C954   O1030   1.301   .     A
C954   C957    1.452   .     S
C955   C971    1.486   .     S
C955   C966    1.422   .     A
C955   C957    1.407   .     A
C956   C972    1.486   .     S
C956   C967    1.422   .     A
C956   C959    1.405   .     A
C957   C960    1.385   .     A
C958   O1018   1.302   .     A
C958   C986    1.452   .     S
C958   O1026   1.302   .     A
C959   C961    1.384   .     A
C960   C962    1.398   .     A
C960   H989    1.083   .     S
C961   H997    1.083   .     S
C961   C963    1.398   .     A
C962   C968    1.414   .     A
C962   C964    1.418   .     A
C963   C970    1.414   .     A
C963   C965    1.418   .     A
C964   C966    1.424   .     A
C964   C191    1.408   1_556 S
C965   C967    1.424   .     A
C966   C980    1.427   .     A
C967   C969    1.425   .     A
C968   C973    1.485   .     S
C968   C195    1.412   1_556 S
C969   C975    1.494   .     S
C970   C974    1.488   .     S
C971   O1032   1.223   .     D
C971   O1008   1.395   .     S
C972   O1010   1.395   .     S
C972   O1009   1.223   .     D
C973   O1011   1.223   .     D
C973   O1012   1.398   .     S
C974   O1014   1.398   .     S
C974   O1013   1.223   .     D
C975   O1015   1.220   .     D
C975   H991    1.085   .     S
C976   O1016   1.221   .     D
C976   C980    1.490   .     S
C976   H992    1.084   .     S
C977   O1019   1.395   .     S
C977   O1017   1.223   .     D
C978   O1020   1.223   .     D
C978   O1021   1.395   .     S
C979   O1022   1.220   .     D
C979   O1023   1.397   .     S
C980   C196    1.409   1_556 S
C981   O1025   1.398   .     S
C981   O1024   1.220   .     D
C982   H998    1.082   .     S
C983   C986    1.400   .     A
C983   H999    1.082   .     S
C983   C813    1.383   1_655 S
C984   H1000   1.081   .     S
C984   C986    1.400   .     A
C984   C810    1.383   1_655 S
C985   H1001   1.081   .     S
Cu987  Cu988   2.713   .     S
Cu987  O1007   1.965   .     S
Cu987  O1026   1.963   .     S
Cu987  N1005   2.039   .     S
Cu987  O1030   1.959   .     S
Cu987  O1028   1.963   .     S
Cu988  O1027   1.963   .     S
Cu988  N1006   2.039   .     S
Cu988  O1018   1.965   .     S
Cu988  O1031   1.959   .     S
Cu988  O1029   1.963   .     S
H990   O1014   1.013   .     S
H993   O1019   1.013   .     S
H994   O1021   1.013   .     S
H995   O1023   1.012   .     S
H996   O1025   1.013   .     S
H1002  O1008   1.013   .     S
H1003  O1010   1.013   .     S
H1004  O1012   1.014   .     S
C1033  O1113   1.302   .     A
C1033  C1034   1.452   .     S
C1033  O1093   1.303   .     A
C1034  C1071   1.400   .     A
C1034  C1068   1.401   .     A
C1035  N1092   1.376   .     A
C1035  C1063   1.475   .     S
C1036  C1064   1.475   .     S
C1036  N1091   1.376   .     A
C1036  C1295   1.428   .     S
C1037  C1065   1.472   .     S
C1037  N1092   1.375   .     A
C1038  C1067   1.473   .     S
C1038  N1091   1.375   .     A
C1038  C1293   1.428   .     S
C1039  O1117   1.301   .     A
C1039  C1045   1.451   .     S
C1039  O1114   1.301   .     A
C1040  O1115   1.301   .     A
C1040  O1116   1.301   .     A
C1040  C1043   1.452   .     S
C1041  C1057   1.486   .     S
C1041  C1052   1.422   .     A
C1041  C1043   1.407   .     A
C1042  C1058   1.486   .     S
C1042  C1053   1.422   .     A
C1042  C1045   1.405   .     A
C1043  C1046   1.385   .     A
C1044  O1104   1.302   .     A
C1044  C1072   1.452   .     S
C1044  O1112   1.302   .     A
C1045  C1047   1.384   .     A
C1046  C1048   1.398   .     A
C1046  H1075   1.083   .     S
C1047  H1083   1.083   .     S
C1047  C1049   1.398   .     A
C1048  C1054   1.414   .     A
C1048  C1050   1.418   .     A
C1049  C1056   1.414   .     A
C1049  C1051   1.418   .     A
C1050  C1052   1.424   .     A
C1050  C277    1.408   1_556 S
C1051  C1053   1.424   .     A
C1052  C1066   1.427   .     A
C1053  C1055   1.425   .     A
C1054  C1059   1.485   .     S
C1054  C281    1.412   1_556 S
C1055  C1061   1.494   .     S
C1056  C1060   1.488   .     S
C1057  O1118   1.223   .     D
C1057  O1094   1.395   .     S
C1058  O1096   1.395   .     S
C1058  O1095   1.223   .     D
C1059  O1097   1.223   .     D
C1059  O1098   1.398   .     S
C1060  O1100   1.398   .     S
C1060  O1099   1.223   .     D
C1061  O1101   1.220   .     D
C1061  H1077   1.085   .     S
C1062  O1102   1.221   .     D
C1062  C1066   1.490   .     S
C1062  H1078   1.084   .     S
C1063  O1105   1.395   .     S
C1063  O1103   1.223   .     D
C1064  O1106   1.223   .     D
C1064  O1107   1.395   .     S
C1065  O1108   1.220   .     D
C1065  O1109   1.397   .     S
C1066  C282    1.409   1_556 S
C1067  O1111   1.398   .     S
C1067  O1110   1.220   .     D
C1068  H1084   1.082   .     S
C1068  C1242   1.383   1_455 S
C1069  C1072   1.400   .     A
C1069  H1085   1.082   .     S
C1069  C1157   1.383   .     S
C1070  H1086   1.081   .     S
C1070  C1072   1.400   .     A
C1070  C1154   1.383   .     S
C1071  H1087   1.081   .     S
C1071  C1241   1.383   1_455 S
Cu1073 Cu1074  2.713   .     S
Cu1073 O1093   1.965   .     S
Cu1073 O1112   1.963   .     S
Cu1073 N1091   2.039   .     S
Cu1073 O1116   1.959   .     S
Cu1073 O1114   1.963   .     S
Cu1074 O1113   1.963   .     S
Cu1074 N1092   2.039   .     S
Cu1074 O1104   1.965   .     S
Cu1074 O1117   1.959   .     S
Cu1074 O1115   1.963   .     S
H1076  O1100   1.013   .     S
H1079  O1105   1.013   .     S
H1080  O1107   1.013   .     S
H1081  O1109   1.012   .     S
H1082  O1111   1.013   .     S
H1088  O1094   1.013   .     S
H1089  O1096   1.013   .     S
H1090  O1098   1.014   .     S
C1119  O1199   1.302   .     A
C1119  C1120   1.452   .     S
C1119  O1179   1.303   .     A
C1120  C1157   1.400   .     A
C1120  C1154   1.401   .     A
C1121  N1178   1.376   .     A
C1121  C1149   1.475   .     S
C1122  C1150   1.475   .     S
C1122  N1177   1.376   .     A
C1122  C1381   1.428   .     S
C1123  C1151   1.472   .     S
C1123  N1178   1.375   .     A
C1124  C1153   1.473   .     S
C1124  N1177   1.375   .     A
C1124  C1379   1.428   .     S
C1125  O1203   1.301   .     A
C1125  C1131   1.451   .     S
C1125  O1200   1.301   .     A
C1126  O1201   1.301   .     A
C1126  O1202   1.301   .     A
C1126  C1129   1.452   .     S
C1127  C1143   1.486   .     S
C1127  C1138   1.422   .     A
C1127  C1129   1.407   .     A
C1128  C1144   1.486   .     S
C1128  C1139   1.422   .     A
C1128  C1131   1.405   .     A
C1129  C1132   1.385   .     A
C1130  O1190   1.302   .     A
C1130  C1158   1.452   .     S
C1130  O1198   1.302   .     A
C1131  C1133   1.384   .     A
C1132  C1134   1.398   .     A
C1132  H1161   1.083   .     S
C1133  H1169   1.083   .     S
C1133  C1135   1.398   .     A
C1134  C1140   1.414   .     A
C1134  C1136   1.418   .     A
C1135  C1142   1.414   .     A
C1135  C1137   1.418   .     A
C1136  C1138   1.424   .     A
C1136  C363    1.408   1_556 S
C1137  C1139   1.424   .     A
C1138  C1152   1.427   .     A
C1139  C1141   1.425   .     A
C1140  C1145   1.485   .     S
C1140  C367    1.412   1_556 S
C1141  C1147   1.494   .     S
C1142  C1146   1.488   .     S
C1143  O1204   1.223   .     D
C1143  O1180   1.395   .     S
C1144  O1182   1.395   .     S
C1144  O1181   1.223   .     D
C1145  O1183   1.223   .     D
C1145  O1184   1.398   .     S
C1146  O1186   1.398   .     S
C1146  O1185   1.223   .     D
C1147  O1187   1.220   .     D
C1147  H1163   1.085   .     S
C1148  O1188   1.221   .     D
C1148  C1152   1.490   .     S
C1148  H1164   1.084   .     S
C1149  O1191   1.395   .     S
C1149  O1189   1.223   .     D
C1150  O1192   1.223   .     D
C1150  O1193   1.395   .     S
C1151  O1194   1.220   .     D
C1151  O1195   1.397   .     S
C1152  C368    1.409   1_556 S
C1153  O1197   1.398   .     S
C1153  O1196   1.220   .     D
C1154  H1170   1.082   .     S
C1155  C1158   1.400   .     A
C1155  H1171   1.082   .     S
C1155  C1243   1.383   .     S
C1156  H1172   1.081   .     S
C1156  C1158   1.400   .     A
C1156  C1240   1.383   .     S
C1157  H1173   1.081   .     S
Cu1159 Cu1160  2.713   .     S
Cu1159 O1179   1.965   .     S
Cu1159 O1198   1.963   .     S
Cu1159 N1177   2.039   .     S
Cu1159 O1202   1.959   .     S
Cu1159 O1200   1.963   .     S
Cu1160 O1199   1.963   .     S
Cu1160 N1178   2.039   .     S
Cu1160 O1190   1.965   .     S
Cu1160 O1203   1.959   .     S
Cu1160 O1201   1.963   .     S
H1162  O1186   1.013   .     S
H1165  O1191   1.013   .     S
H1166  O1193   1.013   .     S
H1167  O1195   1.012   .     S
H1168  O1197   1.013   .     S
H1174  O1180   1.013   .     S
H1175  O1182   1.013   .     S
H1176  O1184   1.014   .     S
C1205  O1285   1.302   .     A
C1205  C1206   1.452   .     S
C1205  O1265   1.303   .     A
C1206  C1243   1.400   .     A
C1206  C1240   1.401   .     A
C1207  N1264   1.376   .     A
C1207  C1235   1.475   .     S
C1208  C1236   1.475   .     S
C1208  N1263   1.376   .     A
C1208  C1467   1.428   .     S
C1209  C1237   1.472   .     S
C1209  N1264   1.375   .     A
C1210  C1239   1.473   .     S
C1210  N1263   1.375   .     A
C1210  C1465   1.428   .     S
C1211  O1289   1.301   .     A
C1211  C1217   1.451   .     S
C1211  O1286   1.301   .     A
C1212  O1287   1.301   .     A
C1212  O1288   1.301   .     A
C1212  C1215   1.452   .     S
C1213  C1229   1.486   .     S
C1213  C1224   1.422   .     A
C1213  C1215   1.407   .     A
C1214  C1230   1.486   .     S
C1214  C1225   1.422   .     A
C1214  C1217   1.405   .     A
C1215  C1218   1.385   .     A
C1216  O1276   1.302   .     A
C1216  C1244   1.452   .     S
C1216  O1284   1.302   .     A
C1217  C1219   1.384   .     A
C1218  C1220   1.398   .     A
C1218  H1247   1.083   .     S
C1219  H1255   1.083   .     S
C1219  C1221   1.398   .     A
C1220  C1226   1.414   .     A
C1220  C1222   1.418   .     A
C1221  C1228   1.414   .     A
C1221  C1223   1.418   .     A
C1222  C1224   1.424   .     A
C1222  C449    1.408   1_556 S
C1223  C1225   1.424   .     A
C1224  C1238   1.427   .     A
C1225  C1227   1.425   .     A
C1226  C1231   1.485   .     S
C1226  C453    1.412   1_556 S
C1227  C1233   1.494   .     S
C1228  C1232   1.488   .     S
C1229  O1290   1.223   .     D
C1229  O1266   1.395   .     S
C1230  O1268   1.395   .     S
C1230  O1267   1.223   .     D
C1231  O1269   1.223   .     D
C1231  O1270   1.398   .     S
C1232  O1272   1.398   .     S
C1232  O1271   1.223   .     D
C1233  O1273   1.220   .     D
C1233  H1249   1.085   .     S
C1234  O1274   1.221   .     D
C1234  C1238   1.490   .     S
C1234  H1250   1.084   .     S
C1235  O1277   1.395   .     S
C1235  O1275   1.223   .     D
C1236  O1278   1.223   .     D
C1236  O1279   1.395   .     S
C1237  O1280   1.220   .     D
C1237  O1281   1.397   .     S
C1238  C454    1.409   1_556 S
C1239  O1283   1.398   .     S
C1239  O1282   1.220   .     D
C1240  H1256   1.082   .     S
C1241  C1244   1.400   .     A
C1241  H1257   1.082   .     S
C1241  C1071   1.383   1_655 S
C1242  H1258   1.081   .     S
C1242  C1244   1.400   .     A
C1242  C1068   1.383   1_655 S
C1243  H1259   1.081   .     S
Cu1245 Cu1246  2.713   .     S
Cu1245 O1265   1.965   .     S
Cu1245 O1284   1.963   .     S
Cu1245 N1263   2.039   .     S
Cu1245 O1288   1.959   .     S
Cu1245 O1286   1.963   .     S
Cu1246 O1285   1.963   .     S
Cu1246 N1264   2.039   .     S
Cu1246 O1276   1.965   .     S
Cu1246 O1289   1.959   .     S
Cu1246 O1287   1.963   .     S
H1248  O1272   1.013   .     S
H1251  O1277   1.013   .     S
H1252  O1279   1.013   .     S
H1253  O1281   1.012   .     S
H1254  O1283   1.013   .     S
H1260  O1266   1.013   .     S
H1261  O1268   1.013   .     S
H1262  O1270   1.014   .     S
C1291  O1371   1.302   .     A
C1291  C1292   1.452   .     S
C1291  O1351   1.303   .     A
C1292  C1329   1.400   .     A
C1292  C1326   1.401   .     A
C1293  N1350   1.376   .     A
C1293  C1321   1.475   .     S
C1294  C1322   1.475   .     S
C1294  N1349   1.376   .     A
C1294  C779    1.428   1_565 S
C1295  C1323   1.472   .     S
C1295  N1350   1.375   .     A
C1296  C1325   1.473   .     S
C1296  N1349   1.375   .     A
C1296  C777    1.428   1_565 S
C1297  O1375   1.301   .     A
C1297  C1303   1.451   .     S
C1297  O1372   1.301   .     A
C1298  O1373   1.301   .     A
C1298  O1374   1.301   .     A
C1298  C1301   1.452   .     S
C1299  C1315   1.486   .     S
C1299  C1310   1.422   .     A
C1299  C1301   1.407   .     A
C1300  C1316   1.486   .     S
C1300  C1311   1.422   .     A
C1300  C1303   1.405   .     A
C1301  C1304   1.385   .     A
C1302  O1362   1.302   .     A
C1302  C1330   1.452   .     S
C1302  O1370   1.302   .     A
C1303  C1305   1.384   .     A
C1304  C1306   1.398   .     A
C1304  H1333   1.083   .     S
C1305  H1341   1.083   .     S
C1305  C1307   1.398   .     A
C1306  C1312   1.414   .     A
C1306  C1308   1.418   .     A
C1307  C1314   1.414   .     A
C1307  C1309   1.418   .     A
C1308  C1310   1.424   .     A
C1308  C535    1.408   1_556 S
C1309  C1311   1.424   .     A
C1310  C1324   1.427   .     A
C1311  C1313   1.425   .     A
C1312  C1317   1.485   .     S
C1312  C539    1.412   1_556 S
C1313  C1319   1.494   .     S
C1314  C1318   1.488   .     S
C1315  O1376   1.223   .     D
C1315  O1352   1.395   .     S
C1316  O1354   1.395   .     S
C1316  O1353   1.223   .     D
C1317  O1355   1.223   .     D
C1317  O1356   1.398   .     S
C1318  O1358   1.398   .     S
C1318  O1357   1.223   .     D
C1319  O1359   1.220   .     D
C1319  H1335   1.085   .     S
C1320  O1360   1.221   .     D
C1320  C1324   1.490   .     S
C1320  H1336   1.084   .     S
C1321  O1363   1.395   .     S
C1321  O1361   1.223   .     D
C1322  O1364   1.223   .     D
C1322  O1365   1.395   .     S
C1323  O1366   1.220   .     D
C1323  O1367   1.397   .     S
C1324  C540    1.409   1_556 S
C1325  O1369   1.398   .     S
C1325  O1368   1.220   .     D
C1326  H1342   1.082   .     S
C1326  C1500   1.383   1_455 S
C1327  C1330   1.400   .     A
C1327  H1343   1.082   .     S
C1327  C1415   1.383   .     S
C1328  H1344   1.081   .     S
C1328  C1330   1.400   .     A
C1328  C1412   1.383   .     S
C1329  H1345   1.081   .     S
C1329  C1499   1.383   1_455 S
Cu1331 Cu1332  2.713   .     S
Cu1331 O1351   1.965   .     S
Cu1331 O1370   1.963   .     S
Cu1331 N1349   2.039   .     S
Cu1331 O1374   1.959   .     S
Cu1331 O1372   1.963   .     S
Cu1332 O1371   1.963   .     S
Cu1332 N1350   2.039   .     S
Cu1332 O1362   1.965   .     S
Cu1332 O1375   1.959   .     S
Cu1332 O1373   1.963   .     S
H1334  O1358   1.013   .     S
H1337  O1363   1.013   .     S
H1338  O1365   1.013   .     S
H1339  O1367   1.012   .     S
H1340  O1369   1.013   .     S
H1346  O1352   1.013   .     S
H1347  O1354   1.013   .     S
H1348  O1356   1.014   .     S
C1377  O1457   1.302   .     A
C1377  C1378   1.452   .     S
C1377  O1437   1.303   .     A
C1378  C1415   1.400   .     A
C1378  C1412   1.401   .     A
C1379  N1436   1.376   .     A
C1379  C1407   1.475   .     S
C1380  C1408   1.475   .     S
C1380  N1435   1.376   .     A
C1380  C865    1.428   1_565 S
C1381  C1409   1.472   .     S
C1381  N1436   1.375   .     A
C1382  C1411   1.473   .     S
C1382  N1435   1.375   .     A
C1382  C863    1.428   1_565 S
C1383  O1461   1.301   .     A
C1383  C1389   1.451   .     S
C1383  O1458   1.301   .     A
C1384  O1459   1.301   .     A
C1384  O1460   1.301   .     A
C1384  C1387   1.452   .     S
C1385  C1401   1.486   .     S
C1385  C1396   1.422   .     A
C1385  C1387   1.407   .     A
C1386  C1402   1.486   .     S
C1386  C1397   1.422   .     A
C1386  C1389   1.405   .     A
C1387  C1390   1.385   .     A
C1388  O1448   1.302   .     A
C1388  C1416   1.452   .     S
C1388  O1456   1.302   .     A
C1389  C1391   1.384   .     A
C1390  C1392   1.398   .     A
C1390  H1419   1.083   .     S
C1391  H1427   1.083   .     S
C1391  C1393   1.398   .     A
C1392  C1398   1.414   .     A
C1392  C1394   1.418   .     A
C1393  C1400   1.414   .     A
C1393  C1395   1.418   .     A
C1394  C1396   1.424   .     A
C1394  C621    1.408   1_556 S
C1395  C1397   1.424   .     A
C1396  C1410   1.427   .     A
C1397  C1399   1.425   .     A
C1398  C1403   1.485   .     S
C1398  C625    1.412   1_556 S
C1399  C1405   1.494   .     S
C1400  C1404   1.488   .     S
C1401  O1462   1.223   .     D
C1401  O1438   1.395   .     S
C1402  O1440   1.395   .     S
C1402  O1439   1.223   .     D
C1403  O1441   1.223   .     D
C1403  O1442   1.398   .     S
C1404  O1444   1.398   .     S
C1404  O1443   1.223   .     D
C1405  O1445   1.220   .     D
C1405  H1421   1.085   .     S
C1406  O1446   1.221   .     D
C1406  C1410   1.490   .     S
C1406  H1422   1.084   .     S
C1407  O1449   1.395   .     S
C1407  O1447   1.223   .     D
C1408  O1450   1.223   .     D
C1408  O1451   1.395   .     S
C1409  O1452   1.220   .     D
C1409  O1453   1.397   .     S
C1410  C626    1.409   1_556 S
C1411  O1455   1.398   .     S
C1411  O1454   1.220   .     D
C1412  H1428   1.082   .     S
C1413  C1416   1.400   .     A
C1413  H1429   1.082   .     S
C1413  C1501   1.383   .     S
C1414  H1430   1.081   .     S
C1414  C1416   1.400   .     A
C1414  C1498   1.383   .     S
C1415  H1431   1.081   .     S
Cu1417 Cu1418  2.713   .     S
Cu1417 O1437   1.965   .     S
Cu1417 O1456   1.963   .     S
Cu1417 N1435   2.039   .     S
Cu1417 O1460   1.959   .     S
Cu1417 O1458   1.963   .     S
Cu1418 O1457   1.963   .     S
Cu1418 N1436   2.039   .     S
Cu1418 O1448   1.965   .     S
Cu1418 O1461   1.959   .     S
Cu1418 O1459   1.963   .     S
H1420  O1444   1.013   .     S
H1423  O1449   1.013   .     S
H1424  O1451   1.013   .     S
H1425  O1453   1.012   .     S
H1426  O1455   1.013   .     S
H1432  O1438   1.013   .     S
H1433  O1440   1.013   .     S
H1434  O1442   1.014   .     S
C1463  O1543   1.302   .     A
C1463  C1464   1.452   .     S
C1463  O1523   1.303   .     A
C1464  C1501   1.400   .     A
C1464  C1498   1.401   .     A
C1465  N1522   1.376   .     A
C1465  C1493   1.475   .     S
C1466  C1494   1.475   .     S
C1466  N1521   1.376   .     A
C1466  C951    1.428   1_565 S
C1467  C1495   1.472   .     S
C1467  N1522   1.375   .     A
C1468  C1497   1.473   .     S
C1468  N1521   1.375   .     A
C1468  C949    1.428   1_565 S
C1469  O1547   1.301   .     A
C1469  C1475   1.451   .     S
C1469  O1544   1.301   .     A
C1470  O1545   1.301   .     A
C1470  O1546   1.301   .     A
C1470  C1473   1.452   .     S
C1471  C1487   1.486   .     S
C1471  C1482   1.422   .     A
C1471  C1473   1.407   .     A
C1472  C1488   1.486   .     S
C1472  C1483   1.422   .     A
C1472  C1475   1.405   .     A
C1473  C1476   1.385   .     A
C1474  O1534   1.302   .     A
C1474  C1502   1.452   .     S
C1474  O1542   1.302   .     A
C1475  C1477   1.384   .     A
C1476  C1478   1.398   .     A
C1476  H1505   1.083   .     S
C1477  H1513   1.083   .     S
C1477  C1479   1.398   .     A
C1478  C1484   1.414   .     A
C1478  C1480   1.418   .     A
C1479  C1486   1.414   .     A
C1479  C1481   1.418   .     A
C1480  C1482   1.424   .     A
C1480  C707    1.408   1_556 S
C1481  C1483   1.424   .     A
C1482  C1496   1.427   .     A
C1483  C1485   1.425   .     A
C1484  C1489   1.485   .     S
C1484  C711    1.412   1_556 S
C1485  C1491   1.494   .     S
C1486  C1490   1.488   .     S
C1487  O1548   1.223   .     D
C1487  O1524   1.395   .     S
C1488  O1526   1.395   .     S
C1488  O1525   1.223   .     D
C1489  O1527   1.223   .     D
C1489  O1528   1.398   .     S
C1490  O1530   1.398   .     S
C1490  O1529   1.223   .     D
C1491  O1531   1.220   .     D
C1491  H1507   1.085   .     S
C1492  O1532   1.221   .     D
C1492  C1496   1.490   .     S
C1492  H1508   1.084   .     S
C1493  O1535   1.395   .     S
C1493  O1533   1.223   .     D
C1494  O1536   1.223   .     D
C1494  O1537   1.395   .     S
C1495  O1538   1.220   .     D
C1495  O1539   1.397   .     S
C1496  C712    1.409   1_556 S
C1497  O1541   1.398   .     S
C1497  O1540   1.220   .     D
C1498  H1514   1.082   .     S
C1499  C1502   1.400   .     A
C1499  H1515   1.082   .     S
C1499  C1329   1.383   1_655 S
C1500  H1516   1.081   .     S
C1500  C1502   1.400   .     A
C1500  C1326   1.383   1_655 S
C1501  H1517   1.081   .     S
Cu1503 Cu1504  2.713   .     S
Cu1503 O1523   1.965   .     S
Cu1503 O1542   1.963   .     S
Cu1503 N1521   2.039   .     S
Cu1503 O1546   1.959   .     S
Cu1503 O1544   1.963   .     S
Cu1504 O1543   1.963   .     S
Cu1504 N1522   2.039   .     S
Cu1504 O1534   1.965   .     S
Cu1504 O1547   1.959   .     S
Cu1504 O1545   1.963   .     S
H1506  O1530   1.013   .     S
H1509  O1535   1.013   .     S
H1510  O1537   1.013   .     S
H1511  O1539   1.012   .     S
H1512  O1541   1.013   .     S
H1518  O1524   1.013   .     S
H1519  O1526   1.013   .     S
H1520  O1528   1.014   .     S
