data_str_m2_o10_o16_pcu_sym.14
_audit_creation_date              2020-01-03
_audit_creation_method            'Materials Studio'
_symmetry_space_group_name_H-M    'P1'
_symmetry_Int_Tables_number       1
_symmetry_cell_setting            triclinic
loop_
_symmetry_equiv_pos_as_xyz
  x,y,z
_cell_length_a                    22.2673
_cell_length_b                    26.2333
_cell_length_c                    26.8148
_cell_angle_alpha                 94.0810
_cell_angle_beta                  77.4213
_cell_angle_gamma                 102.9703
loop_
_atom_site_label
_atom_site_type_symbol
_atom_site_fract_x
_atom_site_fract_y
_atom_site_fract_z
_atom_site_U_iso_or_equiv
_atom_site_adp_type
_atom_site_occupancy
C1     C     0.18240   0.26646   0.24990   0.00000  Uiso   1.00
C2     C     0.11247   0.16508   0.40334   0.00000  Uiso   1.00
C3     C     0.19408   0.32176   0.24559   0.00000  Uiso   1.00
C4     C     0.13319   0.16604   0.34724   0.00000  Uiso   1.00
C5     C     0.14499   0.01107   0.24820   0.00000  Uiso   1.00
C6     C     0.15224   0.06671   0.24788   0.00000  Uiso   1.00
C7     C     0.20054   0.17034   0.15295   0.00000  Uiso   1.00
C8     C     0.29304   0.22537   0.02679   0.00000  Uiso   1.00
C9     C     0.22077   0.17888   0.09792   0.00000  Uiso   1.00
C10    C     0.05089   0.13885   0.42425   0.00000  Uiso   1.00
C11    C     0.03284   0.12869   0.47606   0.00000  Uiso   1.00
C12    C     0.13922   0.16900   0.48779   0.00000  Uiso   1.00
C13    C     0.07642   0.14249   0.00744   0.00000  Uiso   1.00
C14    C     0.15538   0.18439   0.43606   0.00000  Uiso   1.00
C15    C     0.18632   0.18129   0.01785   0.00000  Uiso   1.00
C16    C     0.24637   0.21268   0.49744   0.00000  Uiso   1.00
C17    C     0.25869   0.23224   0.44850   0.00000  Uiso   1.00
C18    C     0.21366   0.21906   0.41858   0.00000  Uiso   1.00
C19    C     0.17571   0.16327   0.06766   0.00000  Uiso   1.00
C20    C     0.28018   0.20880   0.07697   0.00000  Uiso   1.00
Cu21   Cu    0.10710   0.16105   0.24436   0.00000  Uiso   1.00
Cu22   Cu    0.22623   0.17228   0.25565   0.00000  Uiso   1.00
H23    H     0.31552   0.22127   0.09996   0.00000  Uiso   1.00
H24    H     0.31837   0.10865   0.49185   0.00000  Uiso   1.00
H25    H     0.22479   0.23760   0.38202   0.00000  Uiso   1.00
H26    H     0.26799   0.03914   0.26896   0.00000  Uiso   1.00
H27    H     0.27026   0.03782   0.20384   0.00000  Uiso   1.00
H28    H     0.09722   0.32113   0.25233   0.00000  Uiso   1.00
H29    H     0.00338   0.20519   0.29016   0.00000  Uiso   1.00
H30    H     0.33013   0.12850   0.20956   0.00000  Uiso   1.00
H31    H     0.30340   0.25801   0.43323   0.00000  Uiso   1.00
H32    H     0.00561   0.24929   0.01132   0.00000  Uiso   1.00
H33    H     0.13202   0.13770   0.08451   0.00000  Uiso   1.00
H34    H     0.01700   0.12470   0.40024   0.00000  Uiso   1.00
H35    H     0.05888   0.13296   0.04711   0.00000  Uiso   1.00
N36    N     0.31574   0.18074   0.26416   0.00000  Uiso   1.00
N37    N     0.01759   0.15259   0.23584   0.00000  Uiso   1.00
N38    N     0.25910   0.01591   0.23695   0.00000  Uiso   1.00
O39    O     0.12797   0.23807   0.24633   0.00000  Uiso   1.00
O40    O     0.22858   0.24755   0.25587   0.00000  Uiso   1.00
O41    O     0.09181   0.15960   0.31840   0.00000  Uiso   1.00
O42    O     0.19242   0.16908   0.32793   0.00000  Uiso   1.00
O43    O     0.10476   0.08578   0.24414   0.00000  Uiso   1.00
O44    O     0.20536   0.09526   0.25367   0.00000  Uiso   1.00
O45    O     0.14092   0.16425   0.17207   0.00000  Uiso   1.00
O46    O     0.24152   0.17373   0.18161   0.00000  Uiso   1.00
C47    C     0.51574   0.26646   0.24990   0.00000  Uiso   1.00
C48    C     0.44580   0.16508   0.40334   0.00000  Uiso   1.00
C49    C     0.52741   0.32176   0.24559   0.00000  Uiso   1.00
C50    C     0.46653   0.16604   0.34724   0.00000  Uiso   1.00
C51    C     0.47832   0.01107   0.24820   0.00000  Uiso   1.00
C52    C     0.48557   0.06671   0.24788   0.00000  Uiso   1.00
C53    C     0.53387   0.17034   0.15295   0.00000  Uiso   1.00
C54    C     0.62637   0.22537   0.02679   0.00000  Uiso   1.00
C55    C     0.55411   0.17888   0.09792   0.00000  Uiso   1.00
C56    C     0.38422   0.13885   0.42425   0.00000  Uiso   1.00
C57    C     0.36617   0.12869   0.47606   0.00000  Uiso   1.00
C58    C     0.47255   0.16900   0.48779   0.00000  Uiso   1.00
C59    C     0.40976   0.14249   0.00744   0.00000  Uiso   1.00
C60    C     0.48872   0.18439   0.43606   0.00000  Uiso   1.00
C61    C     0.51966   0.18129   0.01785   0.00000  Uiso   1.00
C62    C     0.57970   0.21268   0.49744   0.00000  Uiso   1.00
C63    C     0.59202   0.23224   0.44850   0.00000  Uiso   1.00
C64    C     0.54699   0.21906   0.41858   0.00000  Uiso   1.00
C65    C     0.50904   0.16327   0.06766   0.00000  Uiso   1.00
C66    C     0.61352   0.20880   0.07697   0.00000  Uiso   1.00
Cu67   Cu    0.44043   0.16105   0.24436   0.00000  Uiso   1.00
Cu68   Cu    0.55957   0.17228   0.25565   0.00000  Uiso   1.00
H69    H     0.64885   0.22127   0.09996   0.00000  Uiso   1.00
H70    H     0.65170   0.10865   0.49185   0.00000  Uiso   1.00
H71    H     0.55812   0.23760   0.38202   0.00000  Uiso   1.00
H72    H     0.60132   0.03914   0.26896   0.00000  Uiso   1.00
H73    H     0.60359   0.03782   0.20384   0.00000  Uiso   1.00
H74    H     0.43055   0.32113   0.25233   0.00000  Uiso   1.00
H75    H     0.33671   0.20519   0.29016   0.00000  Uiso   1.00
H76    H     0.66346   0.12850   0.20956   0.00000  Uiso   1.00
H77    H     0.63673   0.25801   0.43323   0.00000  Uiso   1.00
H78    H     0.33894   0.24929   0.01132   0.00000  Uiso   1.00
H79    H     0.46536   0.13770   0.08451   0.00000  Uiso   1.00
H80    H     0.35034   0.12470   0.40024   0.00000  Uiso   1.00
H81    H     0.39221   0.13296   0.04711   0.00000  Uiso   1.00
N82    N     0.64908   0.18074   0.26416   0.00000  Uiso   1.00
N83    N     0.35092   0.15259   0.23584   0.00000  Uiso   1.00
N84    N     0.59243   0.01591   0.23695   0.00000  Uiso   1.00
O85    O     0.46131   0.23807   0.24633   0.00000  Uiso   1.00
O86    O     0.56191   0.24755   0.25587   0.00000  Uiso   1.00
O87    O     0.42515   0.15960   0.31840   0.00000  Uiso   1.00
O88    O     0.52575   0.16908   0.32793   0.00000  Uiso   1.00
O89    O     0.43809   0.08578   0.24414   0.00000  Uiso   1.00
O90    O     0.53869   0.09526   0.25367   0.00000  Uiso   1.00
O91    O     0.47425   0.16425   0.17207   0.00000  Uiso   1.00
O92    O     0.57485   0.17373   0.18161   0.00000  Uiso   1.00
C93    C     0.84907   0.26646   0.24990   0.00000  Uiso   1.00
C94    C     0.77914   0.16508   0.40334   0.00000  Uiso   1.00
C95    C     0.86074   0.32176   0.24559   0.00000  Uiso   1.00
C96    C     0.79986   0.16604   0.34724   0.00000  Uiso   1.00
C97    C     0.81165   0.01107   0.24820   0.00000  Uiso   1.00
C98    C     0.81891   0.06671   0.24788   0.00000  Uiso   1.00
C99    C     0.86720   0.17034   0.15295   0.00000  Uiso   1.00
C100   C     0.95970   0.22537   0.02679   0.00000  Uiso   1.00
C101   C     0.88744   0.17888   0.09792   0.00000  Uiso   1.00
C102   C     0.71755   0.13885   0.42425   0.00000  Uiso   1.00
C103   C     0.69950   0.12869   0.47606   0.00000  Uiso   1.00
C104   C     0.80588   0.16900   0.48779   0.00000  Uiso   1.00
C105   C     0.74309   0.14249   0.00744   0.00000  Uiso   1.00
C106   C     0.82205   0.18439   0.43606   0.00000  Uiso   1.00
C107   C     0.85299   0.18129   0.01785   0.00000  Uiso   1.00
C108   C     0.91304   0.21268   0.49744   0.00000  Uiso   1.00
C109   C     0.92536   0.23224   0.44850   0.00000  Uiso   1.00
C110   C     0.88032   0.21906   0.41858   0.00000  Uiso   1.00
C111   C     0.84238   0.16327   0.06766   0.00000  Uiso   1.00
C112   C     0.94685   0.20880   0.07697   0.00000  Uiso   1.00
Cu113  Cu    0.77377   0.16105   0.24436   0.00000  Uiso   1.00
Cu114  Cu    0.89290   0.17228   0.25565   0.00000  Uiso   1.00
H115   H     0.98219   0.22127   0.09996   0.00000  Uiso   1.00
H116   H     0.98503   0.10865   0.49185   0.00000  Uiso   1.00
H117   H     0.89145   0.23760   0.38202   0.00000  Uiso   1.00
H118   H     0.93465   0.03914   0.26896   0.00000  Uiso   1.00
H119   H     0.93692   0.03782   0.20384   0.00000  Uiso   1.00
H120   H     0.76389   0.32113   0.25233   0.00000  Uiso   1.00
H121   H     0.67005   0.20519   0.29016   0.00000  Uiso   1.00
H122   H     0.99679   0.12850   0.20956   0.00000  Uiso   1.00
H123   H     0.97006   0.25801   0.43323   0.00000  Uiso   1.00
H124   H     0.67227   0.24929   0.01132   0.00000  Uiso   1.00
H125   H     0.79869   0.13770   0.08451   0.00000  Uiso   1.00
H126   H     0.68367   0.12470   0.40024   0.00000  Uiso   1.00
H127   H     0.72555   0.13296   0.04711   0.00000  Uiso   1.00
N128   N     0.98241   0.18074   0.26416   0.00000  Uiso   1.00
N129   N     0.68426   0.15259   0.23584   0.00000  Uiso   1.00
N130   N     0.92576   0.01591   0.23695   0.00000  Uiso   1.00
O131   O     0.79464   0.23807   0.24633   0.00000  Uiso   1.00
O132   O     0.89524   0.24755   0.25587   0.00000  Uiso   1.00
O133   O     0.75848   0.15960   0.31840   0.00000  Uiso   1.00
O134   O     0.85908   0.16908   0.32793   0.00000  Uiso   1.00
O135   O     0.77142   0.08578   0.24414   0.00000  Uiso   1.00
O136   O     0.87203   0.09526   0.25367   0.00000  Uiso   1.00
O137   O     0.80758   0.16425   0.17207   0.00000  Uiso   1.00
O138   O     0.90819   0.17373   0.18161   0.00000  Uiso   1.00
C139   C     0.18240   0.59979   0.24990   0.00000  Uiso   1.00
C140   C     0.11247   0.49841   0.40334   0.00000  Uiso   1.00
C141   C     0.19408   0.65509   0.24559   0.00000  Uiso   1.00
C142   C     0.13319   0.49938   0.34724   0.00000  Uiso   1.00
C143   C     0.14499   0.34440   0.24820   0.00000  Uiso   1.00
C144   C     0.15224   0.40004   0.24788   0.00000  Uiso   1.00
C145   C     0.20054   0.50367   0.15295   0.00000  Uiso   1.00
C146   C     0.29304   0.55871   0.02679   0.00000  Uiso   1.00
C147   C     0.22077   0.51222   0.09792   0.00000  Uiso   1.00
C148   C     0.05089   0.47219   0.42425   0.00000  Uiso   1.00
C149   C     0.03284   0.46203   0.47606   0.00000  Uiso   1.00
C150   C     0.13922   0.50233   0.48779   0.00000  Uiso   1.00
C151   C     0.07642   0.47583   0.00744   0.00000  Uiso   1.00
C152   C     0.15538   0.51772   0.43606   0.00000  Uiso   1.00
C153   C     0.18632   0.51462   0.01785   0.00000  Uiso   1.00
C154   C     0.24637   0.54601   0.49744   0.00000  Uiso   1.00
C155   C     0.25869   0.56558   0.44850   0.00000  Uiso   1.00
C156   C     0.21366   0.55239   0.41858   0.00000  Uiso   1.00
C157   C     0.17571   0.49660   0.06766   0.00000  Uiso   1.00
C158   C     0.28018   0.54213   0.07697   0.00000  Uiso   1.00
Cu159  Cu    0.10710   0.49439   0.24436   0.00000  Uiso   1.00
Cu160  Cu    0.22623   0.50561   0.25565   0.00000  Uiso   1.00
H161   H     0.31552   0.55460   0.09996   0.00000  Uiso   1.00
H162   H     0.31837   0.44199   0.49185   0.00000  Uiso   1.00
H163   H     0.22479   0.57093   0.38202   0.00000  Uiso   1.00
H164   H     0.26799   0.37247   0.26896   0.00000  Uiso   1.00
H165   H     0.27026   0.37116   0.20384   0.00000  Uiso   1.00
H166   H     0.09722   0.65447   0.25233   0.00000  Uiso   1.00
H167   H     0.00338   0.53852   0.29016   0.00000  Uiso   1.00
H168   H     0.33013   0.46184   0.20956   0.00000  Uiso   1.00
H169   H     0.30340   0.59134   0.43323   0.00000  Uiso   1.00
H170   H     0.00561   0.58262   0.01132   0.00000  Uiso   1.00
H171   H     0.13202   0.47103   0.08451   0.00000  Uiso   1.00
H172   H     0.01700   0.45804   0.40024   0.00000  Uiso   1.00
H173   H     0.05888   0.46629   0.04711   0.00000  Uiso   1.00
N174   N     0.31574   0.51407   0.26416   0.00000  Uiso   1.00
N175   N     0.01759   0.48593   0.23584   0.00000  Uiso   1.00
N176   N     0.25910   0.34924   0.23695   0.00000  Uiso   1.00
O177   O     0.12797   0.57141   0.24633   0.00000  Uiso   1.00
O178   O     0.22858   0.58089   0.25587   0.00000  Uiso   1.00
O179   O     0.09181   0.49293   0.31840   0.00000  Uiso   1.00
O180   O     0.19242   0.50241   0.32793   0.00000  Uiso   1.00
O181   O     0.10476   0.41911   0.24414   0.00000  Uiso   1.00
O182   O     0.20536   0.42859   0.25367   0.00000  Uiso   1.00
O183   O     0.14092   0.49759   0.17207   0.00000  Uiso   1.00
O184   O     0.24152   0.50707   0.18161   0.00000  Uiso   1.00
C185   C     0.51574   0.59979   0.24990   0.00000  Uiso   1.00
C186   C     0.44580   0.49841   0.40334   0.00000  Uiso   1.00
C187   C     0.52741   0.65509   0.24559   0.00000  Uiso   1.00
C188   C     0.46653   0.49938   0.34724   0.00000  Uiso   1.00
C189   C     0.47832   0.34440   0.24820   0.00000  Uiso   1.00
C190   C     0.48557   0.40004   0.24788   0.00000  Uiso   1.00
C191   C     0.53387   0.50367   0.15295   0.00000  Uiso   1.00
C192   C     0.62637   0.55871   0.02679   0.00000  Uiso   1.00
C193   C     0.55411   0.51222   0.09792   0.00000  Uiso   1.00
C194   C     0.38422   0.47219   0.42425   0.00000  Uiso   1.00
C195   C     0.36617   0.46203   0.47606   0.00000  Uiso   1.00
C196   C     0.47255   0.50233   0.48779   0.00000  Uiso   1.00
C197   C     0.40976   0.47583   0.00744   0.00000  Uiso   1.00
C198   C     0.48872   0.51772   0.43606   0.00000  Uiso   1.00
C199   C     0.51966   0.51462   0.01785   0.00000  Uiso   1.00
C200   C     0.57970   0.54601   0.49744   0.00000  Uiso   1.00
C201   C     0.59202   0.56558   0.44850   0.00000  Uiso   1.00
C202   C     0.54699   0.55239   0.41858   0.00000  Uiso   1.00
C203   C     0.50904   0.49660   0.06766   0.00000  Uiso   1.00
C204   C     0.61352   0.54213   0.07697   0.00000  Uiso   1.00
Cu205  Cu    0.44043   0.49439   0.24436   0.00000  Uiso   1.00
Cu206  Cu    0.55957   0.50561   0.25565   0.00000  Uiso   1.00
H207   H     0.64885   0.55460   0.09996   0.00000  Uiso   1.00
H208   H     0.65170   0.44199   0.49185   0.00000  Uiso   1.00
H209   H     0.55812   0.57093   0.38202   0.00000  Uiso   1.00
H210   H     0.60132   0.37247   0.26896   0.00000  Uiso   1.00
H211   H     0.60359   0.37116   0.20384   0.00000  Uiso   1.00
H212   H     0.43055   0.65447   0.25233   0.00000  Uiso   1.00
H213   H     0.33671   0.53852   0.29016   0.00000  Uiso   1.00
H214   H     0.66346   0.46184   0.20956   0.00000  Uiso   1.00
H215   H     0.63673   0.59134   0.43323   0.00000  Uiso   1.00
H216   H     0.33894   0.58262   0.01132   0.00000  Uiso   1.00
H217   H     0.46536   0.47103   0.08451   0.00000  Uiso   1.00
H218   H     0.35034   0.45804   0.40024   0.00000  Uiso   1.00
H219   H     0.39221   0.46629   0.04711   0.00000  Uiso   1.00
N220   N     0.64908   0.51407   0.26416   0.00000  Uiso   1.00
N221   N     0.35092   0.48593   0.23584   0.00000  Uiso   1.00
N222   N     0.59243   0.34924   0.23695   0.00000  Uiso   1.00
O223   O     0.46131   0.57141   0.24633   0.00000  Uiso   1.00
O224   O     0.56191   0.58089   0.25587   0.00000  Uiso   1.00
O225   O     0.42515   0.49293   0.31840   0.00000  Uiso   1.00
O226   O     0.52575   0.50241   0.32793   0.00000  Uiso   1.00
O227   O     0.43809   0.41911   0.24414   0.00000  Uiso   1.00
O228   O     0.53869   0.42859   0.25367   0.00000  Uiso   1.00
O229   O     0.47425   0.49759   0.17207   0.00000  Uiso   1.00
O230   O     0.57485   0.50707   0.18161   0.00000  Uiso   1.00
C231   C     0.84907   0.59979   0.24990   0.00000  Uiso   1.00
C232   C     0.77914   0.49841   0.40334   0.00000  Uiso   1.00
C233   C     0.86074   0.65509   0.24559   0.00000  Uiso   1.00
C234   C     0.79986   0.49938   0.34724   0.00000  Uiso   1.00
C235   C     0.81165   0.34440   0.24820   0.00000  Uiso   1.00
C236   C     0.81891   0.40004   0.24788   0.00000  Uiso   1.00
C237   C     0.86720   0.50367   0.15295   0.00000  Uiso   1.00
C238   C     0.95970   0.55871   0.02679   0.00000  Uiso   1.00
C239   C     0.88744   0.51222   0.09792   0.00000  Uiso   1.00
C240   C     0.71755   0.47219   0.42425   0.00000  Uiso   1.00
C241   C     0.69950   0.46203   0.47606   0.00000  Uiso   1.00
C242   C     0.80588   0.50233   0.48779   0.00000  Uiso   1.00
C243   C     0.74309   0.47583   0.00744   0.00000  Uiso   1.00
C244   C     0.82205   0.51772   0.43606   0.00000  Uiso   1.00
C245   C     0.85299   0.51462   0.01785   0.00000  Uiso   1.00
C246   C     0.91304   0.54601   0.49744   0.00000  Uiso   1.00
C247   C     0.92536   0.56558   0.44850   0.00000  Uiso   1.00
C248   C     0.88032   0.55239   0.41858   0.00000  Uiso   1.00
C249   C     0.84238   0.49660   0.06766   0.00000  Uiso   1.00
C250   C     0.94685   0.54213   0.07697   0.00000  Uiso   1.00
Cu251  Cu    0.77377   0.49439   0.24436   0.00000  Uiso   1.00
Cu252  Cu    0.89290   0.50561   0.25565   0.00000  Uiso   1.00
H253   H     0.98219   0.55460   0.09996   0.00000  Uiso   1.00
H254   H     0.98503   0.44199   0.49185   0.00000  Uiso   1.00
H255   H     0.89145   0.57093   0.38202   0.00000  Uiso   1.00
H256   H     0.93465   0.37247   0.26896   0.00000  Uiso   1.00
H257   H     0.93692   0.37116   0.20384   0.00000  Uiso   1.00
H258   H     0.76389   0.65447   0.25233   0.00000  Uiso   1.00
H259   H     0.67005   0.53852   0.29016   0.00000  Uiso   1.00
H260   H     0.99679   0.46184   0.20956   0.00000  Uiso   1.00
H261   H     0.97006   0.59134   0.43323   0.00000  Uiso   1.00
H262   H     0.67227   0.58262   0.01132   0.00000  Uiso   1.00
H263   H     0.79869   0.47103   0.08451   0.00000  Uiso   1.00
H264   H     0.68367   0.45804   0.40024   0.00000  Uiso   1.00
H265   H     0.72555   0.46629   0.04711   0.00000  Uiso   1.00
N266   N     0.98241   0.51407   0.26416   0.00000  Uiso   1.00
N267   N     0.68426   0.48593   0.23584   0.00000  Uiso   1.00
N268   N     0.92576   0.34924   0.23695   0.00000  Uiso   1.00
O269   O     0.79464   0.57141   0.24633   0.00000  Uiso   1.00
O270   O     0.89524   0.58089   0.25587   0.00000  Uiso   1.00
O271   O     0.75848   0.49293   0.31840   0.00000  Uiso   1.00
O272   O     0.85908   0.50241   0.32793   0.00000  Uiso   1.00
O273   O     0.77142   0.41911   0.24414   0.00000  Uiso   1.00
O274   O     0.87203   0.42859   0.25367   0.00000  Uiso   1.00
O275   O     0.80758   0.49759   0.17207   0.00000  Uiso   1.00
O276   O     0.90819   0.50707   0.18161   0.00000  Uiso   1.00
C277   C     0.18240   0.93312   0.24990   0.00000  Uiso   1.00
C278   C     0.11247   0.83175   0.40334   0.00000  Uiso   1.00
C279   C     0.19408   0.98842   0.24559   0.00000  Uiso   1.00
C280   C     0.13319   0.83271   0.34724   0.00000  Uiso   1.00
C281   C     0.14499   0.67774   0.24820   0.00000  Uiso   1.00
C282   C     0.15224   0.73337   0.24788   0.00000  Uiso   1.00
C283   C     0.20054   0.83700   0.15295   0.00000  Uiso   1.00
C284   C     0.29304   0.89204   0.02679   0.00000  Uiso   1.00
C285   C     0.22077   0.84555   0.09792   0.00000  Uiso   1.00
C286   C     0.05089   0.80552   0.42425   0.00000  Uiso   1.00
C287   C     0.03284   0.79536   0.47606   0.00000  Uiso   1.00
C288   C     0.13922   0.83566   0.48779   0.00000  Uiso   1.00
C289   C     0.07642   0.80916   0.00744   0.00000  Uiso   1.00
C290   C     0.15538   0.85106   0.43606   0.00000  Uiso   1.00
C291   C     0.18632   0.84796   0.01785   0.00000  Uiso   1.00
C292   C     0.24637   0.87935   0.49744   0.00000  Uiso   1.00
C293   C     0.25869   0.89891   0.44850   0.00000  Uiso   1.00
C294   C     0.21366   0.88572   0.41858   0.00000  Uiso   1.00
C295   C     0.17571   0.82994   0.06766   0.00000  Uiso   1.00
C296   C     0.28018   0.87546   0.07697   0.00000  Uiso   1.00
Cu297  Cu    0.10710   0.82772   0.24436   0.00000  Uiso   1.00
Cu298  Cu    0.22623   0.83895   0.25565   0.00000  Uiso   1.00
H299   H     0.31552   0.88793   0.09996   0.00000  Uiso   1.00
H300   H     0.31837   0.77532   0.49185   0.00000  Uiso   1.00
H301   H     0.22479   0.90426   0.38202   0.00000  Uiso   1.00
H302   H     0.26799   0.70581   0.26896   0.00000  Uiso   1.00
H303   H     0.27026   0.70449   0.20384   0.00000  Uiso   1.00
H304   H     0.09722   0.98780   0.25233   0.00000  Uiso   1.00
H305   H     0.00338   0.87185   0.29016   0.00000  Uiso   1.00
H306   H     0.33013   0.79517   0.20956   0.00000  Uiso   1.00
H307   H     0.30340   0.92468   0.43323   0.00000  Uiso   1.00
H308   H     0.00561   0.91595   0.01132   0.00000  Uiso   1.00
H309   H     0.13202   0.80437   0.08451   0.00000  Uiso   1.00
H310   H     0.01700   0.79137   0.40024   0.00000  Uiso   1.00
H311   H     0.05888   0.79962   0.04711   0.00000  Uiso   1.00
N312   N     0.31574   0.84741   0.26416   0.00000  Uiso   1.00
N313   N     0.01759   0.81926   0.23584   0.00000  Uiso   1.00
N314   N     0.25910   0.68257   0.23695   0.00000  Uiso   1.00
O315   O     0.12797   0.90474   0.24633   0.00000  Uiso   1.00
O316   O     0.22858   0.91422   0.25587   0.00000  Uiso   1.00
O317   O     0.09181   0.82627   0.31840   0.00000  Uiso   1.00
O318   O     0.19242   0.83575   0.32793   0.00000  Uiso   1.00
O319   O     0.10476   0.75245   0.24414   0.00000  Uiso   1.00
O320   O     0.20536   0.76193   0.25367   0.00000  Uiso   1.00
O321   O     0.14092   0.83092   0.17207   0.00000  Uiso   1.00
O322   O     0.24152   0.84040   0.18161   0.00000  Uiso   1.00
C323   C     0.51574   0.93312   0.24990   0.00000  Uiso   1.00
C324   C     0.44580   0.83175   0.40334   0.00000  Uiso   1.00
C325   C     0.52741   0.98842   0.24559   0.00000  Uiso   1.00
C326   C     0.46653   0.83271   0.34724   0.00000  Uiso   1.00
C327   C     0.47832   0.67774   0.24820   0.00000  Uiso   1.00
C328   C     0.48557   0.73337   0.24788   0.00000  Uiso   1.00
C329   C     0.53387   0.83700   0.15295   0.00000  Uiso   1.00
C330   C     0.62637   0.89204   0.02679   0.00000  Uiso   1.00
C331   C     0.55411   0.84555   0.09792   0.00000  Uiso   1.00
C332   C     0.38422   0.80552   0.42425   0.00000  Uiso   1.00
C333   C     0.36617   0.79536   0.47606   0.00000  Uiso   1.00
C334   C     0.47255   0.83566   0.48779   0.00000  Uiso   1.00
C335   C     0.40976   0.80916   0.00744   0.00000  Uiso   1.00
C336   C     0.48872   0.85106   0.43606   0.00000  Uiso   1.00
C337   C     0.51966   0.84796   0.01785   0.00000  Uiso   1.00
C338   C     0.57970   0.87935   0.49744   0.00000  Uiso   1.00
C339   C     0.59202   0.89891   0.44850   0.00000  Uiso   1.00
C340   C     0.54699   0.88572   0.41858   0.00000  Uiso   1.00
C341   C     0.50904   0.82994   0.06766   0.00000  Uiso   1.00
C342   C     0.61352   0.87546   0.07697   0.00000  Uiso   1.00
Cu343  Cu    0.44043   0.82772   0.24436   0.00000  Uiso   1.00
Cu344  Cu    0.55957   0.83895   0.25565   0.00000  Uiso   1.00
H345   H     0.64885   0.88793   0.09996   0.00000  Uiso   1.00
H346   H     0.65170   0.77532   0.49185   0.00000  Uiso   1.00
H347   H     0.55812   0.90426   0.38202   0.00000  Uiso   1.00
H348   H     0.60132   0.70581   0.26896   0.00000  Uiso   1.00
H349   H     0.60359   0.70449   0.20384   0.00000  Uiso   1.00
H350   H     0.43055   0.98780   0.25233   0.00000  Uiso   1.00
H351   H     0.33671   0.87185   0.29016   0.00000  Uiso   1.00
H352   H     0.66346   0.79517   0.20956   0.00000  Uiso   1.00
H353   H     0.63673   0.92468   0.43323   0.00000  Uiso   1.00
H354   H     0.33894   0.91595   0.01132   0.00000  Uiso   1.00
H355   H     0.46536   0.80437   0.08451   0.00000  Uiso   1.00
H356   H     0.35034   0.79137   0.40024   0.00000  Uiso   1.00
H357   H     0.39221   0.79962   0.04711   0.00000  Uiso   1.00
N358   N     0.64908   0.84741   0.26416   0.00000  Uiso   1.00
N359   N     0.35092   0.81926   0.23584   0.00000  Uiso   1.00
N360   N     0.59243   0.68257   0.23695   0.00000  Uiso   1.00
O361   O     0.46131   0.90474   0.24633   0.00000  Uiso   1.00
O362   O     0.56191   0.91422   0.25587   0.00000  Uiso   1.00
O363   O     0.42515   0.82627   0.31840   0.00000  Uiso   1.00
O364   O     0.52575   0.83575   0.32793   0.00000  Uiso   1.00
O365   O     0.43809   0.75245   0.24414   0.00000  Uiso   1.00
O366   O     0.53869   0.76193   0.25367   0.00000  Uiso   1.00
O367   O     0.47425   0.83092   0.17207   0.00000  Uiso   1.00
O368   O     0.57485   0.84040   0.18161   0.00000  Uiso   1.00
C369   C     0.84907   0.93312   0.24990   0.00000  Uiso   1.00
C370   C     0.77914   0.83175   0.40334   0.00000  Uiso   1.00
C371   C     0.86074   0.98842   0.24559   0.00000  Uiso   1.00
C372   C     0.79986   0.83271   0.34724   0.00000  Uiso   1.00
C373   C     0.81165   0.67774   0.24820   0.00000  Uiso   1.00
C374   C     0.81891   0.73337   0.24788   0.00000  Uiso   1.00
C375   C     0.86720   0.83700   0.15295   0.00000  Uiso   1.00
C376   C     0.95970   0.89204   0.02679   0.00000  Uiso   1.00
C377   C     0.88744   0.84555   0.09792   0.00000  Uiso   1.00
C378   C     0.71755   0.80552   0.42425   0.00000  Uiso   1.00
C379   C     0.69950   0.79536   0.47606   0.00000  Uiso   1.00
C380   C     0.80588   0.83566   0.48779   0.00000  Uiso   1.00
C381   C     0.74309   0.80916   0.00744   0.00000  Uiso   1.00
C382   C     0.82205   0.85106   0.43606   0.00000  Uiso   1.00
C383   C     0.85299   0.84796   0.01785   0.00000  Uiso   1.00
C384   C     0.91304   0.87935   0.49744   0.00000  Uiso   1.00
C385   C     0.92536   0.89891   0.44850   0.00000  Uiso   1.00
C386   C     0.88032   0.88572   0.41858   0.00000  Uiso   1.00
C387   C     0.84238   0.82994   0.06766   0.00000  Uiso   1.00
C388   C     0.94685   0.87546   0.07697   0.00000  Uiso   1.00
Cu389  Cu    0.77377   0.82772   0.24436   0.00000  Uiso   1.00
Cu390  Cu    0.89290   0.83895   0.25565   0.00000  Uiso   1.00
H391   H     0.98219   0.88793   0.09996   0.00000  Uiso   1.00
H392   H     0.98503   0.77532   0.49185   0.00000  Uiso   1.00
H393   H     0.89145   0.90426   0.38202   0.00000  Uiso   1.00
H394   H     0.93465   0.70581   0.26896   0.00000  Uiso   1.00
H395   H     0.93692   0.70449   0.20384   0.00000  Uiso   1.00
H396   H     0.76389   0.98780   0.25233   0.00000  Uiso   1.00
H397   H     0.67005   0.87185   0.29016   0.00000  Uiso   1.00
H398   H     0.99679   0.79517   0.20956   0.00000  Uiso   1.00
H399   H     0.97006   0.92468   0.43323   0.00000  Uiso   1.00
H400   H     0.67227   0.91595   0.01132   0.00000  Uiso   1.00
H401   H     0.79869   0.80437   0.08451   0.00000  Uiso   1.00
H402   H     0.68367   0.79137   0.40024   0.00000  Uiso   1.00
H403   H     0.72555   0.79962   0.04711   0.00000  Uiso   1.00
N404   N     0.98241   0.84741   0.26416   0.00000  Uiso   1.00
N405   N     0.68426   0.81926   0.23584   0.00000  Uiso   1.00
N406   N     0.92576   0.68257   0.23695   0.00000  Uiso   1.00
O407   O     0.79464   0.90474   0.24633   0.00000  Uiso   1.00
O408   O     0.89524   0.91422   0.25587   0.00000  Uiso   1.00
O409   O     0.75848   0.82627   0.31840   0.00000  Uiso   1.00
O410   O     0.85908   0.83575   0.32793   0.00000  Uiso   1.00
O411   O     0.77142   0.75245   0.24414   0.00000  Uiso   1.00
O412   O     0.87203   0.76193   0.25367   0.00000  Uiso   1.00
O413   O     0.80758   0.83092   0.17207   0.00000  Uiso   1.00
O414   O     0.90819   0.84040   0.18161   0.00000  Uiso   1.00
C415   C     0.18240   0.26646   0.74990   0.00000  Uiso   1.00
C416   C     0.11247   0.16508   0.90334   0.00000  Uiso   1.00
C417   C     0.19408   0.32176   0.74559   0.00000  Uiso   1.00
C418   C     0.13319   0.16604   0.84724   0.00000  Uiso   1.00
C419   C     0.14499   0.01107   0.74820   0.00000  Uiso   1.00
C420   C     0.15224   0.06671   0.74788   0.00000  Uiso   1.00
C421   C     0.20054   0.17034   0.65295   0.00000  Uiso   1.00
C422   C     0.29304   0.22537   0.52679   0.00000  Uiso   1.00
C423   C     0.22077   0.17888   0.59792   0.00000  Uiso   1.00
C424   C     0.05089   0.13885   0.92425   0.00000  Uiso   1.00
C425   C     0.03284   0.12869   0.97606   0.00000  Uiso   1.00
C426   C     0.13922   0.16900   0.98779   0.00000  Uiso   1.00
C427   C     0.07642   0.14249   0.50744   0.00000  Uiso   1.00
C428   C     0.15538   0.18439   0.93606   0.00000  Uiso   1.00
C429   C     0.18632   0.18129   0.51785   0.00000  Uiso   1.00
C430   C     0.24637   0.21268   0.99744   0.00000  Uiso   1.00
C431   C     0.25869   0.23224   0.94850   0.00000  Uiso   1.00
C432   C     0.21366   0.21906   0.91858   0.00000  Uiso   1.00
C433   C     0.17571   0.16327   0.56766   0.00000  Uiso   1.00
C434   C     0.28018   0.20880   0.57697   0.00000  Uiso   1.00
Cu435  Cu    0.10710   0.16105   0.74436   0.00000  Uiso   1.00
Cu436  Cu    0.22623   0.17228   0.75565   0.00000  Uiso   1.00
H437   H     0.31552   0.22127   0.59996   0.00000  Uiso   1.00
H438   H     0.31837   0.10865   0.99185   0.00000  Uiso   1.00
H439   H     0.22479   0.23760   0.88202   0.00000  Uiso   1.00
H440   H     0.26799   0.03914   0.76896   0.00000  Uiso   1.00
H441   H     0.27026   0.03782   0.70384   0.00000  Uiso   1.00
H442   H     0.09722   0.32113   0.75233   0.00000  Uiso   1.00
H443   H     0.00338   0.20519   0.79016   0.00000  Uiso   1.00
H444   H     0.33013   0.12850   0.70956   0.00000  Uiso   1.00
H445   H     0.30340   0.25801   0.93323   0.00000  Uiso   1.00
H446   H     0.00561   0.24929   0.51132   0.00000  Uiso   1.00
H447   H     0.13202   0.13770   0.58451   0.00000  Uiso   1.00
H448   H     0.01700   0.12470   0.90024   0.00000  Uiso   1.00
H449   H     0.05888   0.13296   0.54711   0.00000  Uiso   1.00
N450   N     0.31574   0.18074   0.76416   0.00000  Uiso   1.00
N451   N     0.01759   0.15259   0.73584   0.00000  Uiso   1.00
N452   N     0.25910   0.01591   0.73695   0.00000  Uiso   1.00
O453   O     0.12797   0.23807   0.74633   0.00000  Uiso   1.00
O454   O     0.22858   0.24755   0.75587   0.00000  Uiso   1.00
O455   O     0.09181   0.15960   0.81840   0.00000  Uiso   1.00
O456   O     0.19242   0.16908   0.82793   0.00000  Uiso   1.00
O457   O     0.10476   0.08578   0.74414   0.00000  Uiso   1.00
O458   O     0.20536   0.09526   0.75367   0.00000  Uiso   1.00
O459   O     0.14092   0.16425   0.67207   0.00000  Uiso   1.00
O460   O     0.24152   0.17373   0.68161   0.00000  Uiso   1.00
C461   C     0.51574   0.26646   0.74990   0.00000  Uiso   1.00
C462   C     0.44580   0.16508   0.90334   0.00000  Uiso   1.00
C463   C     0.52741   0.32176   0.74559   0.00000  Uiso   1.00
C464   C     0.46653   0.16604   0.84724   0.00000  Uiso   1.00
C465   C     0.47832   0.01107   0.74820   0.00000  Uiso   1.00
C466   C     0.48557   0.06671   0.74788   0.00000  Uiso   1.00
C467   C     0.53387   0.17034   0.65295   0.00000  Uiso   1.00
C468   C     0.62637   0.22537   0.52679   0.00000  Uiso   1.00
C469   C     0.55411   0.17888   0.59792   0.00000  Uiso   1.00
C470   C     0.38422   0.13885   0.92425   0.00000  Uiso   1.00
C471   C     0.36617   0.12869   0.97606   0.00000  Uiso   1.00
C472   C     0.47255   0.16900   0.98779   0.00000  Uiso   1.00
C473   C     0.40976   0.14249   0.50744   0.00000  Uiso   1.00
C474   C     0.48872   0.18439   0.93606   0.00000  Uiso   1.00
C475   C     0.51966   0.18129   0.51785   0.00000  Uiso   1.00
C476   C     0.57970   0.21268   0.99744   0.00000  Uiso   1.00
C477   C     0.59202   0.23224   0.94850   0.00000  Uiso   1.00
C478   C     0.54699   0.21906   0.91858   0.00000  Uiso   1.00
C479   C     0.50904   0.16327   0.56766   0.00000  Uiso   1.00
C480   C     0.61352   0.20880   0.57697   0.00000  Uiso   1.00
Cu481  Cu    0.44043   0.16105   0.74436   0.00000  Uiso   1.00
Cu482  Cu    0.55957   0.17228   0.75565   0.00000  Uiso   1.00
H483   H     0.64885   0.22127   0.59996   0.00000  Uiso   1.00
H484   H     0.65170   0.10865   0.99185   0.00000  Uiso   1.00
H485   H     0.55812   0.23760   0.88202   0.00000  Uiso   1.00
H486   H     0.60132   0.03914   0.76896   0.00000  Uiso   1.00
H487   H     0.60359   0.03782   0.70384   0.00000  Uiso   1.00
H488   H     0.43055   0.32113   0.75233   0.00000  Uiso   1.00
H489   H     0.33671   0.20519   0.79016   0.00000  Uiso   1.00
H490   H     0.66346   0.12850   0.70956   0.00000  Uiso   1.00
H491   H     0.63673   0.25801   0.93323   0.00000  Uiso   1.00
H492   H     0.33894   0.24929   0.51132   0.00000  Uiso   1.00
H493   H     0.46536   0.13770   0.58451   0.00000  Uiso   1.00
H494   H     0.35034   0.12470   0.90024   0.00000  Uiso   1.00
H495   H     0.39221   0.13296   0.54711   0.00000  Uiso   1.00
N496   N     0.64908   0.18074   0.76416   0.00000  Uiso   1.00
N497   N     0.35092   0.15259   0.73584   0.00000  Uiso   1.00
N498   N     0.59243   0.01591   0.73695   0.00000  Uiso   1.00
O499   O     0.46131   0.23807   0.74633   0.00000  Uiso   1.00
O500   O     0.56191   0.24755   0.75587   0.00000  Uiso   1.00
O501   O     0.42515   0.15960   0.81840   0.00000  Uiso   1.00
O502   O     0.52575   0.16908   0.82793   0.00000  Uiso   1.00
O503   O     0.43809   0.08578   0.74414   0.00000  Uiso   1.00
O504   O     0.53869   0.09526   0.75367   0.00000  Uiso   1.00
O505   O     0.47425   0.16425   0.67207   0.00000  Uiso   1.00
O506   O     0.57485   0.17373   0.68161   0.00000  Uiso   1.00
C507   C     0.84907   0.26646   0.74990   0.00000  Uiso   1.00
C508   C     0.77914   0.16508   0.90334   0.00000  Uiso   1.00
C509   C     0.86074   0.32176   0.74559   0.00000  Uiso   1.00
C510   C     0.79986   0.16604   0.84724   0.00000  Uiso   1.00
C511   C     0.81165   0.01107   0.74820   0.00000  Uiso   1.00
C512   C     0.81891   0.06671   0.74788   0.00000  Uiso   1.00
C513   C     0.86720   0.17034   0.65295   0.00000  Uiso   1.00
C514   C     0.95970   0.22537   0.52679   0.00000  Uiso   1.00
C515   C     0.88744   0.17888   0.59792   0.00000  Uiso   1.00
C516   C     0.71755   0.13885   0.92425   0.00000  Uiso   1.00
C517   C     0.69950   0.12869   0.97606   0.00000  Uiso   1.00
C518   C     0.80588   0.16900   0.98779   0.00000  Uiso   1.00
C519   C     0.74309   0.14249   0.50744   0.00000  Uiso   1.00
C520   C     0.82205   0.18439   0.93606   0.00000  Uiso   1.00
C521   C     0.85299   0.18129   0.51785   0.00000  Uiso   1.00
C522   C     0.91304   0.21268   0.99744   0.00000  Uiso   1.00
C523   C     0.92536   0.23224   0.94850   0.00000  Uiso   1.00
C524   C     0.88032   0.21906   0.91858   0.00000  Uiso   1.00
C525   C     0.84238   0.16327   0.56766   0.00000  Uiso   1.00
C526   C     0.94685   0.20880   0.57697   0.00000  Uiso   1.00
Cu527  Cu    0.77377   0.16105   0.74436   0.00000  Uiso   1.00
Cu528  Cu    0.89290   0.17228   0.75565   0.00000  Uiso   1.00
H529   H     0.98219   0.22127   0.59996   0.00000  Uiso   1.00
H530   H     0.98503   0.10865   0.99185   0.00000  Uiso   1.00
H531   H     0.89145   0.23760   0.88202   0.00000  Uiso   1.00
H532   H     0.93465   0.03914   0.76896   0.00000  Uiso   1.00
H533   H     0.93692   0.03782   0.70384   0.00000  Uiso   1.00
H534   H     0.76389   0.32113   0.75233   0.00000  Uiso   1.00
H535   H     0.67005   0.20519   0.79016   0.00000  Uiso   1.00
H536   H     0.99679   0.12850   0.70956   0.00000  Uiso   1.00
H537   H     0.97006   0.25801   0.93323   0.00000  Uiso   1.00
H538   H     0.67227   0.24929   0.51132   0.00000  Uiso   1.00
H539   H     0.79869   0.13770   0.58451   0.00000  Uiso   1.00
H540   H     0.68367   0.12470   0.90024   0.00000  Uiso   1.00
H541   H     0.72555   0.13296   0.54711   0.00000  Uiso   1.00
N542   N     0.98241   0.18074   0.76416   0.00000  Uiso   1.00
N543   N     0.68426   0.15259   0.73584   0.00000  Uiso   1.00
N544   N     0.92576   0.01591   0.73695   0.00000  Uiso   1.00
O545   O     0.79464   0.23807   0.74633   0.00000  Uiso   1.00
O546   O     0.89524   0.24755   0.75587   0.00000  Uiso   1.00
O547   O     0.75848   0.15960   0.81840   0.00000  Uiso   1.00
O548   O     0.85908   0.16908   0.82793   0.00000  Uiso   1.00
O549   O     0.77142   0.08578   0.74414   0.00000  Uiso   1.00
O550   O     0.87203   0.09526   0.75367   0.00000  Uiso   1.00
O551   O     0.80758   0.16425   0.67207   0.00000  Uiso   1.00
O552   O     0.90819   0.17373   0.68161   0.00000  Uiso   1.00
C553   C     0.18240   0.59979   0.74990   0.00000  Uiso   1.00
C554   C     0.11247   0.49841   0.90334   0.00000  Uiso   1.00
C555   C     0.19408   0.65509   0.74559   0.00000  Uiso   1.00
C556   C     0.13319   0.49938   0.84724   0.00000  Uiso   1.00
C557   C     0.14499   0.34440   0.74820   0.00000  Uiso   1.00
C558   C     0.15224   0.40004   0.74788   0.00000  Uiso   1.00
C559   C     0.20054   0.50367   0.65295   0.00000  Uiso   1.00
C560   C     0.29304   0.55871   0.52679   0.00000  Uiso   1.00
C561   C     0.22077   0.51222   0.59792   0.00000  Uiso   1.00
C562   C     0.05089   0.47219   0.92425   0.00000  Uiso   1.00
C563   C     0.03284   0.46203   0.97606   0.00000  Uiso   1.00
C564   C     0.13922   0.50233   0.98779   0.00000  Uiso   1.00
C565   C     0.07642   0.47583   0.50744   0.00000  Uiso   1.00
C566   C     0.15538   0.51772   0.93606   0.00000  Uiso   1.00
C567   C     0.18632   0.51462   0.51785   0.00000  Uiso   1.00
C568   C     0.24637   0.54601   0.99744   0.00000  Uiso   1.00
C569   C     0.25869   0.56558   0.94850   0.00000  Uiso   1.00
C570   C     0.21366   0.55239   0.91858   0.00000  Uiso   1.00
C571   C     0.17571   0.49660   0.56766   0.00000  Uiso   1.00
C572   C     0.28018   0.54213   0.57697   0.00000  Uiso   1.00
Cu573  Cu    0.10710   0.49439   0.74436   0.00000  Uiso   1.00
Cu574  Cu    0.22623   0.50561   0.75565   0.00000  Uiso   1.00
H575   H     0.31552   0.55460   0.59996   0.00000  Uiso   1.00
H576   H     0.31837   0.44199   0.99185   0.00000  Uiso   1.00
H577   H     0.22479   0.57093   0.88202   0.00000  Uiso   1.00
H578   H     0.26799   0.37247   0.76896   0.00000  Uiso   1.00
H579   H     0.27026   0.37116   0.70384   0.00000  Uiso   1.00
H580   H     0.09722   0.65447   0.75233   0.00000  Uiso   1.00
H581   H     0.00338   0.53852   0.79016   0.00000  Uiso   1.00
H582   H     0.33013   0.46184   0.70956   0.00000  Uiso   1.00
H583   H     0.30340   0.59134   0.93323   0.00000  Uiso   1.00
H584   H     0.00561   0.58262   0.51132   0.00000  Uiso   1.00
H585   H     0.13202   0.47103   0.58451   0.00000  Uiso   1.00
H586   H     0.01700   0.45804   0.90024   0.00000  Uiso   1.00
H587   H     0.05888   0.46629   0.54711   0.00000  Uiso   1.00
N588   N     0.31574   0.51407   0.76416   0.00000  Uiso   1.00
N589   N     0.01759   0.48593   0.73584   0.00000  Uiso   1.00
N590   N     0.25910   0.34924   0.73695   0.00000  Uiso   1.00
O591   O     0.12797   0.57141   0.74633   0.00000  Uiso   1.00
O592   O     0.22858   0.58089   0.75587   0.00000  Uiso   1.00
O593   O     0.09181   0.49293   0.81840   0.00000  Uiso   1.00
O594   O     0.19242   0.50241   0.82793   0.00000  Uiso   1.00
O595   O     0.10476   0.41911   0.74414   0.00000  Uiso   1.00
O596   O     0.20536   0.42859   0.75367   0.00000  Uiso   1.00
O597   O     0.14092   0.49759   0.67207   0.00000  Uiso   1.00
O598   O     0.24152   0.50707   0.68161   0.00000  Uiso   1.00
C599   C     0.51574   0.59979   0.74990   0.00000  Uiso   1.00
C600   C     0.44580   0.49841   0.90334   0.00000  Uiso   1.00
C601   C     0.52741   0.65509   0.74559   0.00000  Uiso   1.00
C602   C     0.46653   0.49938   0.84724   0.00000  Uiso   1.00
C603   C     0.47832   0.34440   0.74820   0.00000  Uiso   1.00
C604   C     0.48557   0.40004   0.74788   0.00000  Uiso   1.00
C605   C     0.53387   0.50367   0.65295   0.00000  Uiso   1.00
C606   C     0.62637   0.55871   0.52679   0.00000  Uiso   1.00
C607   C     0.55411   0.51222   0.59792   0.00000  Uiso   1.00
C608   C     0.38422   0.47219   0.92425   0.00000  Uiso   1.00
C609   C     0.36617   0.46203   0.97606   0.00000  Uiso   1.00
C610   C     0.47255   0.50233   0.98779   0.00000  Uiso   1.00
C611   C     0.40976   0.47583   0.50744   0.00000  Uiso   1.00
C612   C     0.48872   0.51772   0.93606   0.00000  Uiso   1.00
C613   C     0.51966   0.51462   0.51785   0.00000  Uiso   1.00
C614   C     0.57970   0.54601   0.99744   0.00000  Uiso   1.00
C615   C     0.59202   0.56558   0.94850   0.00000  Uiso   1.00
C616   C     0.54699   0.55239   0.91858   0.00000  Uiso   1.00
C617   C     0.50904   0.49660   0.56766   0.00000  Uiso   1.00
C618   C     0.61352   0.54213   0.57697   0.00000  Uiso   1.00
Cu619  Cu    0.44043   0.49439   0.74436   0.00000  Uiso   1.00
Cu620  Cu    0.55957   0.50561   0.75565   0.00000  Uiso   1.00
H621   H     0.64885   0.55460   0.59996   0.00000  Uiso   1.00
H622   H     0.65170   0.44199   0.99185   0.00000  Uiso   1.00
H623   H     0.55812   0.57093   0.88202   0.00000  Uiso   1.00
H624   H     0.60132   0.37247   0.76896   0.00000  Uiso   1.00
H625   H     0.60359   0.37116   0.70384   0.00000  Uiso   1.00
H626   H     0.43055   0.65447   0.75233   0.00000  Uiso   1.00
H627   H     0.33671   0.53852   0.79016   0.00000  Uiso   1.00
H628   H     0.66346   0.46184   0.70956   0.00000  Uiso   1.00
H629   H     0.63673   0.59134   0.93323   0.00000  Uiso   1.00
H630   H     0.33894   0.58262   0.51132   0.00000  Uiso   1.00
H631   H     0.46536   0.47103   0.58451   0.00000  Uiso   1.00
H632   H     0.35034   0.45804   0.90024   0.00000  Uiso   1.00
H633   H     0.39221   0.46629   0.54711   0.00000  Uiso   1.00
N634   N     0.64908   0.51407   0.76416   0.00000  Uiso   1.00
N635   N     0.35092   0.48593   0.73584   0.00000  Uiso   1.00
N636   N     0.59243   0.34924   0.73695   0.00000  Uiso   1.00
O637   O     0.46131   0.57141   0.74633   0.00000  Uiso   1.00
O638   O     0.56191   0.58089   0.75587   0.00000  Uiso   1.00
O639   O     0.42515   0.49293   0.81840   0.00000  Uiso   1.00
O640   O     0.52575   0.50241   0.82793   0.00000  Uiso   1.00
O641   O     0.43809   0.41911   0.74414   0.00000  Uiso   1.00
O642   O     0.53869   0.42859   0.75367   0.00000  Uiso   1.00
O643   O     0.47425   0.49759   0.67207   0.00000  Uiso   1.00
O644   O     0.57485   0.50707   0.68161   0.00000  Uiso   1.00
C645   C     0.84907   0.59979   0.74990   0.00000  Uiso   1.00
C646   C     0.77914   0.49841   0.90334   0.00000  Uiso   1.00
C647   C     0.86074   0.65509   0.74559   0.00000  Uiso   1.00
C648   C     0.79986   0.49938   0.84724   0.00000  Uiso   1.00
C649   C     0.81165   0.34440   0.74820   0.00000  Uiso   1.00
C650   C     0.81891   0.40004   0.74788   0.00000  Uiso   1.00
C651   C     0.86720   0.50367   0.65295   0.00000  Uiso   1.00
C652   C     0.95970   0.55871   0.52679   0.00000  Uiso   1.00
C653   C     0.88744   0.51222   0.59792   0.00000  Uiso   1.00
C654   C     0.71755   0.47219   0.92425   0.00000  Uiso   1.00
C655   C     0.69950   0.46203   0.97606   0.00000  Uiso   1.00
C656   C     0.80588   0.50233   0.98779   0.00000  Uiso   1.00
C657   C     0.74309   0.47583   0.50744   0.00000  Uiso   1.00
C658   C     0.82205   0.51772   0.93606   0.00000  Uiso   1.00
C659   C     0.85299   0.51462   0.51785   0.00000  Uiso   1.00
C660   C     0.91304   0.54601   0.99744   0.00000  Uiso   1.00
C661   C     0.92536   0.56558   0.94850   0.00000  Uiso   1.00
C662   C     0.88032   0.55239   0.91858   0.00000  Uiso   1.00
C663   C     0.84238   0.49660   0.56766   0.00000  Uiso   1.00
C664   C     0.94685   0.54213   0.57697   0.00000  Uiso   1.00
Cu665  Cu    0.77377   0.49439   0.74436   0.00000  Uiso   1.00
Cu666  Cu    0.89290   0.50561   0.75565   0.00000  Uiso   1.00
H667   H     0.98219   0.55460   0.59996   0.00000  Uiso   1.00
H668   H     0.98503   0.44199   0.99185   0.00000  Uiso   1.00
H669   H     0.89145   0.57093   0.88202   0.00000  Uiso   1.00
H670   H     0.93465   0.37247   0.76896   0.00000  Uiso   1.00
H671   H     0.93692   0.37116   0.70384   0.00000  Uiso   1.00
H672   H     0.76389   0.65447   0.75233   0.00000  Uiso   1.00
H673   H     0.67005   0.53852   0.79016   0.00000  Uiso   1.00
H674   H     0.99679   0.46184   0.70956   0.00000  Uiso   1.00
H675   H     0.97006   0.59134   0.93323   0.00000  Uiso   1.00
H676   H     0.67227   0.58262   0.51132   0.00000  Uiso   1.00
H677   H     0.79869   0.47103   0.58451   0.00000  Uiso   1.00
H678   H     0.68367   0.45804   0.90024   0.00000  Uiso   1.00
H679   H     0.72555   0.46629   0.54711   0.00000  Uiso   1.00
N680   N     0.98241   0.51407   0.76416   0.00000  Uiso   1.00
N681   N     0.68426   0.48593   0.73584   0.00000  Uiso   1.00
N682   N     0.92576   0.34924   0.73695   0.00000  Uiso   1.00
O683   O     0.79464   0.57141   0.74633   0.00000  Uiso   1.00
O684   O     0.89524   0.58089   0.75587   0.00000  Uiso   1.00
O685   O     0.75848   0.49293   0.81840   0.00000  Uiso   1.00
O686   O     0.85908   0.50241   0.82793   0.00000  Uiso   1.00
O687   O     0.77142   0.41911   0.74414   0.00000  Uiso   1.00
O688   O     0.87203   0.42859   0.75367   0.00000  Uiso   1.00
O689   O     0.80758   0.49759   0.67207   0.00000  Uiso   1.00
O690   O     0.90819   0.50707   0.68161   0.00000  Uiso   1.00
C691   C     0.18240   0.93312   0.74990   0.00000  Uiso   1.00
C692   C     0.11247   0.83175   0.90334   0.00000  Uiso   1.00
C693   C     0.19408   0.98842   0.74559   0.00000  Uiso   1.00
C694   C     0.13319   0.83271   0.84724   0.00000  Uiso   1.00
C695   C     0.14499   0.67774   0.74820   0.00000  Uiso   1.00
C696   C     0.15224   0.73337   0.74788   0.00000  Uiso   1.00
C697   C     0.20054   0.83700   0.65295   0.00000  Uiso   1.00
C698   C     0.29304   0.89204   0.52679   0.00000  Uiso   1.00
C699   C     0.22077   0.84555   0.59792   0.00000  Uiso   1.00
C700   C     0.05089   0.80552   0.92425   0.00000  Uiso   1.00
C701   C     0.03284   0.79536   0.97606   0.00000  Uiso   1.00
C702   C     0.13922   0.83566   0.98779   0.00000  Uiso   1.00
C703   C     0.07642   0.80916   0.50744   0.00000  Uiso   1.00
C704   C     0.15538   0.85106   0.93606   0.00000  Uiso   1.00
C705   C     0.18632   0.84796   0.51785   0.00000  Uiso   1.00
C706   C     0.24637   0.87935   0.99744   0.00000  Uiso   1.00
C707   C     0.25869   0.89891   0.94850   0.00000  Uiso   1.00
C708   C     0.21366   0.88572   0.91858   0.00000  Uiso   1.00
C709   C     0.17571   0.82994   0.56766   0.00000  Uiso   1.00
C710   C     0.28018   0.87546   0.57697   0.00000  Uiso   1.00
Cu711  Cu    0.10710   0.82772   0.74436   0.00000  Uiso   1.00
Cu712  Cu    0.22623   0.83895   0.75565   0.00000  Uiso   1.00
H713   H     0.31552   0.88793   0.59996   0.00000  Uiso   1.00
H714   H     0.31837   0.77532   0.99185   0.00000  Uiso   1.00
H715   H     0.22479   0.90426   0.88202   0.00000  Uiso   1.00
H716   H     0.26799   0.70581   0.76896   0.00000  Uiso   1.00
H717   H     0.27026   0.70449   0.70384   0.00000  Uiso   1.00
H718   H     0.09722   0.98780   0.75233   0.00000  Uiso   1.00
H719   H     0.00338   0.87185   0.79016   0.00000  Uiso   1.00
H720   H     0.33013   0.79517   0.70956   0.00000  Uiso   1.00
H721   H     0.30340   0.92468   0.93323   0.00000  Uiso   1.00
H722   H     0.00561   0.91595   0.51132   0.00000  Uiso   1.00
H723   H     0.13202   0.80437   0.58451   0.00000  Uiso   1.00
H724   H     0.01700   0.79137   0.90024   0.00000  Uiso   1.00
H725   H     0.05888   0.79962   0.54711   0.00000  Uiso   1.00
N726   N     0.31574   0.84741   0.76416   0.00000  Uiso   1.00
N727   N     0.01759   0.81926   0.73584   0.00000  Uiso   1.00
N728   N     0.25910   0.68257   0.73695   0.00000  Uiso   1.00
O729   O     0.12797   0.90474   0.74633   0.00000  Uiso   1.00
O730   O     0.22858   0.91422   0.75587   0.00000  Uiso   1.00
O731   O     0.09181   0.82627   0.81840   0.00000  Uiso   1.00
O732   O     0.19242   0.83575   0.82793   0.00000  Uiso   1.00
O733   O     0.10476   0.75245   0.74414   0.00000  Uiso   1.00
O734   O     0.20536   0.76193   0.75367   0.00000  Uiso   1.00
O735   O     0.14092   0.83092   0.67207   0.00000  Uiso   1.00
O736   O     0.24152   0.84040   0.68161   0.00000  Uiso   1.00
C737   C     0.51574   0.93312   0.74990   0.00000  Uiso   1.00
C738   C     0.44580   0.83175   0.90334   0.00000  Uiso   1.00
C739   C     0.52741   0.98842   0.74559   0.00000  Uiso   1.00
C740   C     0.46653   0.83271   0.84724   0.00000  Uiso   1.00
C741   C     0.47832   0.67774   0.74820   0.00000  Uiso   1.00
C742   C     0.48557   0.73337   0.74788   0.00000  Uiso   1.00
C743   C     0.53387   0.83700   0.65295   0.00000  Uiso   1.00
C744   C     0.62637   0.89204   0.52679   0.00000  Uiso   1.00
C745   C     0.55411   0.84555   0.59792   0.00000  Uiso   1.00
C746   C     0.38422   0.80552   0.92425   0.00000  Uiso   1.00
C747   C     0.36617   0.79536   0.97606   0.00000  Uiso   1.00
C748   C     0.47255   0.83566   0.98779   0.00000  Uiso   1.00
C749   C     0.40976   0.80916   0.50744   0.00000  Uiso   1.00
C750   C     0.48872   0.85106   0.93606   0.00000  Uiso   1.00
C751   C     0.51966   0.84796   0.51785   0.00000  Uiso   1.00
C752   C     0.57970   0.87935   0.99744   0.00000  Uiso   1.00
C753   C     0.59202   0.89891   0.94850   0.00000  Uiso   1.00
C754   C     0.54699   0.88572   0.91858   0.00000  Uiso   1.00
C755   C     0.50904   0.82994   0.56766   0.00000  Uiso   1.00
C756   C     0.61352   0.87546   0.57697   0.00000  Uiso   1.00
Cu757  Cu    0.44043   0.82772   0.74436   0.00000  Uiso   1.00
Cu758  Cu    0.55957   0.83895   0.75565   0.00000  Uiso   1.00
H759   H     0.64885   0.88793   0.59996   0.00000  Uiso   1.00
H760   H     0.65170   0.77532   0.99185   0.00000  Uiso   1.00
H761   H     0.55812   0.90426   0.88202   0.00000  Uiso   1.00
H762   H     0.60132   0.70581   0.76896   0.00000  Uiso   1.00
H763   H     0.60359   0.70449   0.70384   0.00000  Uiso   1.00
H764   H     0.43055   0.98780   0.75233   0.00000  Uiso   1.00
H765   H     0.33671   0.87185   0.79016   0.00000  Uiso   1.00
H766   H     0.66346   0.79517   0.70956   0.00000  Uiso   1.00
H767   H     0.63673   0.92468   0.93323   0.00000  Uiso   1.00
H768   H     0.33894   0.91595   0.51132   0.00000  Uiso   1.00
H769   H     0.46536   0.80437   0.58451   0.00000  Uiso   1.00
H770   H     0.35034   0.79137   0.90024   0.00000  Uiso   1.00
H771   H     0.39221   0.79962   0.54711   0.00000  Uiso   1.00
N772   N     0.64908   0.84741   0.76416   0.00000  Uiso   1.00
N773   N     0.35092   0.81926   0.73584   0.00000  Uiso   1.00
N774   N     0.59243   0.68257   0.73695   0.00000  Uiso   1.00
O775   O     0.46131   0.90474   0.74633   0.00000  Uiso   1.00
O776   O     0.56191   0.91422   0.75587   0.00000  Uiso   1.00
O777   O     0.42515   0.82627   0.81840   0.00000  Uiso   1.00
O778   O     0.52575   0.83575   0.82793   0.00000  Uiso   1.00
O779   O     0.43809   0.75245   0.74414   0.00000  Uiso   1.00
O780   O     0.53869   0.76193   0.75367   0.00000  Uiso   1.00
O781   O     0.47425   0.83092   0.67207   0.00000  Uiso   1.00
O782   O     0.57485   0.84040   0.68161   0.00000  Uiso   1.00
C783   C     0.84907   0.93312   0.74990   0.00000  Uiso   1.00
C784   C     0.77914   0.83175   0.90334   0.00000  Uiso   1.00
C785   C     0.86074   0.98842   0.74559   0.00000  Uiso   1.00
C786   C     0.79986   0.83271   0.84724   0.00000  Uiso   1.00
C787   C     0.81165   0.67774   0.74820   0.00000  Uiso   1.00
C788   C     0.81891   0.73337   0.74788   0.00000  Uiso   1.00
C789   C     0.86720   0.83700   0.65295   0.00000  Uiso   1.00
C790   C     0.95970   0.89204   0.52679   0.00000  Uiso   1.00
C791   C     0.88744   0.84555   0.59792   0.00000  Uiso   1.00
C792   C     0.71755   0.80552   0.92425   0.00000  Uiso   1.00
C793   C     0.69950   0.79536   0.97606   0.00000  Uiso   1.00
C794   C     0.80588   0.83566   0.98779   0.00000  Uiso   1.00
C795   C     0.74309   0.80916   0.50744   0.00000  Uiso   1.00
C796   C     0.82205   0.85106   0.93606   0.00000  Uiso   1.00
C797   C     0.85299   0.84796   0.51785   0.00000  Uiso   1.00
C798   C     0.91304   0.87935   0.99744   0.00000  Uiso   1.00
C799   C     0.92536   0.89891   0.94850   0.00000  Uiso   1.00
C800   C     0.88032   0.88572   0.91858   0.00000  Uiso   1.00
C801   C     0.84238   0.82994   0.56766   0.00000  Uiso   1.00
C802   C     0.94685   0.87546   0.57697   0.00000  Uiso   1.00
Cu803  Cu    0.77377   0.82772   0.74436   0.00000  Uiso   1.00
Cu804  Cu    0.89290   0.83895   0.75565   0.00000  Uiso   1.00
H805   H     0.98219   0.88793   0.59996   0.00000  Uiso   1.00
H806   H     0.98503   0.77532   0.99185   0.00000  Uiso   1.00
H807   H     0.89145   0.90426   0.88202   0.00000  Uiso   1.00
H808   H     0.93465   0.70581   0.76896   0.00000  Uiso   1.00
H809   H     0.93692   0.70449   0.70384   0.00000  Uiso   1.00
H810   H     0.76389   0.98780   0.75233   0.00000  Uiso   1.00
H811   H     0.67005   0.87185   0.79016   0.00000  Uiso   1.00
H812   H     0.99679   0.79517   0.70956   0.00000  Uiso   1.00
H813   H     0.97006   0.92468   0.93323   0.00000  Uiso   1.00
H814   H     0.67227   0.91595   0.51132   0.00000  Uiso   1.00
H815   H     0.79869   0.80437   0.58451   0.00000  Uiso   1.00
H816   H     0.68367   0.79137   0.90024   0.00000  Uiso   1.00
H817   H     0.72555   0.79962   0.54711   0.00000  Uiso   1.00
N818   N     0.98241   0.84741   0.76416   0.00000  Uiso   1.00
N819   N     0.68426   0.81926   0.73584   0.00000  Uiso   1.00
N820   N     0.92576   0.68257   0.73695   0.00000  Uiso   1.00
O821   O     0.79464   0.90474   0.74633   0.00000  Uiso   1.00
O822   O     0.89524   0.91422   0.75587   0.00000  Uiso   1.00
O823   O     0.75848   0.82627   0.81840   0.00000  Uiso   1.00
O824   O     0.85908   0.83575   0.82793   0.00000  Uiso   1.00
O825   O     0.77142   0.75245   0.74414   0.00000  Uiso   1.00
O826   O     0.87203   0.76193   0.75367   0.00000  Uiso   1.00
O827   O     0.80758   0.83092   0.67207   0.00000  Uiso   1.00
O828   O     0.90819   0.84040   0.68161   0.00000  Uiso   1.00
loop_
_geom_bond_atom_site_label_1
_geom_bond_atom_site_label_2
_geom_bond_distance
_geom_bond_site_symmetry_2
_ccdc_geom_bond_type
C1     O39     1.291   .     A
C1     O40     1.281   .     A
C1     C3      1.424   .     S
C2     C4      1.475   .     S
C2     C14     1.423   .     A
C2     C10     1.402   .     A
C3     C143    1.344   .     S
C3     N176    1.442   .     S
C4     O42     1.294   .     A
C4     O41     1.303   .     A
C5     C6      1.432   .     S
C5     C279    1.344   1_545 S
C5     H304    1.088   1_545 S
C6     O44     1.285   .     A
C6     O43     1.292   .     A
C7     O45     1.293   .     A
C7     O46     1.300   .     A
C7     C9      1.464   .     S
C8     C20     1.393   .     A
C8     C430    1.405   1_554 S
C8     H78     1.084   .     S
C9     C20     1.398   .     A
C9     C19     1.399   .     A
C10    H34     1.083   .     S
C10    C11     1.387   .     A
C11    C427    1.391   .     S
C11    H116    1.083   1_455 S
C12    C14     1.419   .     A
C12    C427    1.418   .     S
C12    C429    1.426   .     S
C13    H35     1.077   .     S
C13    C426    1.418   1_554 S
C13    C425    1.391   1_554 S
C14    C18     1.413   .     A
C15    C19     1.402   .     A
C15    C426    1.426   1_554 S
C15    C430    1.420   1_554 S
C16    C17     1.392   .     A
C16    C429    1.420   .     S
C16    C422    1.405   .     S
C17    C18     1.387   .     A
C17    H31     1.084   .     S
C18    H25     1.080   .     S
C19    H33     1.077   .     S
C20    H23     1.083   .     S
Cu21   O39     1.969   .     S
Cu21   Cu22    2.684   .     S
Cu21   O45     1.921   .     S
Cu21   O41     1.942   .     S
Cu21   N37     2.017   .     S
Cu21   O43     1.963   .     S
Cu22   N36     2.017   .     S
Cu22   O40     1.963   .     S
Cu22   O42     1.921   .     S
Cu22   O46     1.942   .     S
Cu22   O44     1.969   .     S
H24    C57     1.083   .     S
H26    N38     1.045   .     S
H27    N38     1.046   .     S
H28    C143    1.088   .     S
H29    N128    1.029   1_455 S
H30    N83     1.028   .     S
H32    C100    1.084   1_455 S
N36    H75     1.029   .     S
N36    N83     1.287   .     S
N37    N128    1.287   1_455 S
N37    H122    1.028   1_455 S
N38    C279    1.442   1_545 S
C47    O85     1.291   .     A
C47    O86     1.281   .     A
C47    C49     1.424   .     S
C48    C50     1.475   .     S
C48    C60     1.423   .     A
C48    C56     1.402   .     A
C49    C189    1.344   .     S
C49    N222    1.442   .     S
C50    O88     1.294   .     A
C50    O87     1.303   .     A
C51    C52     1.432   .     S
C51    C325    1.344   1_545 S
C51    H350    1.088   1_545 S
C52    O90     1.285   .     A
C52    O89     1.292   .     A
C53    O91     1.293   .     A
C53    O92     1.300   .     A
C53    C55     1.464   .     S
C54    C66     1.393   .     A
C54    C476    1.405   1_554 S
C54    H124    1.084   .     S
C55    C66     1.398   .     A
C55    C65     1.399   .     A
C56    H80     1.083   .     S
C56    C57     1.387   .     A
C57    C473    1.391   .     S
C58    C60     1.419   .     A
C58    C473    1.418   .     S
C58    C475    1.426   .     S
C59    H81     1.077   .     S
C59    C472    1.418   1_554 S
C59    C471    1.391   1_554 S
C60    C64     1.413   .     A
C61    C65     1.402   .     A
C61    C472    1.426   1_554 S
C61    C476    1.420   1_554 S
C62    C63     1.392   .     A
C62    C475    1.420   .     S
C62    C468    1.405   .     S
C63    C64     1.387   .     A
C63    H77     1.084   .     S
C64    H71     1.080   .     S
C65    H79     1.077   .     S
C66    H69     1.083   .     S
Cu67   O85     1.969   .     S
Cu67   Cu68    2.684   .     S
Cu67   O91     1.921   .     S
Cu67   O87     1.942   .     S
Cu67   N83     2.017   .     S
Cu67   O89     1.963   .     S
Cu68   N82     2.017   .     S
Cu68   O86     1.963   .     S
Cu68   O88     1.921   .     S
Cu68   O92     1.942   .     S
Cu68   O90     1.969   .     S
H70    C103    1.083   .     S
H72    N84     1.045   .     S
H73    N84     1.046   .     S
H74    C189    1.088   .     S
H76    N129    1.028   .     S
N82    H121    1.029   .     S
N82    N129    1.287   .     S
N84    C325    1.442   1_545 S
C93    O131    1.291   .     A
C93    O132    1.281   .     A
C93    C95     1.424   .     S
C94    C96     1.475   .     S
C94    C106    1.423   .     A
C94    C102    1.402   .     A
C95    C235    1.344   .     S
C95    N268    1.442   .     S
C96    O134    1.294   .     A
C96    O133    1.303   .     A
C97    C98     1.432   .     S
C97    C371    1.344   1_545 S
C97    H396    1.088   1_545 S
C98    O136    1.285   .     A
C98    O135    1.292   .     A
C99    O137    1.293   .     A
C99    O138    1.300   .     A
C99    C101    1.464   .     S
C100   C112    1.393   .     A
C100   C522    1.405   1_554 S
C100   H32     1.084   1_655 S
C101   C112    1.398   .     A
C101   C111    1.399   .     A
C102   H126    1.083   .     S
C102   C103    1.387   .     A
C103   C519    1.391   .     S
C104   C106    1.419   .     A
C104   C519    1.418   .     S
C104   C521    1.426   .     S
C105   H127    1.077   .     S
C105   C518    1.418   1_554 S
C105   C517    1.391   1_554 S
C106   C110    1.413   .     A
C107   C111    1.402   .     A
C107   C518    1.426   1_554 S
C107   C522    1.420   1_554 S
C108   C109    1.392   .     A
C108   C521    1.420   .     S
C108   C514    1.405   .     S
C109   C110    1.387   .     A
C109   H123    1.084   .     S
C110   H117    1.080   .     S
C111   H125    1.077   .     S
C112   H115    1.083   .     S
Cu113  O131    1.969   .     S
Cu113  Cu114   2.684   .     S
Cu113  O137    1.921   .     S
Cu113  O133    1.942   .     S
Cu113  N129    2.017   .     S
Cu113  O135    1.963   .     S
Cu114  N128    2.017   .     S
Cu114  O132    1.963   .     S
Cu114  O134    1.921   .     S
Cu114  O138    1.942   .     S
Cu114  O136    1.969   .     S
H116   C11     1.083   1_655 S
H118   N130    1.045   .     S
H119   N130    1.046   .     S
H120   C235    1.088   .     S
H122   N37     1.028   1_655 S
N128   H29     1.029   1_655 S
N128   N37     1.287   1_655 S
N130   C371    1.442   1_545 S
C139   O177    1.291   .     A
C139   O178    1.281   .     A
C139   C141    1.424   .     S
C140   C142    1.475   .     S
C140   C152    1.423   .     A
C140   C148    1.402   .     A
C141   C281    1.344   .     S
C141   N314    1.442   .     S
C142   O180    1.294   .     A
C142   O179    1.303   .     A
C143   C144    1.432   .     S
C144   O182    1.285   .     A
C144   O181    1.292   .     A
C145   O183    1.293   .     A
C145   O184    1.300   .     A
C145   C147    1.464   .     S
C146   C158    1.393   .     A
C146   C568    1.405   1_554 S
C146   H216    1.084   .     S
C147   C158    1.398   .     A
C147   C157    1.399   .     A
C148   H172    1.083   .     S
C148   C149    1.387   .     A
C149   C565    1.391   .     S
C149   H254    1.083   1_455 S
C150   C152    1.419   .     A
C150   C565    1.418   .     S
C150   C567    1.426   .     S
C151   H173    1.077   .     S
C151   C564    1.418   1_554 S
C151   C563    1.391   1_554 S
C152   C156    1.413   .     A
C153   C157    1.402   .     A
C153   C564    1.426   1_554 S
C153   C568    1.420   1_554 S
C154   C155    1.392   .     A
C154   C567    1.420   .     S
C154   C560    1.405   .     S
C155   C156    1.387   .     A
C155   H169    1.084   .     S
C156   H163    1.080   .     S
C157   H171    1.077   .     S
C158   H161    1.083   .     S
Cu159  O177    1.969   .     S
Cu159  Cu160   2.684   .     S
Cu159  O183    1.921   .     S
Cu159  O179    1.942   .     S
Cu159  N175    2.017   .     S
Cu159  O181    1.963   .     S
Cu160  N174    2.017   .     S
Cu160  O178    1.963   .     S
Cu160  O180    1.921   .     S
Cu160  O184    1.942   .     S
Cu160  O182    1.969   .     S
H162   C195    1.083   .     S
H164   N176    1.045   .     S
H165   N176    1.046   .     S
H166   C281    1.088   .     S
H167   N266    1.029   1_455 S
H168   N221    1.028   .     S
H170   C238    1.084   1_455 S
N174   H213    1.029   .     S
N174   N221    1.287   .     S
N175   N266    1.287   1_455 S
N175   H260    1.028   1_455 S
C185   O223    1.291   .     A
C185   O224    1.281   .     A
C185   C187    1.424   .     S
C186   C188    1.475   .     S
C186   C198    1.423   .     A
C186   C194    1.402   .     A
C187   C327    1.344   .     S
C187   N360    1.442   .     S
C188   O226    1.294   .     A
C188   O225    1.303   .     A
C189   C190    1.432   .     S
C190   O228    1.285   .     A
C190   O227    1.292   .     A
C191   O229    1.293   .     A
C191   O230    1.300   .     A
C191   C193    1.464   .     S
C192   C204    1.393   .     A
C192   C614    1.405   1_554 S
C192   H262    1.084   .     S
C193   C204    1.398   .     A
C193   C203    1.399   .     A
C194   H218    1.083   .     S
C194   C195    1.387   .     A
C195   C611    1.391   .     S
C196   C198    1.419   .     A
C196   C611    1.418   .     S
C196   C613    1.426   .     S
C197   H219    1.077   .     S
C197   C610    1.418   1_554 S
C197   C609    1.391   1_554 S
C198   C202    1.413   .     A
C199   C203    1.402   .     A
C199   C610    1.426   1_554 S
C199   C614    1.420   1_554 S
C200   C201    1.392   .     A
C200   C613    1.420   .     S
C200   C606    1.405   .     S
C201   C202    1.387   .     A
C201   H215    1.084   .     S
C202   H209    1.080   .     S
C203   H217    1.077   .     S
C204   H207    1.083   .     S
Cu205  O223    1.969   .     S
Cu205  Cu206   2.684   .     S
Cu205  O229    1.921   .     S
Cu205  O225    1.942   .     S
Cu205  N221    2.017   .     S
Cu205  O227    1.963   .     S
Cu206  N220    2.017   .     S
Cu206  O224    1.963   .     S
Cu206  O226    1.921   .     S
Cu206  O230    1.942   .     S
Cu206  O228    1.969   .     S
H208   C241    1.083   .     S
H210   N222    1.045   .     S
H211   N222    1.046   .     S
H212   C327    1.088   .     S
H214   N267    1.028   .     S
N220   H259    1.029   .     S
N220   N267    1.287   .     S
C231   O269    1.291   .     A
C231   O270    1.281   .     A
C231   C233    1.424   .     S
C232   C234    1.475   .     S
C232   C244    1.423   .     A
C232   C240    1.402   .     A
C233   C373    1.344   .     S
C233   N406    1.442   .     S
C234   O272    1.294   .     A
C234   O271    1.303   .     A
C235   C236    1.432   .     S
C236   O274    1.285   .     A
C236   O273    1.292   .     A
C237   O275    1.293   .     A
C237   O276    1.300   .     A
C237   C239    1.464   .     S
C238   C250    1.393   .     A
C238   C660    1.405   1_554 S
C238   H170    1.084   1_655 S
C239   C250    1.398   .     A
C239   C249    1.399   .     A
C240   H264    1.083   .     S
C240   C241    1.387   .     A
C241   C657    1.391   .     S
C242   C244    1.419   .     A
C242   C657    1.418   .     S
C242   C659    1.426   .     S
C243   H265    1.077   .     S
C243   C656    1.418   1_554 S
C243   C655    1.391   1_554 S
C244   C248    1.413   .     A
C245   C249    1.402   .     A
C245   C656    1.426   1_554 S
C245   C660    1.420   1_554 S
C246   C247    1.392   .     A
C246   C659    1.420   .     S
C246   C652    1.405   .     S
C247   C248    1.387   .     A
C247   H261    1.084   .     S
C248   H255    1.080   .     S
C249   H263    1.077   .     S
C250   H253    1.083   .     S
Cu251  O269    1.969   .     S
Cu251  Cu252   2.684   .     S
Cu251  O275    1.921   .     S
Cu251  O271    1.942   .     S
Cu251  N267    2.017   .     S
Cu251  O273    1.963   .     S
Cu252  N266    2.017   .     S
Cu252  O270    1.963   .     S
Cu252  O272    1.921   .     S
Cu252  O276    1.942   .     S
Cu252  O274    1.969   .     S
H254   C149    1.083   1_655 S
H256   N268    1.045   .     S
H257   N268    1.046   .     S
H258   C373    1.088   .     S
H260   N175    1.028   1_655 S
N266   H167    1.029   1_655 S
N266   N175    1.287   1_655 S
C277   O315    1.291   .     A
C277   O316    1.281   .     A
C277   C279    1.424   .     S
C278   C280    1.475   .     S
C278   C290    1.423   .     A
C278   C286    1.402   .     A
C279   C5      1.344   1_565 S
C279   N38     1.442   1_565 S
C280   O318    1.294   .     A
C280   O317    1.303   .     A
C281   C282    1.432   .     S
C282   O320    1.285   .     A
C282   O319    1.292   .     A
C283   O321    1.293   .     A
C283   O322    1.300   .     A
C283   C285    1.464   .     S
C284   C296    1.393   .     A
C284   C706    1.405   1_554 S
C284   H354    1.084   .     S
C285   C296    1.398   .     A
C285   C295    1.399   .     A
C286   H310    1.083   .     S
C286   C287    1.387   .     A
C287   C703    1.391   .     S
C287   H392    1.083   1_455 S
C288   C290    1.419   .     A
C288   C703    1.418   .     S
C288   C705    1.426   .     S
C289   H311    1.077   .     S
C289   C702    1.418   1_554 S
C289   C701    1.391   1_554 S
C290   C294    1.413   .     A
C291   C295    1.402   .     A
C291   C702    1.426   1_554 S
C291   C706    1.420   1_554 S
C292   C293    1.392   .     A
C292   C705    1.420   .     S
C292   C698    1.405   .     S
C293   C294    1.387   .     A
C293   H307    1.084   .     S
C294   H301    1.080   .     S
C295   H309    1.077   .     S
C296   H299    1.083   .     S
Cu297  O315    1.969   .     S
Cu297  Cu298   2.684   .     S
Cu297  O321    1.921   .     S
Cu297  O317    1.942   .     S
Cu297  N313    2.017   .     S
Cu297  O319    1.963   .     S
Cu298  N312    2.017   .     S
Cu298  O316    1.963   .     S
Cu298  O318    1.921   .     S
Cu298  O322    1.942   .     S
Cu298  O320    1.969   .     S
H300   C333    1.083   .     S
H302   N314    1.045   .     S
H303   N314    1.046   .     S
H304   C5      1.088   1_565 S
H305   N404    1.029   1_455 S
H306   N359    1.028   .     S
H308   C376    1.084   1_455 S
N312   H351    1.029   .     S
N312   N359    1.287   .     S
N313   N404    1.287   1_455 S
N313   H398    1.028   1_455 S
C323   O361    1.291   .     A
C323   O362    1.281   .     A
C323   C325    1.424   .     S
C324   C326    1.475   .     S
C324   C336    1.423   .     A
C324   C332    1.402   .     A
C325   C51     1.344   1_565 S
C325   N84     1.442   1_565 S
C326   O364    1.294   .     A
C326   O363    1.303   .     A
C327   C328    1.432   .     S
C328   O366    1.285   .     A
C328   O365    1.292   .     A
C329   O367    1.293   .     A
C329   O368    1.300   .     A
C329   C331    1.464   .     S
C330   C342    1.393   .     A
C330   C752    1.405   1_554 S
C330   H400    1.084   .     S
C331   C342    1.398   .     A
C331   C341    1.399   .     A
C332   H356    1.083   .     S
C332   C333    1.387   .     A
C333   C749    1.391   .     S
C334   C336    1.419   .     A
C334   C749    1.418   .     S
C334   C751    1.426   .     S
C335   H357    1.077   .     S
C335   C748    1.418   1_554 S
C335   C747    1.391   1_554 S
C336   C340    1.413   .     A
C337   C341    1.402   .     A
C337   C748    1.426   1_554 S
C337   C752    1.420   1_554 S
C338   C339    1.392   .     A
C338   C751    1.420   .     S
C338   C744    1.405   .     S
C339   C340    1.387   .     A
C339   H353    1.084   .     S
C340   H347    1.080   .     S
C341   H355    1.077   .     S
C342   H345    1.083   .     S
Cu343  O361    1.969   .     S
Cu343  Cu344   2.684   .     S
Cu343  O367    1.921   .     S
Cu343  O363    1.942   .     S
Cu343  N359    2.017   .     S
Cu343  O365    1.963   .     S
Cu344  N358    2.017   .     S
Cu344  O362    1.963   .     S
Cu344  O364    1.921   .     S
Cu344  O368    1.942   .     S
Cu344  O366    1.969   .     S
H346   C379    1.083   .     S
H348   N360    1.045   .     S
H349   N360    1.046   .     S
H350   C51     1.088   1_565 S
H352   N405    1.028   .     S
N358   H397    1.029   .     S
N358   N405    1.287   .     S
C369   O407    1.291   .     A
C369   O408    1.281   .     A
C369   C371    1.424   .     S
C370   C372    1.475   .     S
C370   C382    1.423   .     A
C370   C378    1.402   .     A
C371   C97     1.344   1_565 S
C371   N130    1.442   1_565 S
C372   O410    1.294   .     A
C372   O409    1.303   .     A
C373   C374    1.432   .     S
C374   O412    1.285   .     A
C374   O411    1.292   .     A
C375   O413    1.293   .     A
C375   O414    1.300   .     A
C375   C377    1.464   .     S
C376   C388    1.393   .     A
C376   C798    1.405   1_554 S
C376   H308    1.084   1_655 S
C377   C388    1.398   .     A
C377   C387    1.399   .     A
C378   H402    1.083   .     S
C378   C379    1.387   .     A
C379   C795    1.391   .     S
C380   C382    1.419   .     A
C380   C795    1.418   .     S
C380   C797    1.426   .     S
C381   H403    1.077   .     S
C381   C794    1.418   1_554 S
C381   C793    1.391   1_554 S
C382   C386    1.413   .     A
C383   C387    1.402   .     A
C383   C794    1.426   1_554 S
C383   C798    1.420   1_554 S
C384   C385    1.392   .     A
C384   C797    1.420   .     S
C384   C790    1.405   .     S
C385   C386    1.387   .     A
C385   H399    1.084   .     S
C386   H393    1.080   .     S
C387   H401    1.077   .     S
C388   H391    1.083   .     S
Cu389  O407    1.969   .     S
Cu389  Cu390   2.684   .     S
Cu389  O413    1.921   .     S
Cu389  O409    1.942   .     S
Cu389  N405    2.017   .     S
Cu389  O411    1.963   .     S
Cu390  N404    2.017   .     S
Cu390  O408    1.963   .     S
Cu390  O410    1.921   .     S
Cu390  O414    1.942   .     S
Cu390  O412    1.969   .     S
H392   C287    1.083   1_655 S
H394   N406    1.045   .     S
H395   N406    1.046   .     S
H396   C97     1.088   1_565 S
H398   N313    1.028   1_655 S
N404   H305    1.029   1_655 S
N404   N313    1.287   1_655 S
C415   O453    1.291   .     A
C415   O454    1.281   .     A
C415   C417    1.424   .     S
C416   C418    1.475   .     S
C416   C428    1.423   .     A
C416   C424    1.402   .     A
C417   C557    1.344   .     S
C417   N590    1.442   .     S
C418   O456    1.294   .     A
C418   O455    1.303   .     A
C419   C420    1.432   .     S
C419   C693    1.344   1_545 S
C419   H718    1.088   1_545 S
C420   O458    1.285   .     A
C420   O457    1.292   .     A
C421   O459    1.293   .     A
C421   O460    1.300   .     A
C421   C423    1.464   .     S
C422   C434    1.393   .     A
C422   H492    1.084   .     S
C423   C434    1.398   .     A
C423   C433    1.399   .     A
C424   H448    1.083   .     S
C424   C425    1.387   .     A
C425   C13     1.391   1_556 S
C425   H530    1.083   1_455 S
C426   C428    1.419   .     A
C426   C13     1.418   1_556 S
C426   C15     1.426   1_556 S
C427   H449    1.077   .     S
C428   C432    1.413   .     A
C429   C433    1.402   .     A
C430   C431    1.392   .     A
C430   C15     1.420   1_556 S
C430   C8      1.405   1_556 S
C431   C432    1.387   .     A
C431   H445    1.084   .     S
C432   H439    1.080   .     S
C433   H447    1.077   .     S
C434   H437    1.083   .     S
Cu435  O453    1.969   .     S
Cu435  Cu436   2.684   .     S
Cu435  O459    1.921   .     S
Cu435  O455    1.942   .     S
Cu435  N451    2.017   .     S
Cu435  O457    1.963   .     S
Cu436  N450    2.017   .     S
Cu436  O454    1.963   .     S
Cu436  O456    1.921   .     S
Cu436  O460    1.942   .     S
Cu436  O458    1.969   .     S
H438   C471    1.083   .     S
H440   N452    1.045   .     S
H441   N452    1.046   .     S
H442   C557    1.088   .     S
H443   N542    1.029   1_455 S
H444   N497    1.028   .     S
H446   C514    1.084   1_455 S
N450   H489    1.029   .     S
N450   N497    1.287   .     S
N451   N542    1.287   1_455 S
N451   H536    1.028   1_455 S
N452   C693    1.442   1_545 S
C461   O499    1.291   .     A
C461   O500    1.281   .     A
C461   C463    1.424   .     S
C462   C464    1.475   .     S
C462   C474    1.423   .     A
C462   C470    1.402   .     A
C463   C603    1.344   .     S
C463   N636    1.442   .     S
C464   O502    1.294   .     A
C464   O501    1.303   .     A
C465   C466    1.432   .     S
C465   C739    1.344   1_545 S
C465   H764    1.088   1_545 S
C466   O504    1.285   .     A
C466   O503    1.292   .     A
C467   O505    1.293   .     A
C467   O506    1.300   .     A
C467   C469    1.464   .     S
C468   C480    1.393   .     A
C468   H538    1.084   .     S
C469   C480    1.398   .     A
C469   C479    1.399   .     A
C470   H494    1.083   .     S
C470   C471    1.387   .     A
C471   C59     1.391   1_556 S
C472   C474    1.419   .     A
C472   C59     1.418   1_556 S
C472   C61     1.426   1_556 S
C473   H495    1.077   .     S
C474   C478    1.413   .     A
C475   C479    1.402   .     A
C476   C477    1.392   .     A
C476   C61     1.420   1_556 S
C476   C54     1.405   1_556 S
C477   C478    1.387   .     A
C477   H491    1.084   .     S
C478   H485    1.080   .     S
C479   H493    1.077   .     S
C480   H483    1.083   .     S
Cu481  O499    1.969   .     S
Cu481  Cu482   2.684   .     S
Cu481  O505    1.921   .     S
Cu481  O501    1.942   .     S
Cu481  N497    2.017   .     S
Cu481  O503    1.963   .     S
Cu482  N496    2.017   .     S
Cu482  O500    1.963   .     S
Cu482  O502    1.921   .     S
Cu482  O506    1.942   .     S
Cu482  O504    1.969   .     S
H484   C517    1.083   .     S
H486   N498    1.045   .     S
H487   N498    1.046   .     S
H488   C603    1.088   .     S
H490   N543    1.028   .     S
N496   H535    1.029   .     S
N496   N543    1.287   .     S
N498   C739    1.442   1_545 S
C507   O545    1.291   .     A
C507   O546    1.281   .     A
C507   C509    1.424   .     S
C508   C510    1.475   .     S
C508   C520    1.423   .     A
C508   C516    1.402   .     A
C509   C649    1.344   .     S
C509   N682    1.442   .     S
C510   O548    1.294   .     A
C510   O547    1.303   .     A
C511   C512    1.432   .     S
C511   C785    1.344   1_545 S
C511   H810    1.088   1_545 S
C512   O550    1.285   .     A
C512   O549    1.292   .     A
C513   O551    1.293   .     A
C513   O552    1.300   .     A
C513   C515    1.464   .     S
C514   C526    1.393   .     A
C514   H446    1.084   1_655 S
C515   C526    1.398   .     A
C515   C525    1.399   .     A
C516   H540    1.083   .     S
C516   C517    1.387   .     A
C517   C105    1.391   1_556 S
C518   C520    1.419   .     A
C518   C105    1.418   1_556 S
C518   C107    1.426   1_556 S
C519   H541    1.077   .     S
C520   C524    1.413   .     A
C521   C525    1.402   .     A
C522   C523    1.392   .     A
C522   C107    1.420   1_556 S
C522   C100    1.405   1_556 S
C523   C524    1.387   .     A
C523   H537    1.084   .     S
C524   H531    1.080   .     S
C525   H539    1.077   .     S
C526   H529    1.083   .     S
Cu527  O545    1.969   .     S
Cu527  Cu528   2.684   .     S
Cu527  O551    1.921   .     S
Cu527  O547    1.942   .     S
Cu527  N543    2.017   .     S
Cu527  O549    1.963   .     S
Cu528  N542    2.017   .     S
Cu528  O546    1.963   .     S
Cu528  O548    1.921   .     S
Cu528  O552    1.942   .     S
Cu528  O550    1.969   .     S
H530   C425    1.083   1_655 S
H532   N544    1.045   .     S
H533   N544    1.046   .     S
H534   C649    1.088   .     S
H536   N451    1.028   1_655 S
N542   H443    1.029   1_655 S
N542   N451    1.287   1_655 S
N544   C785    1.442   1_545 S
C553   O591    1.291   .     A
C553   O592    1.281   .     A
C553   C555    1.424   .     S
C554   C556    1.475   .     S
C554   C566    1.423   .     A
C554   C562    1.402   .     A
C555   C695    1.344   .     S
C555   N728    1.442   .     S
C556   O594    1.294   .     A
C556   O593    1.303   .     A
C557   C558    1.432   .     S
C558   O596    1.285   .     A
C558   O595    1.292   .     A
C559   O597    1.293   .     A
C559   O598    1.300   .     A
C559   C561    1.464   .     S
C560   C572    1.393   .     A
C560   H630    1.084   .     S
C561   C572    1.398   .     A
C561   C571    1.399   .     A
C562   H586    1.083   .     S
C562   C563    1.387   .     A
C563   C151    1.391   1_556 S
C563   H668    1.083   1_455 S
C564   C566    1.419   .     A
C564   C151    1.418   1_556 S
C564   C153    1.426   1_556 S
C565   H587    1.077   .     S
C566   C570    1.413   .     A
C567   C571    1.402   .     A
C568   C569    1.392   .     A
C568   C153    1.420   1_556 S
C568   C146    1.405   1_556 S
C569   C570    1.387   .     A
C569   H583    1.084   .     S
C570   H577    1.080   .     S
C571   H585    1.077   .     S
C572   H575    1.083   .     S
Cu573  O591    1.969   .     S
Cu573  Cu574   2.684   .     S
Cu573  O597    1.921   .     S
Cu573  O593    1.942   .     S
Cu573  N589    2.017   .     S
Cu573  O595    1.963   .     S
Cu574  N588    2.017   .     S
Cu574  O592    1.963   .     S
Cu574  O594    1.921   .     S
Cu574  O598    1.942   .     S
Cu574  O596    1.969   .     S
H576   C609    1.083   .     S
H578   N590    1.045   .     S
H579   N590    1.046   .     S
H580   C695    1.088   .     S
H581   N680    1.029   1_455 S
H582   N635    1.028   .     S
H584   C652    1.084   1_455 S
N588   H627    1.029   .     S
N588   N635    1.287   .     S
N589   N680    1.287   1_455 S
N589   H674    1.028   1_455 S
C599   O637    1.291   .     A
C599   O638    1.281   .     A
C599   C601    1.424   .     S
C600   C602    1.475   .     S
C600   C612    1.423   .     A
C600   C608    1.402   .     A
C601   C741    1.344   .     S
C601   N774    1.442   .     S
C602   O640    1.294   .     A
C602   O639    1.303   .     A
C603   C604    1.432   .     S
C604   O642    1.285   .     A
C604   O641    1.292   .     A
C605   O643    1.293   .     A
C605   O644    1.300   .     A
C605   C607    1.464   .     S
C606   C618    1.393   .     A
C606   H676    1.084   .     S
C607   C618    1.398   .     A
C607   C617    1.399   .     A
C608   H632    1.083   .     S
C608   C609    1.387   .     A
C609   C197    1.391   1_556 S
C610   C612    1.419   .     A
C610   C197    1.418   1_556 S
C610   C199    1.426   1_556 S
C611   H633    1.077   .     S
C612   C616    1.413   .     A
C613   C617    1.402   .     A
C614   C615    1.392   .     A
C614   C199    1.420   1_556 S
C614   C192    1.405   1_556 S
C615   C616    1.387   .     A
C615   H629    1.084   .     S
C616   H623    1.080   .     S
C617   H631    1.077   .     S
C618   H621    1.083   .     S
Cu619  O637    1.969   .     S
Cu619  Cu620   2.684   .     S
Cu619  O643    1.921   .     S
Cu619  O639    1.942   .     S
Cu619  N635    2.017   .     S
Cu619  O641    1.963   .     S
Cu620  N634    2.017   .     S
Cu620  O638    1.963   .     S
Cu620  O640    1.921   .     S
Cu620  O644    1.942   .     S
Cu620  O642    1.969   .     S
H622   C655    1.083   .     S
H624   N636    1.045   .     S
H625   N636    1.046   .     S
H626   C741    1.088   .     S
H628   N681    1.028   .     S
N634   H673    1.029   .     S
N634   N681    1.287   .     S
C645   O683    1.291   .     A
C645   O684    1.281   .     A
C645   C647    1.424   .     S
C646   C648    1.475   .     S
C646   C658    1.423   .     A
C646   C654    1.402   .     A
C647   C787    1.344   .     S
C647   N820    1.442   .     S
C648   O686    1.294   .     A
C648   O685    1.303   .     A
C649   C650    1.432   .     S
C650   O688    1.285   .     A
C650   O687    1.292   .     A
C651   O689    1.293   .     A
C651   O690    1.300   .     A
C651   C653    1.464   .     S
C652   C664    1.393   .     A
C652   H584    1.084   1_655 S
C653   C664    1.398   .     A
C653   C663    1.399   .     A
C654   H678    1.083   .     S
C654   C655    1.387   .     A
C655   C243    1.391   1_556 S
C656   C658    1.419   .     A
C656   C243    1.418   1_556 S
C656   C245    1.426   1_556 S
C657   H679    1.077   .     S
C658   C662    1.413   .     A
C659   C663    1.402   .     A
C660   C661    1.392   .     A
C660   C245    1.420   1_556 S
C660   C238    1.405   1_556 S
C661   C662    1.387   .     A
C661   H675    1.084   .     S
C662   H669    1.080   .     S
C663   H677    1.077   .     S
C664   H667    1.083   .     S
Cu665  O683    1.969   .     S
Cu665  Cu666   2.684   .     S
Cu665  O689    1.921   .     S
Cu665  O685    1.942   .     S
Cu665  N681    2.017   .     S
Cu665  O687    1.963   .     S
Cu666  N680    2.017   .     S
Cu666  O684    1.963   .     S
Cu666  O686    1.921   .     S
Cu666  O690    1.942   .     S
Cu666  O688    1.969   .     S
H668   C563    1.083   1_655 S
H670   N682    1.045   .     S
H671   N682    1.046   .     S
H672   C787    1.088   .     S
H674   N589    1.028   1_655 S
N680   H581    1.029   1_655 S
N680   N589    1.287   1_655 S
C691   O729    1.291   .     A
C691   O730    1.281   .     A
C691   C693    1.424   .     S
C692   C694    1.475   .     S
C692   C704    1.423   .     A
C692   C700    1.402   .     A
C693   C419    1.344   1_565 S
C693   N452    1.442   1_565 S
C694   O732    1.294   .     A
C694   O731    1.303   .     A
C695   C696    1.432   .     S
C696   O734    1.285   .     A
C696   O733    1.292   .     A
C697   O735    1.293   .     A
C697   O736    1.300   .     A
C697   C699    1.464   .     S
C698   C710    1.393   .     A
C698   H768    1.084   .     S
C699   C710    1.398   .     A
C699   C709    1.399   .     A
C700   H724    1.083   .     S
C700   C701    1.387   .     A
C701   C289    1.391   1_556 S
C701   H806    1.083   1_455 S
C702   C704    1.419   .     A
C702   C289    1.418   1_556 S
C702   C291    1.426   1_556 S
C703   H725    1.077   .     S
C704   C708    1.413   .     A
C705   C709    1.402   .     A
C706   C707    1.392   .     A
C706   C291    1.420   1_556 S
C706   C284    1.405   1_556 S
C707   C708    1.387   .     A
C707   H721    1.084   .     S
C708   H715    1.080   .     S
C709   H723    1.077   .     S
C710   H713    1.083   .     S
Cu711  O729    1.969   .     S
Cu711  Cu712   2.684   .     S
Cu711  O735    1.921   .     S
Cu711  O731    1.942   .     S
Cu711  N727    2.017   .     S
Cu711  O733    1.963   .     S
Cu712  N726    2.017   .     S
Cu712  O730    1.963   .     S
Cu712  O732    1.921   .     S
Cu712  O736    1.942   .     S
Cu712  O734    1.969   .     S
H714   C747    1.083   .     S
H716   N728    1.045   .     S
H717   N728    1.046   .     S
H718   C419    1.088   1_565 S
H719   N818    1.029   1_455 S
H720   N773    1.028   .     S
H722   C790    1.084   1_455 S
N726   H765    1.029   .     S
N726   N773    1.287   .     S
N727   N818    1.287   1_455 S
N727   H812    1.028   1_455 S
C737   O775    1.291   .     A
C737   O776    1.281   .     A
C737   C739    1.424   .     S
C738   C740    1.475   .     S
C738   C750    1.423   .     A
C738   C746    1.402   .     A
C739   C465    1.344   1_565 S
C739   N498    1.442   1_565 S
C740   O778    1.294   .     A
C740   O777    1.303   .     A
C741   C742    1.432   .     S
C742   O780    1.285   .     A
C742   O779    1.292   .     A
C743   O781    1.293   .     A
C743   O782    1.300   .     A
C743   C745    1.464   .     S
C744   C756    1.393   .     A
C744   H814    1.084   .     S
C745   C756    1.398   .     A
C745   C755    1.399   .     A
C746   H770    1.083   .     S
C746   C747    1.387   .     A
C747   C335    1.391   1_556 S
C748   C750    1.419   .     A
C748   C335    1.418   1_556 S
C748   C337    1.426   1_556 S
C749   H771    1.077   .     S
C750   C754    1.413   .     A
C751   C755    1.402   .     A
C752   C753    1.392   .     A
C752   C337    1.420   1_556 S
C752   C330    1.405   1_556 S
C753   C754    1.387   .     A
C753   H767    1.084   .     S
C754   H761    1.080   .     S
C755   H769    1.077   .     S
C756   H759    1.083   .     S
Cu757  O775    1.969   .     S
Cu757  Cu758   2.684   .     S
Cu757  O781    1.921   .     S
Cu757  O777    1.942   .     S
Cu757  N773    2.017   .     S
Cu757  O779    1.963   .     S
Cu758  N772    2.017   .     S
Cu758  O776    1.963   .     S
Cu758  O778    1.921   .     S
Cu758  O782    1.942   .     S
Cu758  O780    1.969   .     S
H760   C793    1.083   .     S
H762   N774    1.045   .     S
H763   N774    1.046   .     S
H764   C465    1.088   1_565 S
H766   N819    1.028   .     S
N772   H811    1.029   .     S
N772   N819    1.287   .     S
C783   O821    1.291   .     A
C783   O822    1.281   .     A
C783   C785    1.424   .     S
C784   C786    1.475   .     S
C784   C796    1.423   .     A
C784   C792    1.402   .     A
C785   C511    1.344   1_565 S
C785   N544    1.442   1_565 S
C786   O824    1.294   .     A
C786   O823    1.303   .     A
C787   C788    1.432   .     S
C788   O826    1.285   .     A
C788   O825    1.292   .     A
C789   O827    1.293   .     A
C789   O828    1.300   .     A
C789   C791    1.464   .     S
C790   C802    1.393   .     A
C790   H722    1.084   1_655 S
C791   C802    1.398   .     A
C791   C801    1.399   .     A
C792   H816    1.083   .     S
C792   C793    1.387   .     A
C793   C381    1.391   1_556 S
C794   C796    1.419   .     A
C794   C381    1.418   1_556 S
C794   C383    1.426   1_556 S
C795   H817    1.077   .     S
C796   C800    1.413   .     A
C797   C801    1.402   .     A
C798   C799    1.392   .     A
C798   C383    1.420   1_556 S
C798   C376    1.405   1_556 S
C799   C800    1.387   .     A
C799   H813    1.084   .     S
C800   H807    1.080   .     S
C801   H815    1.077   .     S
C802   H805    1.083   .     S
Cu803  O821    1.969   .     S
Cu803  Cu804   2.684   .     S
Cu803  O827    1.921   .     S
Cu803  O823    1.942   .     S
Cu803  N819    2.017   .     S
Cu803  O825    1.963   .     S
Cu804  N818    2.017   .     S
Cu804  O822    1.963   .     S
Cu804  O824    1.921   .     S
Cu804  O828    1.942   .     S
Cu804  O826    1.969   .     S
H806   C701    1.083   1_655 S
H808   N820    1.045   .     S
H809   N820    1.046   .     S
H810   C511    1.088   1_565 S
H812   N727    1.028   1_655 S
N818   H719    1.029   1_655 S
N818   N727    1.287   1_655 S
