data_str_m2_o1_o16_pcu_sym.106
_audit_creation_date              2020-01-03
_audit_creation_method            'Materials Studio'
_symmetry_space_group_name_H-M    'P1'
_symmetry_Int_Tables_number       1
_symmetry_cell_setting            triclinic
loop_
_symmetry_equiv_pos_as_xyz
  x,y,z
_cell_length_a                    28.5178
_cell_length_b                    32.4479
_cell_length_c                    26.9819
_cell_angle_alpha                 89.9241
_cell_angle_beta                  73.6414
_cell_angle_gamma                 89.7388
loop_
_atom_site_label
_atom_site_type_symbol
_atom_site_fract_x
_atom_site_fract_y
_atom_site_fract_z
_atom_site_U_iso_or_equiv
_atom_site_adp_type
_atom_site_occupancy
C1     C     0.16706   0.24597   0.24775   0.00000  Uiso   1.00
C2     C     0.13044   0.14879   0.40433   0.00000  Uiso   1.00
C3     C     0.19800   0.31158   0.26939   0.00000  Uiso   1.00
C4     C     0.14168   0.16153   0.34934   0.00000  Uiso   1.00
C5     C     0.19832   0.02085   0.27043   0.00000  Uiso   1.00
C6     C     0.16727   0.04296   0.24834   0.00000  Uiso   1.00
C7     C     0.13703   0.02263   0.22374   0.00000  Uiso   1.00
C8     C     0.13741   0.31319   0.22075   0.00000  Uiso   1.00
C9     C     0.16729   0.29071   0.24542   0.00000  Uiso   1.00
C10    C     0.29935   0.19062   0.28403   0.00000  Uiso   1.00
C11    C     0.01560   0.19045   0.28419   0.00000  Uiso   1.00
C12    C     0.15202   0.14523   0.48614   0.00000  Uiso   1.00
C13    C     0.03403   0.14283   0.21583   0.00000  Uiso   1.00
C14    C     0.31771   0.14280   0.21589   0.00000  Uiso   1.00
C15    C     0.16678   0.08742   0.24989   0.00000  Uiso   1.00
C16    C     0.19241   0.16731   0.15032   0.00000  Uiso   1.00
C17    C     0.26892   0.17606   0.01308   0.00000  Uiso   1.00
C18    C     0.20700   0.16770   0.09413   0.00000  Uiso   1.00
C19    C     0.08344   0.13443   0.42966   0.00000  Uiso   1.00
C20    C     0.07206   0.12196   0.48126   0.00000  Uiso   1.00
C21    C     0.10477   0.12985   0.01005   0.00000  Uiso   1.00
C22    C     0.16694   0.14846   0.43163   0.00000  Uiso   1.00
C23    C     0.18606   0.15525   0.01404   0.00000  Uiso   1.00
C24    C     0.23532   0.16410   0.48683   0.00000  Uiso   1.00
C25    C     0.25114   0.15901   0.43380   0.00000  Uiso   1.00
C26    C     0.21795   0.14950   0.40698   0.00000  Uiso   1.00
C27    C     0.17258   0.15775   0.06802   0.00000  Uiso   1.00
C28    C     0.25485   0.17773   0.06655   0.00000  Uiso   1.00
Cu29   Cu    0.11978   0.16666   0.25000   0.00000  Uiso   1.00
Cu30   Cu    0.21355   0.16667   0.25000   0.00000  Uiso   1.00
H31    H     0.28154   0.18639   0.08632   0.00000  Uiso   1.00
H32    H     0.13540   0.15243   0.09054   0.00000  Uiso   1.00
H33    H     0.05672   0.13057   0.40840   0.00000  Uiso   1.00
H34    H     0.09380   0.12074   0.05012   0.00000  Uiso   1.00
H35    H     0.23437   0.14040   0.36762   0.00000  Uiso   1.00
H36    H     0.22127   0.29490   0.28814   0.00000  Uiso   1.00
H37    H     0.11286   0.23956   0.12900   0.00000  Uiso   1.00
H38    H     0.05634   0.04403   0.03897   0.00000  Uiso   1.00
H39    H     0.22195   0.03648   0.28948   0.00000  Uiso   1.00
H40    H     0.11404   0.04035   0.20568   0.00000  Uiso   1.00
H41    H     0.27330   0.20985   0.31124   0.00000  Uiso   1.00
H42    H     0.02696   0.20955   0.31151   0.00000  Uiso   1.00
H43    H     0.06012   0.12369   0.18851   0.00000  Uiso   1.00
H44    H     0.30632   0.12365   0.18862   0.00000  Uiso   1.00
H45    H     0.28956   0.16163   0.41298   0.00000  Uiso   1.00
H46    H     0.30641   0.18317   0.49225   0.00000  Uiso   1.00
N47    N     0.04931   0.16666   0.24998   0.00000  Uiso   1.00
N48    N     0.28402   0.16669   0.24999   0.00000  Uiso   1.00
O49    O     0.12708   0.22678   0.25000   0.00000  Uiso   1.00
O50    O     0.08839   0.32159   0.14914   0.00000  Uiso   1.00
O51    O     0.13562   0.25277   0.14586   0.00000  Uiso   1.00
O52    O     0.32732   0.10820   0.06212   0.00000  Uiso   1.00
O53    O     0.31842   0.09345   0.47594   0.00000  Uiso   1.00
O54    O     0.03675   0.04325   0.01394   0.00000  Uiso   1.00
O55    O     0.20627   0.22679   0.25000   0.00000  Uiso   1.00
O56    O     0.10775   0.16665   0.32549   0.00000  Uiso   1.00
O57    O     0.18694   0.16666   0.32549   0.00000  Uiso   1.00
O58    O     0.12706   0.10654   0.24999   0.00000  Uiso   1.00
O59    O     0.20625   0.10655   0.24999   0.00000  Uiso   1.00
O60    O     0.14640   0.16667   0.17451   0.00000  Uiso   1.00
O61    O     0.22559   0.16668   0.17451   0.00000  Uiso   1.00
O62    O     0.05695   0.27183   0.21862   0.00000  Uiso   1.00
S63    S     0.10256   0.29003   0.18323   0.00000  Uiso   1.00
S64    S     0.01953   0.09236   0.00902   0.00000  Uiso   1.00
C65    C     0.50040   0.24597   0.24775   0.00000  Uiso   1.00
C66    C     0.46378   0.14879   0.40433   0.00000  Uiso   1.00
C67    C     0.53133   0.31158   0.26939   0.00000  Uiso   1.00
C68    C     0.47501   0.16153   0.34934   0.00000  Uiso   1.00
C69    C     0.53166   0.02085   0.27043   0.00000  Uiso   1.00
C70    C     0.50060   0.04296   0.24834   0.00000  Uiso   1.00
C71    C     0.47037   0.02263   0.22374   0.00000  Uiso   1.00
C72    C     0.47075   0.31319   0.22075   0.00000  Uiso   1.00
C73    C     0.50063   0.29071   0.24542   0.00000  Uiso   1.00
C74    C     0.63268   0.19062   0.28403   0.00000  Uiso   1.00
C75    C     0.34893   0.19045   0.28419   0.00000  Uiso   1.00
C76    C     0.48535   0.14523   0.48614   0.00000  Uiso   1.00
C77    C     0.36736   0.14283   0.21583   0.00000  Uiso   1.00
C78    C     0.65104   0.14280   0.21589   0.00000  Uiso   1.00
C79    C     0.50012   0.08742   0.24989   0.00000  Uiso   1.00
C80    C     0.52574   0.16731   0.15032   0.00000  Uiso   1.00
C81    C     0.60225   0.17606   0.01308   0.00000  Uiso   1.00
C82    C     0.54033   0.16770   0.09413   0.00000  Uiso   1.00
C83    C     0.41678   0.13443   0.42966   0.00000  Uiso   1.00
C84    C     0.40540   0.12196   0.48126   0.00000  Uiso   1.00
C85    C     0.43811   0.12985   0.01005   0.00000  Uiso   1.00
C86    C     0.50027   0.14846   0.43163   0.00000  Uiso   1.00
C87    C     0.51939   0.15525   0.01404   0.00000  Uiso   1.00
C88    C     0.56865   0.16410   0.48683   0.00000  Uiso   1.00
C89    C     0.58448   0.15901   0.43380   0.00000  Uiso   1.00
C90    C     0.55128   0.14950   0.40698   0.00000  Uiso   1.00
C91    C     0.50591   0.15775   0.06802   0.00000  Uiso   1.00
C92    C     0.58818   0.17773   0.06655   0.00000  Uiso   1.00
Cu93   Cu    0.45311   0.16666   0.25000   0.00000  Uiso   1.00
Cu94   Cu    0.54689   0.16667   0.25000   0.00000  Uiso   1.00
H95    H     0.61487   0.18639   0.08632   0.00000  Uiso   1.00
H96    H     0.46873   0.15243   0.09054   0.00000  Uiso   1.00
H97    H     0.39005   0.13057   0.40840   0.00000  Uiso   1.00
H98    H     0.42713   0.12074   0.05012   0.00000  Uiso   1.00
H99    H     0.56770   0.14040   0.36762   0.00000  Uiso   1.00
H100   H     0.55460   0.29490   0.28814   0.00000  Uiso   1.00
H101   H     0.44619   0.23956   0.12900   0.00000  Uiso   1.00
H102   H     0.38967   0.04403   0.03897   0.00000  Uiso   1.00
H103   H     0.55528   0.03648   0.28948   0.00000  Uiso   1.00
H104   H     0.44737   0.04035   0.20568   0.00000  Uiso   1.00
H105   H     0.60663   0.20985   0.31124   0.00000  Uiso   1.00
H106   H     0.36030   0.20955   0.31151   0.00000  Uiso   1.00
H107   H     0.39345   0.12369   0.18851   0.00000  Uiso   1.00
H108   H     0.63966   0.12365   0.18862   0.00000  Uiso   1.00
H109   H     0.62289   0.16163   0.41298   0.00000  Uiso   1.00
H110   H     0.63975   0.18317   0.49225   0.00000  Uiso   1.00
N111   N     0.38265   0.16666   0.24998   0.00000  Uiso   1.00
N112   N     0.61735   0.16669   0.24999   0.00000  Uiso   1.00
O113   O     0.46042   0.22678   0.25000   0.00000  Uiso   1.00
O114   O     0.42173   0.32159   0.14914   0.00000  Uiso   1.00
O115   O     0.46896   0.25277   0.14586   0.00000  Uiso   1.00
O116   O     0.66066   0.10820   0.06212   0.00000  Uiso   1.00
O117   O     0.65175   0.09345   0.47594   0.00000  Uiso   1.00
O118   O     0.37008   0.04325   0.01394   0.00000  Uiso   1.00
O119   O     0.53961   0.22679   0.25000   0.00000  Uiso   1.00
O120   O     0.44108   0.16665   0.32549   0.00000  Uiso   1.00
O121   O     0.52027   0.16666   0.32549   0.00000  Uiso   1.00
O122   O     0.46039   0.10654   0.24999   0.00000  Uiso   1.00
O123   O     0.53958   0.10655   0.24999   0.00000  Uiso   1.00
O124   O     0.47973   0.16667   0.17451   0.00000  Uiso   1.00
O125   O     0.55892   0.16668   0.17451   0.00000  Uiso   1.00
O126   O     0.39028   0.27183   0.21862   0.00000  Uiso   1.00
S127   S     0.43589   0.29003   0.18323   0.00000  Uiso   1.00
S128   S     0.35286   0.09236   0.00902   0.00000  Uiso   1.00
C129   C     0.83373   0.24597   0.24775   0.00000  Uiso   1.00
C130   C     0.79711   0.14879   0.40433   0.00000  Uiso   1.00
C131   C     0.86466   0.31158   0.26939   0.00000  Uiso   1.00
C132   C     0.80834   0.16153   0.34934   0.00000  Uiso   1.00
C133   C     0.86499   0.02085   0.27043   0.00000  Uiso   1.00
C134   C     0.83394   0.04296   0.24834   0.00000  Uiso   1.00
C135   C     0.80370   0.02263   0.22374   0.00000  Uiso   1.00
C136   C     0.80408   0.31319   0.22075   0.00000  Uiso   1.00
C137   C     0.83396   0.29071   0.24542   0.00000  Uiso   1.00
C138   C     0.96601   0.19062   0.28403   0.00000  Uiso   1.00
C139   C     0.68227   0.19045   0.28419   0.00000  Uiso   1.00
C140   C     0.81868   0.14523   0.48614   0.00000  Uiso   1.00
C141   C     0.70070   0.14283   0.21583   0.00000  Uiso   1.00
C142   C     0.98437   0.14280   0.21589   0.00000  Uiso   1.00
C143   C     0.83345   0.08742   0.24989   0.00000  Uiso   1.00
C144   C     0.85908   0.16731   0.15032   0.00000  Uiso   1.00
C145   C     0.93559   0.17606   0.01308   0.00000  Uiso   1.00
C146   C     0.87367   0.16770   0.09413   0.00000  Uiso   1.00
C147   C     0.75011   0.13443   0.42966   0.00000  Uiso   1.00
C148   C     0.73873   0.12196   0.48126   0.00000  Uiso   1.00
C149   C     0.77144   0.12985   0.01005   0.00000  Uiso   1.00
C150   C     0.83360   0.14846   0.43163   0.00000  Uiso   1.00
C151   C     0.85273   0.15525   0.01404   0.00000  Uiso   1.00
C152   C     0.90198   0.16410   0.48683   0.00000  Uiso   1.00
C153   C     0.91781   0.15901   0.43380   0.00000  Uiso   1.00
C154   C     0.88461   0.14950   0.40698   0.00000  Uiso   1.00
C155   C     0.83924   0.15775   0.06802   0.00000  Uiso   1.00
C156   C     0.92152   0.17773   0.06655   0.00000  Uiso   1.00
Cu157  Cu    0.78645   0.16666   0.25000   0.00000  Uiso   1.00
Cu158  Cu    0.88022   0.16667   0.25000   0.00000  Uiso   1.00
H159   H     0.94821   0.18639   0.08632   0.00000  Uiso   1.00
H160   H     0.80206   0.15243   0.09054   0.00000  Uiso   1.00
H161   H     0.72339   0.13057   0.40840   0.00000  Uiso   1.00
H162   H     0.76047   0.12074   0.05012   0.00000  Uiso   1.00
H163   H     0.90103   0.14040   0.36762   0.00000  Uiso   1.00
H164   H     0.88793   0.29490   0.28814   0.00000  Uiso   1.00
H165   H     0.77953   0.23956   0.12900   0.00000  Uiso   1.00
H166   H     0.72301   0.04403   0.03897   0.00000  Uiso   1.00
H167   H     0.88862   0.03648   0.28948   0.00000  Uiso   1.00
H168   H     0.78071   0.04035   0.20568   0.00000  Uiso   1.00
H169   H     0.93997   0.20985   0.31124   0.00000  Uiso   1.00
H170   H     0.69363   0.20955   0.31151   0.00000  Uiso   1.00
H171   H     0.72679   0.12369   0.18851   0.00000  Uiso   1.00
H172   H     0.97299   0.12365   0.18862   0.00000  Uiso   1.00
H173   H     0.95623   0.16163   0.41298   0.00000  Uiso   1.00
H174   H     0.97308   0.18317   0.49225   0.00000  Uiso   1.00
N175   N     0.71598   0.16666   0.24998   0.00000  Uiso   1.00
N176   N     0.95069   0.16669   0.24999   0.00000  Uiso   1.00
O177   O     0.79375   0.22678   0.25000   0.00000  Uiso   1.00
O178   O     0.75506   0.32159   0.14914   0.00000  Uiso   1.00
O179   O     0.80229   0.25277   0.14586   0.00000  Uiso   1.00
O180   O     0.99399   0.10820   0.06212   0.00000  Uiso   1.00
O181   O     0.98508   0.09345   0.47594   0.00000  Uiso   1.00
O182   O     0.70342   0.04325   0.01394   0.00000  Uiso   1.00
O183   O     0.87294   0.22679   0.25000   0.00000  Uiso   1.00
O184   O     0.77441   0.16665   0.32549   0.00000  Uiso   1.00
O185   O     0.85360   0.16666   0.32549   0.00000  Uiso   1.00
O186   O     0.79373   0.10654   0.24999   0.00000  Uiso   1.00
O187   O     0.87292   0.10655   0.24999   0.00000  Uiso   1.00
O188   O     0.81306   0.16667   0.17451   0.00000  Uiso   1.00
O189   O     0.89225   0.16668   0.17451   0.00000  Uiso   1.00
O190   O     0.72361   0.27183   0.21862   0.00000  Uiso   1.00
S191   S     0.76922   0.29003   0.18323   0.00000  Uiso   1.00
S192   S     0.68619   0.09236   0.00902   0.00000  Uiso   1.00
C193   C     0.16706   0.57930   0.24775   0.00000  Uiso   1.00
C194   C     0.13044   0.48212   0.40433   0.00000  Uiso   1.00
C195   C     0.19800   0.64492   0.26939   0.00000  Uiso   1.00
C196   C     0.14168   0.49486   0.34934   0.00000  Uiso   1.00
C197   C     0.19832   0.35418   0.27043   0.00000  Uiso   1.00
C198   C     0.16727   0.37630   0.24834   0.00000  Uiso   1.00
C199   C     0.13703   0.35596   0.22374   0.00000  Uiso   1.00
C200   C     0.13741   0.64653   0.22075   0.00000  Uiso   1.00
C201   C     0.16729   0.62405   0.24542   0.00000  Uiso   1.00
C202   C     0.29935   0.52395   0.28403   0.00000  Uiso   1.00
C203   C     0.01560   0.52378   0.28419   0.00000  Uiso   1.00
C204   C     0.15202   0.47857   0.48614   0.00000  Uiso   1.00
C205   C     0.03403   0.47616   0.21583   0.00000  Uiso   1.00
C206   C     0.31771   0.47613   0.21589   0.00000  Uiso   1.00
C207   C     0.16678   0.42076   0.24989   0.00000  Uiso   1.00
C208   C     0.19241   0.50064   0.15032   0.00000  Uiso   1.00
C209   C     0.26892   0.50939   0.01308   0.00000  Uiso   1.00
C210   C     0.20700   0.50103   0.09413   0.00000  Uiso   1.00
C211   C     0.08344   0.46776   0.42966   0.00000  Uiso   1.00
C212   C     0.07206   0.45529   0.48126   0.00000  Uiso   1.00
C213   C     0.10477   0.46318   0.01005   0.00000  Uiso   1.00
C214   C     0.16694   0.48179   0.43163   0.00000  Uiso   1.00
C215   C     0.18606   0.48858   0.01404   0.00000  Uiso   1.00
C216   C     0.23532   0.49743   0.48683   0.00000  Uiso   1.00
C217   C     0.25114   0.49235   0.43380   0.00000  Uiso   1.00
C218   C     0.21795   0.48284   0.40698   0.00000  Uiso   1.00
C219   C     0.17258   0.49108   0.06802   0.00000  Uiso   1.00
C220   C     0.25485   0.51106   0.06655   0.00000  Uiso   1.00
Cu221  Cu    0.11978   0.49999   0.25000   0.00000  Uiso   1.00
Cu222  Cu    0.21355   0.50001   0.25000   0.00000  Uiso   1.00
H223   H     0.28154   0.51972   0.08632   0.00000  Uiso   1.00
H224   H     0.13540   0.48576   0.09054   0.00000  Uiso   1.00
H225   H     0.05672   0.46391   0.40840   0.00000  Uiso   1.00
H226   H     0.09380   0.45407   0.05012   0.00000  Uiso   1.00
H227   H     0.23437   0.47373   0.36762   0.00000  Uiso   1.00
H228   H     0.22127   0.62823   0.28814   0.00000  Uiso   1.00
H229   H     0.11286   0.57290   0.12900   0.00000  Uiso   1.00
H230   H     0.05634   0.37736   0.03897   0.00000  Uiso   1.00
H231   H     0.22195   0.36981   0.28948   0.00000  Uiso   1.00
H232   H     0.11404   0.37368   0.20568   0.00000  Uiso   1.00
H233   H     0.27330   0.54318   0.31124   0.00000  Uiso   1.00
H234   H     0.02696   0.54288   0.31151   0.00000  Uiso   1.00
H235   H     0.06012   0.45702   0.18851   0.00000  Uiso   1.00
H236   H     0.30632   0.45698   0.18862   0.00000  Uiso   1.00
H237   H     0.28956   0.49497   0.41298   0.00000  Uiso   1.00
H238   H     0.30641   0.51650   0.49225   0.00000  Uiso   1.00
N239   N     0.04931   0.49999   0.24998   0.00000  Uiso   1.00
N240   N     0.28402   0.50002   0.24999   0.00000  Uiso   1.00
O241   O     0.12708   0.56011   0.25000   0.00000  Uiso   1.00
O242   O     0.08839   0.65492   0.14914   0.00000  Uiso   1.00
O243   O     0.13562   0.58610   0.14586   0.00000  Uiso   1.00
O244   O     0.32732   0.44154   0.06212   0.00000  Uiso   1.00
O245   O     0.31842   0.42678   0.47594   0.00000  Uiso   1.00
O246   O     0.03675   0.37659   0.01394   0.00000  Uiso   1.00
O247   O     0.20627   0.56012   0.25000   0.00000  Uiso   1.00
O248   O     0.10775   0.49998   0.32549   0.00000  Uiso   1.00
O249   O     0.18694   0.49999   0.32549   0.00000  Uiso   1.00
O250   O     0.12706   0.43988   0.24999   0.00000  Uiso   1.00
O251   O     0.20625   0.43989   0.24999   0.00000  Uiso   1.00
O252   O     0.14640   0.50001   0.17451   0.00000  Uiso   1.00
O253   O     0.22559   0.50002   0.17451   0.00000  Uiso   1.00
O254   O     0.05695   0.60516   0.21862   0.00000  Uiso   1.00
S255   S     0.10256   0.62336   0.18323   0.00000  Uiso   1.00
S256   S     0.01953   0.42570   0.00902   0.00000  Uiso   1.00
C257   C     0.50040   0.57930   0.24775   0.00000  Uiso   1.00
C258   C     0.46378   0.48212   0.40433   0.00000  Uiso   1.00
C259   C     0.53133   0.64492   0.26939   0.00000  Uiso   1.00
C260   C     0.47501   0.49486   0.34934   0.00000  Uiso   1.00
C261   C     0.53166   0.35418   0.27043   0.00000  Uiso   1.00
C262   C     0.50060   0.37630   0.24834   0.00000  Uiso   1.00
C263   C     0.47037   0.35596   0.22374   0.00000  Uiso   1.00
C264   C     0.47075   0.64653   0.22075   0.00000  Uiso   1.00
C265   C     0.50063   0.62405   0.24542   0.00000  Uiso   1.00
C266   C     0.63268   0.52395   0.28403   0.00000  Uiso   1.00
C267   C     0.34893   0.52378   0.28419   0.00000  Uiso   1.00
C268   C     0.48535   0.47857   0.48614   0.00000  Uiso   1.00
C269   C     0.36736   0.47616   0.21583   0.00000  Uiso   1.00
C270   C     0.65104   0.47613   0.21589   0.00000  Uiso   1.00
C271   C     0.50012   0.42076   0.24989   0.00000  Uiso   1.00
C272   C     0.52574   0.50064   0.15032   0.00000  Uiso   1.00
C273   C     0.60225   0.50939   0.01308   0.00000  Uiso   1.00
C274   C     0.54033   0.50103   0.09413   0.00000  Uiso   1.00
C275   C     0.41678   0.46776   0.42966   0.00000  Uiso   1.00
C276   C     0.40540   0.45529   0.48126   0.00000  Uiso   1.00
C277   C     0.43811   0.46318   0.01005   0.00000  Uiso   1.00
C278   C     0.50027   0.48179   0.43163   0.00000  Uiso   1.00
C279   C     0.51939   0.48858   0.01404   0.00000  Uiso   1.00
C280   C     0.56865   0.49743   0.48683   0.00000  Uiso   1.00
C281   C     0.58448   0.49235   0.43380   0.00000  Uiso   1.00
C282   C     0.55128   0.48284   0.40698   0.00000  Uiso   1.00
C283   C     0.50591   0.49108   0.06802   0.00000  Uiso   1.00
C284   C     0.58818   0.51106   0.06655   0.00000  Uiso   1.00
Cu285  Cu    0.45311   0.49999   0.25000   0.00000  Uiso   1.00
Cu286  Cu    0.54689   0.50001   0.25000   0.00000  Uiso   1.00
H287   H     0.61487   0.51972   0.08632   0.00000  Uiso   1.00
H288   H     0.46873   0.48576   0.09054   0.00000  Uiso   1.00
H289   H     0.39005   0.46391   0.40840   0.00000  Uiso   1.00
H290   H     0.42713   0.45407   0.05012   0.00000  Uiso   1.00
H291   H     0.56770   0.47373   0.36762   0.00000  Uiso   1.00
H292   H     0.55460   0.62823   0.28814   0.00000  Uiso   1.00
H293   H     0.44619   0.57290   0.12900   0.00000  Uiso   1.00
H294   H     0.38967   0.37736   0.03897   0.00000  Uiso   1.00
H295   H     0.55528   0.36981   0.28948   0.00000  Uiso   1.00
H296   H     0.44737   0.37368   0.20568   0.00000  Uiso   1.00
H297   H     0.60663   0.54318   0.31124   0.00000  Uiso   1.00
H298   H     0.36030   0.54288   0.31151   0.00000  Uiso   1.00
H299   H     0.39345   0.45702   0.18851   0.00000  Uiso   1.00
H300   H     0.63966   0.45698   0.18862   0.00000  Uiso   1.00
H301   H     0.62289   0.49497   0.41298   0.00000  Uiso   1.00
H302   H     0.63975   0.51650   0.49225   0.00000  Uiso   1.00
N303   N     0.38265   0.49999   0.24998   0.00000  Uiso   1.00
N304   N     0.61735   0.50002   0.24999   0.00000  Uiso   1.00
O305   O     0.46042   0.56011   0.25000   0.00000  Uiso   1.00
O306   O     0.42173   0.65492   0.14914   0.00000  Uiso   1.00
O307   O     0.46896   0.58610   0.14586   0.00000  Uiso   1.00
O308   O     0.66066   0.44154   0.06212   0.00000  Uiso   1.00
O309   O     0.65175   0.42678   0.47594   0.00000  Uiso   1.00
O310   O     0.37008   0.37659   0.01394   0.00000  Uiso   1.00
O311   O     0.53961   0.56012   0.25000   0.00000  Uiso   1.00
O312   O     0.44108   0.49998   0.32549   0.00000  Uiso   1.00
O313   O     0.52027   0.49999   0.32549   0.00000  Uiso   1.00
O314   O     0.46039   0.43988   0.24999   0.00000  Uiso   1.00
O315   O     0.53958   0.43989   0.24999   0.00000  Uiso   1.00
O316   O     0.47973   0.50001   0.17451   0.00000  Uiso   1.00
O317   O     0.55892   0.50002   0.17451   0.00000  Uiso   1.00
O318   O     0.39028   0.60516   0.21862   0.00000  Uiso   1.00
S319   S     0.43589   0.62336   0.18323   0.00000  Uiso   1.00
S320   S     0.35286   0.42570   0.00902   0.00000  Uiso   1.00
C321   C     0.83373   0.57930   0.24775   0.00000  Uiso   1.00
C322   C     0.79711   0.48212   0.40433   0.00000  Uiso   1.00
C323   C     0.86466   0.64492   0.26939   0.00000  Uiso   1.00
C324   C     0.80834   0.49486   0.34934   0.00000  Uiso   1.00
C325   C     0.86499   0.35418   0.27043   0.00000  Uiso   1.00
C326   C     0.83394   0.37630   0.24834   0.00000  Uiso   1.00
C327   C     0.80370   0.35596   0.22374   0.00000  Uiso   1.00
C328   C     0.80408   0.64653   0.22075   0.00000  Uiso   1.00
C329   C     0.83396   0.62405   0.24542   0.00000  Uiso   1.00
C330   C     0.96601   0.52395   0.28403   0.00000  Uiso   1.00
C331   C     0.68227   0.52378   0.28419   0.00000  Uiso   1.00
C332   C     0.81868   0.47857   0.48614   0.00000  Uiso   1.00
C333   C     0.70070   0.47616   0.21583   0.00000  Uiso   1.00
C334   C     0.98437   0.47613   0.21589   0.00000  Uiso   1.00
C335   C     0.83345   0.42076   0.24989   0.00000  Uiso   1.00
C336   C     0.85908   0.50064   0.15032   0.00000  Uiso   1.00
C337   C     0.93559   0.50939   0.01308   0.00000  Uiso   1.00
C338   C     0.87367   0.50103   0.09413   0.00000  Uiso   1.00
C339   C     0.75011   0.46776   0.42966   0.00000  Uiso   1.00
C340   C     0.73873   0.45529   0.48126   0.00000  Uiso   1.00
C341   C     0.77144   0.46318   0.01005   0.00000  Uiso   1.00
C342   C     0.83360   0.48179   0.43163   0.00000  Uiso   1.00
C343   C     0.85273   0.48858   0.01404   0.00000  Uiso   1.00
C344   C     0.90198   0.49743   0.48683   0.00000  Uiso   1.00
C345   C     0.91781   0.49235   0.43380   0.00000  Uiso   1.00
C346   C     0.88461   0.48284   0.40698   0.00000  Uiso   1.00
C347   C     0.83924   0.49108   0.06802   0.00000  Uiso   1.00
C348   C     0.92152   0.51106   0.06655   0.00000  Uiso   1.00
Cu349  Cu    0.78645   0.49999   0.25000   0.00000  Uiso   1.00
Cu350  Cu    0.88022   0.50001   0.25000   0.00000  Uiso   1.00
H351   H     0.94821   0.51972   0.08632   0.00000  Uiso   1.00
H352   H     0.80206   0.48576   0.09054   0.00000  Uiso   1.00
H353   H     0.72339   0.46391   0.40840   0.00000  Uiso   1.00
H354   H     0.76047   0.45407   0.05012   0.00000  Uiso   1.00
H355   H     0.90103   0.47373   0.36762   0.00000  Uiso   1.00
H356   H     0.88793   0.62823   0.28814   0.00000  Uiso   1.00
H357   H     0.77953   0.57290   0.12900   0.00000  Uiso   1.00
H358   H     0.72301   0.37736   0.03897   0.00000  Uiso   1.00
H359   H     0.88862   0.36981   0.28948   0.00000  Uiso   1.00
H360   H     0.78071   0.37368   0.20568   0.00000  Uiso   1.00
H361   H     0.93997   0.54318   0.31124   0.00000  Uiso   1.00
H362   H     0.69363   0.54288   0.31151   0.00000  Uiso   1.00
H363   H     0.72679   0.45702   0.18851   0.00000  Uiso   1.00
H364   H     0.97299   0.45698   0.18862   0.00000  Uiso   1.00
H365   H     0.95623   0.49497   0.41298   0.00000  Uiso   1.00
H366   H     0.97308   0.51650   0.49225   0.00000  Uiso   1.00
N367   N     0.71598   0.49999   0.24998   0.00000  Uiso   1.00
N368   N     0.95069   0.50002   0.24999   0.00000  Uiso   1.00
O369   O     0.79375   0.56011   0.25000   0.00000  Uiso   1.00
O370   O     0.75506   0.65492   0.14914   0.00000  Uiso   1.00
O371   O     0.80229   0.58610   0.14586   0.00000  Uiso   1.00
O372   O     0.99399   0.44154   0.06212   0.00000  Uiso   1.00
O373   O     0.98508   0.42678   0.47594   0.00000  Uiso   1.00
O374   O     0.70342   0.37659   0.01394   0.00000  Uiso   1.00
O375   O     0.87294   0.56012   0.25000   0.00000  Uiso   1.00
O376   O     0.77441   0.49998   0.32549   0.00000  Uiso   1.00
O377   O     0.85360   0.49999   0.32549   0.00000  Uiso   1.00
O378   O     0.79373   0.43988   0.24999   0.00000  Uiso   1.00
O379   O     0.87292   0.43989   0.24999   0.00000  Uiso   1.00
O380   O     0.81306   0.50001   0.17451   0.00000  Uiso   1.00
O381   O     0.89225   0.50002   0.17451   0.00000  Uiso   1.00
O382   O     0.72361   0.60516   0.21862   0.00000  Uiso   1.00
S383   S     0.76922   0.62336   0.18323   0.00000  Uiso   1.00
S384   S     0.68619   0.42570   0.00902   0.00000  Uiso   1.00
C385   C     0.16706   0.91264   0.24775   0.00000  Uiso   1.00
C386   C     0.13044   0.81545   0.40433   0.00000  Uiso   1.00
C387   C     0.19800   0.97825   0.26939   0.00000  Uiso   1.00
C388   C     0.14168   0.82819   0.34934   0.00000  Uiso   1.00
C389   C     0.19832   0.68751   0.27043   0.00000  Uiso   1.00
C390   C     0.16727   0.70963   0.24834   0.00000  Uiso   1.00
C391   C     0.13703   0.68929   0.22374   0.00000  Uiso   1.00
C392   C     0.13741   0.97986   0.22075   0.00000  Uiso   1.00
C393   C     0.16729   0.95738   0.24542   0.00000  Uiso   1.00
C394   C     0.29935   0.85728   0.28403   0.00000  Uiso   1.00
C395   C     0.01560   0.85712   0.28419   0.00000  Uiso   1.00
C396   C     0.15202   0.81190   0.48614   0.00000  Uiso   1.00
C397   C     0.03403   0.80949   0.21583   0.00000  Uiso   1.00
C398   C     0.31771   0.80946   0.21589   0.00000  Uiso   1.00
C399   C     0.16678   0.75409   0.24989   0.00000  Uiso   1.00
C400   C     0.19241   0.83398   0.15032   0.00000  Uiso   1.00
C401   C     0.26892   0.84273   0.01308   0.00000  Uiso   1.00
C402   C     0.20700   0.83437   0.09413   0.00000  Uiso   1.00
C403   C     0.08344   0.80109   0.42966   0.00000  Uiso   1.00
C404   C     0.07206   0.78863   0.48126   0.00000  Uiso   1.00
C405   C     0.10477   0.79652   0.01005   0.00000  Uiso   1.00
C406   C     0.16694   0.81512   0.43163   0.00000  Uiso   1.00
C407   C     0.18606   0.82192   0.01404   0.00000  Uiso   1.00
C408   C     0.23532   0.83076   0.48683   0.00000  Uiso   1.00
C409   C     0.25114   0.82568   0.43380   0.00000  Uiso   1.00
C410   C     0.21795   0.81617   0.40698   0.00000  Uiso   1.00
C411   C     0.17258   0.82442   0.06802   0.00000  Uiso   1.00
C412   C     0.25485   0.84440   0.06655   0.00000  Uiso   1.00
Cu413  Cu    0.11978   0.83333   0.25000   0.00000  Uiso   1.00
Cu414  Cu    0.21355   0.83334   0.25000   0.00000  Uiso   1.00
H415   H     0.28154   0.85305   0.08632   0.00000  Uiso   1.00
H416   H     0.13540   0.81909   0.09054   0.00000  Uiso   1.00
H417   H     0.05672   0.79724   0.40840   0.00000  Uiso   1.00
H418   H     0.09380   0.78740   0.05012   0.00000  Uiso   1.00
H419   H     0.23437   0.80707   0.36762   0.00000  Uiso   1.00
H420   H     0.22127   0.96157   0.28814   0.00000  Uiso   1.00
H421   H     0.11286   0.90623   0.12900   0.00000  Uiso   1.00
H422   H     0.05634   0.71069   0.03897   0.00000  Uiso   1.00
H423   H     0.22195   0.70315   0.28948   0.00000  Uiso   1.00
H424   H     0.11404   0.70701   0.20568   0.00000  Uiso   1.00
H425   H     0.27330   0.87652   0.31124   0.00000  Uiso   1.00
H426   H     0.02696   0.87621   0.31151   0.00000  Uiso   1.00
H427   H     0.06012   0.79036   0.18851   0.00000  Uiso   1.00
H428   H     0.30632   0.79031   0.18862   0.00000  Uiso   1.00
H429   H     0.28956   0.82830   0.41298   0.00000  Uiso   1.00
H430   H     0.30641   0.84983   0.49225   0.00000  Uiso   1.00
N431   N     0.04931   0.83332   0.24998   0.00000  Uiso   1.00
N432   N     0.28402   0.83335   0.24999   0.00000  Uiso   1.00
O433   O     0.12708   0.89345   0.25000   0.00000  Uiso   1.00
O434   O     0.08839   0.98826   0.14914   0.00000  Uiso   1.00
O435   O     0.13562   0.91944   0.14586   0.00000  Uiso   1.00
O436   O     0.32732   0.77487   0.06212   0.00000  Uiso   1.00
O437   O     0.31842   0.76012   0.47594   0.00000  Uiso   1.00
O438   O     0.03675   0.70992   0.01394   0.00000  Uiso   1.00
O439   O     0.20627   0.89346   0.25000   0.00000  Uiso   1.00
O440   O     0.10775   0.83332   0.32549   0.00000  Uiso   1.00
O441   O     0.18694   0.83333   0.32549   0.00000  Uiso   1.00
O442   O     0.12706   0.77321   0.24999   0.00000  Uiso   1.00
O443   O     0.20625   0.77322   0.24999   0.00000  Uiso   1.00
O444   O     0.14640   0.83334   0.17451   0.00000  Uiso   1.00
O445   O     0.22559   0.83335   0.17451   0.00000  Uiso   1.00
O446   O     0.05695   0.93849   0.21862   0.00000  Uiso   1.00
S447   S     0.10256   0.95669   0.18323   0.00000  Uiso   1.00
S448   S     0.01953   0.75903   0.00902   0.00000  Uiso   1.00
C449   C     0.50040   0.91264   0.24775   0.00000  Uiso   1.00
C450   C     0.46378   0.81545   0.40433   0.00000  Uiso   1.00
C451   C     0.53133   0.97825   0.26939   0.00000  Uiso   1.00
C452   C     0.47501   0.82819   0.34934   0.00000  Uiso   1.00
C453   C     0.53166   0.68751   0.27043   0.00000  Uiso   1.00
C454   C     0.50060   0.70963   0.24834   0.00000  Uiso   1.00
C455   C     0.47037   0.68929   0.22374   0.00000  Uiso   1.00
C456   C     0.47075   0.97986   0.22075   0.00000  Uiso   1.00
C457   C     0.50063   0.95738   0.24542   0.00000  Uiso   1.00
C458   C     0.63268   0.85728   0.28403   0.00000  Uiso   1.00
C459   C     0.34893   0.85712   0.28419   0.00000  Uiso   1.00
C460   C     0.48535   0.81190   0.48614   0.00000  Uiso   1.00
C461   C     0.36736   0.80949   0.21583   0.00000  Uiso   1.00
C462   C     0.65104   0.80946   0.21589   0.00000  Uiso   1.00
C463   C     0.50012   0.75409   0.24989   0.00000  Uiso   1.00
C464   C     0.52574   0.83398   0.15032   0.00000  Uiso   1.00
C465   C     0.60225   0.84273   0.01308   0.00000  Uiso   1.00
C466   C     0.54033   0.83437   0.09413   0.00000  Uiso   1.00
C467   C     0.41678   0.80109   0.42966   0.00000  Uiso   1.00
C468   C     0.40540   0.78863   0.48126   0.00000  Uiso   1.00
C469   C     0.43811   0.79652   0.01005   0.00000  Uiso   1.00
C470   C     0.50027   0.81512   0.43163   0.00000  Uiso   1.00
C471   C     0.51939   0.82192   0.01404   0.00000  Uiso   1.00
C472   C     0.56865   0.83076   0.48683   0.00000  Uiso   1.00
C473   C     0.58448   0.82568   0.43380   0.00000  Uiso   1.00
C474   C     0.55128   0.81617   0.40698   0.00000  Uiso   1.00
C475   C     0.50591   0.82442   0.06802   0.00000  Uiso   1.00
C476   C     0.58818   0.84440   0.06655   0.00000  Uiso   1.00
Cu477  Cu    0.45311   0.83333   0.25000   0.00000  Uiso   1.00
Cu478  Cu    0.54689   0.83334   0.25000   0.00000  Uiso   1.00
H479   H     0.61487   0.85305   0.08632   0.00000  Uiso   1.00
H480   H     0.46873   0.81909   0.09054   0.00000  Uiso   1.00
H481   H     0.39005   0.79724   0.40840   0.00000  Uiso   1.00
H482   H     0.42713   0.78740   0.05012   0.00000  Uiso   1.00
H483   H     0.56770   0.80707   0.36762   0.00000  Uiso   1.00
H484   H     0.55460   0.96157   0.28814   0.00000  Uiso   1.00
H485   H     0.44619   0.90623   0.12900   0.00000  Uiso   1.00
H486   H     0.38967   0.71069   0.03897   0.00000  Uiso   1.00
H487   H     0.55528   0.70315   0.28948   0.00000  Uiso   1.00
H488   H     0.44737   0.70701   0.20568   0.00000  Uiso   1.00
H489   H     0.60663   0.87652   0.31124   0.00000  Uiso   1.00
H490   H     0.36030   0.87621   0.31151   0.00000  Uiso   1.00
H491   H     0.39345   0.79036   0.18851   0.00000  Uiso   1.00
H492   H     0.63966   0.79031   0.18862   0.00000  Uiso   1.00
H493   H     0.62289   0.82830   0.41298   0.00000  Uiso   1.00
H494   H     0.63975   0.84983   0.49225   0.00000  Uiso   1.00
N495   N     0.38265   0.83332   0.24998   0.00000  Uiso   1.00
N496   N     0.61735   0.83335   0.24999   0.00000  Uiso   1.00
O497   O     0.46042   0.89345   0.25000   0.00000  Uiso   1.00
O498   O     0.42173   0.98826   0.14914   0.00000  Uiso   1.00
O499   O     0.46896   0.91944   0.14586   0.00000  Uiso   1.00
O500   O     0.66066   0.77487   0.06212   0.00000  Uiso   1.00
O501   O     0.65175   0.76012   0.47594   0.00000  Uiso   1.00
O502   O     0.37008   0.70992   0.01394   0.00000  Uiso   1.00
O503   O     0.53961   0.89346   0.25000   0.00000  Uiso   1.00
O504   O     0.44108   0.83332   0.32549   0.00000  Uiso   1.00
O505   O     0.52027   0.83333   0.32549   0.00000  Uiso   1.00
O506   O     0.46039   0.77321   0.24999   0.00000  Uiso   1.00
O507   O     0.53958   0.77322   0.24999   0.00000  Uiso   1.00
O508   O     0.47973   0.83334   0.17451   0.00000  Uiso   1.00
O509   O     0.55892   0.83335   0.17451   0.00000  Uiso   1.00
O510   O     0.39028   0.93849   0.21862   0.00000  Uiso   1.00
S511   S     0.43589   0.95669   0.18323   0.00000  Uiso   1.00
S512   S     0.35286   0.75903   0.00902   0.00000  Uiso   1.00
C513   C     0.83373   0.91264   0.24775   0.00000  Uiso   1.00
C514   C     0.79711   0.81545   0.40433   0.00000  Uiso   1.00
C515   C     0.86466   0.97825   0.26939   0.00000  Uiso   1.00
C516   C     0.80834   0.82819   0.34934   0.00000  Uiso   1.00
C517   C     0.86499   0.68751   0.27043   0.00000  Uiso   1.00
C518   C     0.83394   0.70963   0.24834   0.00000  Uiso   1.00
C519   C     0.80370   0.68929   0.22374   0.00000  Uiso   1.00
C520   C     0.80408   0.97986   0.22075   0.00000  Uiso   1.00
C521   C     0.83396   0.95738   0.24542   0.00000  Uiso   1.00
C522   C     0.96601   0.85728   0.28403   0.00000  Uiso   1.00
C523   C     0.68227   0.85712   0.28419   0.00000  Uiso   1.00
C524   C     0.81868   0.81190   0.48614   0.00000  Uiso   1.00
C525   C     0.70070   0.80949   0.21583   0.00000  Uiso   1.00
C526   C     0.98437   0.80946   0.21589   0.00000  Uiso   1.00
C527   C     0.83345   0.75409   0.24989   0.00000  Uiso   1.00
C528   C     0.85908   0.83398   0.15032   0.00000  Uiso   1.00
C529   C     0.93559   0.84273   0.01308   0.00000  Uiso   1.00
C530   C     0.87367   0.83437   0.09413   0.00000  Uiso   1.00
C531   C     0.75011   0.80109   0.42966   0.00000  Uiso   1.00
C532   C     0.73873   0.78863   0.48126   0.00000  Uiso   1.00
C533   C     0.77144   0.79652   0.01005   0.00000  Uiso   1.00
C534   C     0.83360   0.81512   0.43163   0.00000  Uiso   1.00
C535   C     0.85273   0.82192   0.01404   0.00000  Uiso   1.00
C536   C     0.90198   0.83076   0.48683   0.00000  Uiso   1.00
C537   C     0.91781   0.82568   0.43380   0.00000  Uiso   1.00
C538   C     0.88461   0.81617   0.40698   0.00000  Uiso   1.00
C539   C     0.83924   0.82442   0.06802   0.00000  Uiso   1.00
C540   C     0.92152   0.84440   0.06655   0.00000  Uiso   1.00
Cu541  Cu    0.78645   0.83333   0.25000   0.00000  Uiso   1.00
Cu542  Cu    0.88022   0.83334   0.25000   0.00000  Uiso   1.00
H543   H     0.94821   0.85305   0.08632   0.00000  Uiso   1.00
H544   H     0.80206   0.81909   0.09054   0.00000  Uiso   1.00
H545   H     0.72339   0.79724   0.40840   0.00000  Uiso   1.00
H546   H     0.76047   0.78740   0.05012   0.00000  Uiso   1.00
H547   H     0.90103   0.80707   0.36762   0.00000  Uiso   1.00
H548   H     0.88793   0.96157   0.28814   0.00000  Uiso   1.00
H549   H     0.77953   0.90623   0.12900   0.00000  Uiso   1.00
H550   H     0.72301   0.71069   0.03897   0.00000  Uiso   1.00
H551   H     0.88862   0.70315   0.28948   0.00000  Uiso   1.00
H552   H     0.78071   0.70701   0.20568   0.00000  Uiso   1.00
H553   H     0.93997   0.87652   0.31124   0.00000  Uiso   1.00
H554   H     0.69363   0.87621   0.31151   0.00000  Uiso   1.00
H555   H     0.72679   0.79036   0.18851   0.00000  Uiso   1.00
H556   H     0.97299   0.79031   0.18862   0.00000  Uiso   1.00
H557   H     0.95623   0.82830   0.41298   0.00000  Uiso   1.00
H558   H     0.97308   0.84983   0.49225   0.00000  Uiso   1.00
N559   N     0.71598   0.83332   0.24998   0.00000  Uiso   1.00
N560   N     0.95069   0.83335   0.24999   0.00000  Uiso   1.00
O561   O     0.79375   0.89345   0.25000   0.00000  Uiso   1.00
O562   O     0.75506   0.98826   0.14914   0.00000  Uiso   1.00
O563   O     0.80229   0.91944   0.14586   0.00000  Uiso   1.00
O564   O     0.99399   0.77487   0.06212   0.00000  Uiso   1.00
O565   O     0.98508   0.76012   0.47594   0.00000  Uiso   1.00
O566   O     0.70342   0.70992   0.01394   0.00000  Uiso   1.00
O567   O     0.87294   0.89346   0.25000   0.00000  Uiso   1.00
O568   O     0.77441   0.83332   0.32549   0.00000  Uiso   1.00
O569   O     0.85360   0.83333   0.32549   0.00000  Uiso   1.00
O570   O     0.79373   0.77321   0.24999   0.00000  Uiso   1.00
O571   O     0.87292   0.77322   0.24999   0.00000  Uiso   1.00
O572   O     0.81306   0.83334   0.17451   0.00000  Uiso   1.00
O573   O     0.89225   0.83335   0.17451   0.00000  Uiso   1.00
O574   O     0.72361   0.93849   0.21862   0.00000  Uiso   1.00
S575   S     0.76922   0.95669   0.18323   0.00000  Uiso   1.00
S576   S     0.68619   0.75903   0.00902   0.00000  Uiso   1.00
C577   C     0.16706   0.24597   0.74775   0.00000  Uiso   1.00
C578   C     0.13044   0.14879   0.90433   0.00000  Uiso   1.00
C579   C     0.19800   0.31158   0.76939   0.00000  Uiso   1.00
C580   C     0.14168   0.16153   0.84934   0.00000  Uiso   1.00
C581   C     0.19832   0.02085   0.77043   0.00000  Uiso   1.00
C582   C     0.16727   0.04296   0.74834   0.00000  Uiso   1.00
C583   C     0.13703   0.02263   0.72374   0.00000  Uiso   1.00
C584   C     0.13741   0.31319   0.72075   0.00000  Uiso   1.00
C585   C     0.16729   0.29071   0.74542   0.00000  Uiso   1.00
C586   C     0.29935   0.19062   0.78403   0.00000  Uiso   1.00
C587   C     0.01560   0.19045   0.78419   0.00000  Uiso   1.00
C588   C     0.15202   0.14523   0.98614   0.00000  Uiso   1.00
C589   C     0.03403   0.14283   0.71583   0.00000  Uiso   1.00
C590   C     0.31771   0.14280   0.71589   0.00000  Uiso   1.00
C591   C     0.16678   0.08742   0.74989   0.00000  Uiso   1.00
C592   C     0.19241   0.16731   0.65032   0.00000  Uiso   1.00
C593   C     0.26892   0.17606   0.51308   0.00000  Uiso   1.00
C594   C     0.20700   0.16770   0.59413   0.00000  Uiso   1.00
C595   C     0.08344   0.13443   0.92966   0.00000  Uiso   1.00
C596   C     0.07206   0.12196   0.98126   0.00000  Uiso   1.00
C597   C     0.10477   0.12985   0.51005   0.00000  Uiso   1.00
C598   C     0.16694   0.14846   0.93163   0.00000  Uiso   1.00
C599   C     0.18606   0.15525   0.51404   0.00000  Uiso   1.00
C600   C     0.23532   0.16410   0.98683   0.00000  Uiso   1.00
C601   C     0.25114   0.15901   0.93380   0.00000  Uiso   1.00
C602   C     0.21795   0.14950   0.90698   0.00000  Uiso   1.00
C603   C     0.17258   0.15775   0.56802   0.00000  Uiso   1.00
C604   C     0.25485   0.17773   0.56655   0.00000  Uiso   1.00
Cu605  Cu    0.11978   0.16666   0.75000   0.00000  Uiso   1.00
Cu606  Cu    0.21355   0.16667   0.75000   0.00000  Uiso   1.00
H607   H     0.28154   0.18639   0.58632   0.00000  Uiso   1.00
H608   H     0.13540   0.15243   0.59054   0.00000  Uiso   1.00
H609   H     0.05672   0.13057   0.90840   0.00000  Uiso   1.00
H610   H     0.09380   0.12074   0.55012   0.00000  Uiso   1.00
H611   H     0.23437   0.14040   0.86762   0.00000  Uiso   1.00
H612   H     0.22127   0.29490   0.78814   0.00000  Uiso   1.00
H613   H     0.11286   0.23956   0.62900   0.00000  Uiso   1.00
H614   H     0.05634   0.04403   0.53897   0.00000  Uiso   1.00
H615   H     0.22195   0.03648   0.78948   0.00000  Uiso   1.00
H616   H     0.11404   0.04035   0.70568   0.00000  Uiso   1.00
H617   H     0.27330   0.20985   0.81124   0.00000  Uiso   1.00
H618   H     0.02696   0.20955   0.81151   0.00000  Uiso   1.00
H619   H     0.06012   0.12369   0.68851   0.00000  Uiso   1.00
H620   H     0.30632   0.12365   0.68862   0.00000  Uiso   1.00
H621   H     0.28956   0.16163   0.91298   0.00000  Uiso   1.00
H622   H     0.30641   0.18317   0.99225   0.00000  Uiso   1.00
N623   N     0.04931   0.16666   0.74998   0.00000  Uiso   1.00
N624   N     0.28402   0.16669   0.74999   0.00000  Uiso   1.00
O625   O     0.12708   0.22678   0.75000   0.00000  Uiso   1.00
O626   O     0.08839   0.32159   0.64914   0.00000  Uiso   1.00
O627   O     0.13562   0.25277   0.64586   0.00000  Uiso   1.00
O628   O     0.32732   0.10820   0.56212   0.00000  Uiso   1.00
O629   O     0.31842   0.09345   0.97594   0.00000  Uiso   1.00
O630   O     0.03675   0.04325   0.51394   0.00000  Uiso   1.00
O631   O     0.20627   0.22679   0.75000   0.00000  Uiso   1.00
O632   O     0.10775   0.16665   0.82549   0.00000  Uiso   1.00
O633   O     0.18694   0.16666   0.82549   0.00000  Uiso   1.00
O634   O     0.12706   0.10654   0.74999   0.00000  Uiso   1.00
O635   O     0.20625   0.10655   0.74999   0.00000  Uiso   1.00
O636   O     0.14640   0.16667   0.67451   0.00000  Uiso   1.00
O637   O     0.22559   0.16668   0.67451   0.00000  Uiso   1.00
O638   O     0.05695   0.27183   0.71862   0.00000  Uiso   1.00
S639   S     0.10256   0.29003   0.68323   0.00000  Uiso   1.00
S640   S     0.01953   0.09236   0.50902   0.00000  Uiso   1.00
C641   C     0.50040   0.24597   0.74775   0.00000  Uiso   1.00
C642   C     0.46378   0.14879   0.90433   0.00000  Uiso   1.00
C643   C     0.53133   0.31158   0.76939   0.00000  Uiso   1.00
C644   C     0.47501   0.16153   0.84934   0.00000  Uiso   1.00
C645   C     0.53166   0.02085   0.77043   0.00000  Uiso   1.00
C646   C     0.50060   0.04296   0.74834   0.00000  Uiso   1.00
C647   C     0.47037   0.02263   0.72374   0.00000  Uiso   1.00
C648   C     0.47075   0.31319   0.72075   0.00000  Uiso   1.00
C649   C     0.50063   0.29071   0.74542   0.00000  Uiso   1.00
C650   C     0.63268   0.19062   0.78403   0.00000  Uiso   1.00
C651   C     0.34893   0.19045   0.78419   0.00000  Uiso   1.00
C652   C     0.48535   0.14523   0.98614   0.00000  Uiso   1.00
C653   C     0.36736   0.14283   0.71583   0.00000  Uiso   1.00
C654   C     0.65104   0.14280   0.71589   0.00000  Uiso   1.00
C655   C     0.50012   0.08742   0.74989   0.00000  Uiso   1.00
C656   C     0.52574   0.16731   0.65032   0.00000  Uiso   1.00
C657   C     0.60225   0.17606   0.51308   0.00000  Uiso   1.00
C658   C     0.54033   0.16770   0.59413   0.00000  Uiso   1.00
C659   C     0.41678   0.13443   0.92966   0.00000  Uiso   1.00
C660   C     0.40540   0.12196   0.98126   0.00000  Uiso   1.00
C661   C     0.43811   0.12985   0.51005   0.00000  Uiso   1.00
C662   C     0.50027   0.14846   0.93163   0.00000  Uiso   1.00
C663   C     0.51939   0.15525   0.51404   0.00000  Uiso   1.00
C664   C     0.56865   0.16410   0.98683   0.00000  Uiso   1.00
C665   C     0.58448   0.15901   0.93380   0.00000  Uiso   1.00
C666   C     0.55128   0.14950   0.90698   0.00000  Uiso   1.00
C667   C     0.50591   0.15775   0.56802   0.00000  Uiso   1.00
C668   C     0.58818   0.17773   0.56655   0.00000  Uiso   1.00
Cu669  Cu    0.45311   0.16666   0.75000   0.00000  Uiso   1.00
Cu670  Cu    0.54689   0.16667   0.75000   0.00000  Uiso   1.00
H671   H     0.61487   0.18639   0.58632   0.00000  Uiso   1.00
H672   H     0.46873   0.15243   0.59054   0.00000  Uiso   1.00
H673   H     0.39005   0.13057   0.90840   0.00000  Uiso   1.00
H674   H     0.42713   0.12074   0.55012   0.00000  Uiso   1.00
H675   H     0.56770   0.14040   0.86762   0.00000  Uiso   1.00
H676   H     0.55460   0.29490   0.78814   0.00000  Uiso   1.00
H677   H     0.44619   0.23956   0.62900   0.00000  Uiso   1.00
H678   H     0.38967   0.04403   0.53897   0.00000  Uiso   1.00
H679   H     0.55528   0.03648   0.78948   0.00000  Uiso   1.00
H680   H     0.44737   0.04035   0.70568   0.00000  Uiso   1.00
H681   H     0.60663   0.20985   0.81124   0.00000  Uiso   1.00
H682   H     0.36030   0.20955   0.81151   0.00000  Uiso   1.00
H683   H     0.39345   0.12369   0.68851   0.00000  Uiso   1.00
H684   H     0.63966   0.12365   0.68862   0.00000  Uiso   1.00
H685   H     0.62289   0.16163   0.91298   0.00000  Uiso   1.00
H686   H     0.63975   0.18317   0.99225   0.00000  Uiso   1.00
N687   N     0.38265   0.16666   0.74998   0.00000  Uiso   1.00
N688   N     0.61735   0.16669   0.74999   0.00000  Uiso   1.00
O689   O     0.46042   0.22678   0.75000   0.00000  Uiso   1.00
O690   O     0.42173   0.32159   0.64914   0.00000  Uiso   1.00
O691   O     0.46896   0.25277   0.64586   0.00000  Uiso   1.00
O692   O     0.66066   0.10820   0.56212   0.00000  Uiso   1.00
O693   O     0.65175   0.09345   0.97594   0.00000  Uiso   1.00
O694   O     0.37008   0.04325   0.51394   0.00000  Uiso   1.00
O695   O     0.53961   0.22679   0.75000   0.00000  Uiso   1.00
O696   O     0.44108   0.16665   0.82549   0.00000  Uiso   1.00
O697   O     0.52027   0.16666   0.82549   0.00000  Uiso   1.00
O698   O     0.46039   0.10654   0.74999   0.00000  Uiso   1.00
O699   O     0.53958   0.10655   0.74999   0.00000  Uiso   1.00
O700   O     0.47973   0.16667   0.67451   0.00000  Uiso   1.00
O701   O     0.55892   0.16668   0.67451   0.00000  Uiso   1.00
O702   O     0.39028   0.27183   0.71862   0.00000  Uiso   1.00
S703   S     0.43589   0.29003   0.68323   0.00000  Uiso   1.00
S704   S     0.35286   0.09236   0.50902   0.00000  Uiso   1.00
C705   C     0.83373   0.24597   0.74775   0.00000  Uiso   1.00
C706   C     0.79711   0.14879   0.90433   0.00000  Uiso   1.00
C707   C     0.86466   0.31158   0.76939   0.00000  Uiso   1.00
C708   C     0.80834   0.16153   0.84934   0.00000  Uiso   1.00
C709   C     0.86499   0.02085   0.77043   0.00000  Uiso   1.00
C710   C     0.83394   0.04296   0.74834   0.00000  Uiso   1.00
C711   C     0.80370   0.02263   0.72374   0.00000  Uiso   1.00
C712   C     0.80408   0.31319   0.72075   0.00000  Uiso   1.00
C713   C     0.83396   0.29071   0.74542   0.00000  Uiso   1.00
C714   C     0.96601   0.19062   0.78403   0.00000  Uiso   1.00
C715   C     0.68227   0.19045   0.78419   0.00000  Uiso   1.00
C716   C     0.81868   0.14523   0.98614   0.00000  Uiso   1.00
C717   C     0.70070   0.14283   0.71583   0.00000  Uiso   1.00
C718   C     0.98437   0.14280   0.71589   0.00000  Uiso   1.00
C719   C     0.83345   0.08742   0.74989   0.00000  Uiso   1.00
C720   C     0.85908   0.16731   0.65032   0.00000  Uiso   1.00
C721   C     0.93559   0.17606   0.51308   0.00000  Uiso   1.00
C722   C     0.87367   0.16770   0.59413   0.00000  Uiso   1.00
C723   C     0.75011   0.13443   0.92966   0.00000  Uiso   1.00
C724   C     0.73873   0.12196   0.98126   0.00000  Uiso   1.00
C725   C     0.77144   0.12985   0.51005   0.00000  Uiso   1.00
C726   C     0.83360   0.14846   0.93163   0.00000  Uiso   1.00
C727   C     0.85273   0.15525   0.51404   0.00000  Uiso   1.00
C728   C     0.90198   0.16410   0.98683   0.00000  Uiso   1.00
C729   C     0.91781   0.15901   0.93380   0.00000  Uiso   1.00
C730   C     0.88461   0.14950   0.90698   0.00000  Uiso   1.00
C731   C     0.83924   0.15775   0.56802   0.00000  Uiso   1.00
C732   C     0.92152   0.17773   0.56655   0.00000  Uiso   1.00
Cu733  Cu    0.78645   0.16666   0.75000   0.00000  Uiso   1.00
Cu734  Cu    0.88022   0.16667   0.75000   0.00000  Uiso   1.00
H735   H     0.94821   0.18639   0.58632   0.00000  Uiso   1.00
H736   H     0.80206   0.15243   0.59054   0.00000  Uiso   1.00
H737   H     0.72339   0.13057   0.90840   0.00000  Uiso   1.00
H738   H     0.76047   0.12074   0.55012   0.00000  Uiso   1.00
H739   H     0.90103   0.14040   0.86762   0.00000  Uiso   1.00
H740   H     0.88793   0.29490   0.78814   0.00000  Uiso   1.00
H741   H     0.77953   0.23956   0.62900   0.00000  Uiso   1.00
H742   H     0.72301   0.04403   0.53897   0.00000  Uiso   1.00
H743   H     0.88862   0.03648   0.78948   0.00000  Uiso   1.00
H744   H     0.78071   0.04035   0.70568   0.00000  Uiso   1.00
H745   H     0.93997   0.20985   0.81124   0.00000  Uiso   1.00
H746   H     0.69363   0.20955   0.81151   0.00000  Uiso   1.00
H747   H     0.72679   0.12369   0.68851   0.00000  Uiso   1.00
H748   H     0.97299   0.12365   0.68862   0.00000  Uiso   1.00
H749   H     0.95623   0.16163   0.91298   0.00000  Uiso   1.00
H750   H     0.97308   0.18317   0.99225   0.00000  Uiso   1.00
N751   N     0.71598   0.16666   0.74998   0.00000  Uiso   1.00
N752   N     0.95069   0.16669   0.74999   0.00000  Uiso   1.00
O753   O     0.79375   0.22678   0.75000   0.00000  Uiso   1.00
O754   O     0.75506   0.32159   0.64914   0.00000  Uiso   1.00
O755   O     0.80229   0.25277   0.64586   0.00000  Uiso   1.00
O756   O     0.99399   0.10820   0.56212   0.00000  Uiso   1.00
O757   O     0.98508   0.09345   0.97594   0.00000  Uiso   1.00
O758   O     0.70342   0.04325   0.51394   0.00000  Uiso   1.00
O759   O     0.87294   0.22679   0.75000   0.00000  Uiso   1.00
O760   O     0.77441   0.16665   0.82549   0.00000  Uiso   1.00
O761   O     0.85360   0.16666   0.82549   0.00000  Uiso   1.00
O762   O     0.79373   0.10654   0.74999   0.00000  Uiso   1.00
O763   O     0.87292   0.10655   0.74999   0.00000  Uiso   1.00
O764   O     0.81306   0.16667   0.67451   0.00000  Uiso   1.00
O765   O     0.89225   0.16668   0.67451   0.00000  Uiso   1.00
O766   O     0.72361   0.27183   0.71862   0.00000  Uiso   1.00
S767   S     0.76922   0.29003   0.68323   0.00000  Uiso   1.00
S768   S     0.68619   0.09236   0.50902   0.00000  Uiso   1.00
C769   C     0.16706   0.57930   0.74775   0.00000  Uiso   1.00
C770   C     0.13044   0.48212   0.90433   0.00000  Uiso   1.00
C771   C     0.19800   0.64492   0.76939   0.00000  Uiso   1.00
C772   C     0.14168   0.49486   0.84934   0.00000  Uiso   1.00
C773   C     0.19832   0.35418   0.77043   0.00000  Uiso   1.00
C774   C     0.16727   0.37630   0.74834   0.00000  Uiso   1.00
C775   C     0.13703   0.35596   0.72374   0.00000  Uiso   1.00
C776   C     0.13741   0.64653   0.72075   0.00000  Uiso   1.00
C777   C     0.16729   0.62405   0.74542   0.00000  Uiso   1.00
C778   C     0.29935   0.52395   0.78403   0.00000  Uiso   1.00
C779   C     0.01560   0.52378   0.78419   0.00000  Uiso   1.00
C780   C     0.15202   0.47857   0.98614   0.00000  Uiso   1.00
C781   C     0.03403   0.47616   0.71583   0.00000  Uiso   1.00
C782   C     0.31771   0.47613   0.71589   0.00000  Uiso   1.00
C783   C     0.16678   0.42076   0.74989   0.00000  Uiso   1.00
C784   C     0.19241   0.50064   0.65032   0.00000  Uiso   1.00
C785   C     0.26892   0.50939   0.51308   0.00000  Uiso   1.00
C786   C     0.20700   0.50103   0.59413   0.00000  Uiso   1.00
C787   C     0.08344   0.46776   0.92966   0.00000  Uiso   1.00
C788   C     0.07206   0.45529   0.98126   0.00000  Uiso   1.00
C789   C     0.10477   0.46318   0.51005   0.00000  Uiso   1.00
C790   C     0.16694   0.48179   0.93163   0.00000  Uiso   1.00
C791   C     0.18606   0.48858   0.51404   0.00000  Uiso   1.00
C792   C     0.23532   0.49743   0.98683   0.00000  Uiso   1.00
C793   C     0.25114   0.49235   0.93380   0.00000  Uiso   1.00
C794   C     0.21795   0.48284   0.90698   0.00000  Uiso   1.00
C795   C     0.17258   0.49108   0.56802   0.00000  Uiso   1.00
C796   C     0.25485   0.51106   0.56655   0.00000  Uiso   1.00
Cu797  Cu    0.11978   0.49999   0.75000   0.00000  Uiso   1.00
Cu798  Cu    0.21355   0.50001   0.75000   0.00000  Uiso   1.00
H799   H     0.28154   0.51972   0.58632   0.00000  Uiso   1.00
H800   H     0.13540   0.48576   0.59054   0.00000  Uiso   1.00
H801   H     0.05672   0.46391   0.90840   0.00000  Uiso   1.00
H802   H     0.09380   0.45407   0.55012   0.00000  Uiso   1.00
H803   H     0.23437   0.47373   0.86762   0.00000  Uiso   1.00
H804   H     0.22127   0.62823   0.78814   0.00000  Uiso   1.00
H805   H     0.11286   0.57290   0.62900   0.00000  Uiso   1.00
H806   H     0.05634   0.37736   0.53897   0.00000  Uiso   1.00
H807   H     0.22195   0.36981   0.78948   0.00000  Uiso   1.00
H808   H     0.11404   0.37368   0.70568   0.00000  Uiso   1.00
H809   H     0.27330   0.54318   0.81124   0.00000  Uiso   1.00
H810   H     0.02696   0.54288   0.81151   0.00000  Uiso   1.00
H811   H     0.06012   0.45702   0.68851   0.00000  Uiso   1.00
H812   H     0.30632   0.45698   0.68862   0.00000  Uiso   1.00
H813   H     0.28956   0.49497   0.91298   0.00000  Uiso   1.00
H814   H     0.30641   0.51650   0.99225   0.00000  Uiso   1.00
N815   N     0.04931   0.49999   0.74998   0.00000  Uiso   1.00
N816   N     0.28402   0.50002   0.74999   0.00000  Uiso   1.00
O817   O     0.12708   0.56011   0.75000   0.00000  Uiso   1.00
O818   O     0.08839   0.65492   0.64914   0.00000  Uiso   1.00
O819   O     0.13562   0.58610   0.64586   0.00000  Uiso   1.00
O820   O     0.32732   0.44154   0.56212   0.00000  Uiso   1.00
O821   O     0.31842   0.42678   0.97594   0.00000  Uiso   1.00
O822   O     0.03675   0.37659   0.51394   0.00000  Uiso   1.00
O823   O     0.20627   0.56012   0.75000   0.00000  Uiso   1.00
O824   O     0.10775   0.49998   0.82549   0.00000  Uiso   1.00
O825   O     0.18694   0.49999   0.82549   0.00000  Uiso   1.00
O826   O     0.12706   0.43988   0.74999   0.00000  Uiso   1.00
O827   O     0.20625   0.43989   0.74999   0.00000  Uiso   1.00
O828   O     0.14640   0.50001   0.67451   0.00000  Uiso   1.00
O829   O     0.22559   0.50002   0.67451   0.00000  Uiso   1.00
O830   O     0.05695   0.60516   0.71862   0.00000  Uiso   1.00
S831   S     0.10256   0.62336   0.68323   0.00000  Uiso   1.00
S832   S     0.01953   0.42570   0.50902   0.00000  Uiso   1.00
C833   C     0.50040   0.57930   0.74775   0.00000  Uiso   1.00
C834   C     0.46378   0.48212   0.90433   0.00000  Uiso   1.00
C835   C     0.53133   0.64492   0.76939   0.00000  Uiso   1.00
C836   C     0.47501   0.49486   0.84934   0.00000  Uiso   1.00
C837   C     0.53166   0.35418   0.77043   0.00000  Uiso   1.00
C838   C     0.50060   0.37630   0.74834   0.00000  Uiso   1.00
C839   C     0.47037   0.35596   0.72374   0.00000  Uiso   1.00
C840   C     0.47075   0.64653   0.72075   0.00000  Uiso   1.00
C841   C     0.50063   0.62405   0.74542   0.00000  Uiso   1.00
C842   C     0.63268   0.52395   0.78403   0.00000  Uiso   1.00
C843   C     0.34893   0.52378   0.78419   0.00000  Uiso   1.00
C844   C     0.48535   0.47857   0.98614   0.00000  Uiso   1.00
C845   C     0.36736   0.47616   0.71583   0.00000  Uiso   1.00
C846   C     0.65104   0.47613   0.71589   0.00000  Uiso   1.00
C847   C     0.50012   0.42076   0.74989   0.00000  Uiso   1.00
C848   C     0.52574   0.50064   0.65032   0.00000  Uiso   1.00
C849   C     0.60225   0.50939   0.51308   0.00000  Uiso   1.00
C850   C     0.54033   0.50103   0.59413   0.00000  Uiso   1.00
C851   C     0.41678   0.46776   0.92966   0.00000  Uiso   1.00
C852   C     0.40540   0.45529   0.98126   0.00000  Uiso   1.00
C853   C     0.43811   0.46318   0.51005   0.00000  Uiso   1.00
C854   C     0.50027   0.48179   0.93163   0.00000  Uiso   1.00
C855   C     0.51939   0.48858   0.51404   0.00000  Uiso   1.00
C856   C     0.56865   0.49743   0.98683   0.00000  Uiso   1.00
C857   C     0.58448   0.49235   0.93380   0.00000  Uiso   1.00
C858   C     0.55128   0.48284   0.90698   0.00000  Uiso   1.00
C859   C     0.50591   0.49108   0.56802   0.00000  Uiso   1.00
C860   C     0.58818   0.51106   0.56655   0.00000  Uiso   1.00
Cu861  Cu    0.45311   0.49999   0.75000   0.00000  Uiso   1.00
Cu862  Cu    0.54689   0.50001   0.75000   0.00000  Uiso   1.00
H863   H     0.61487   0.51972   0.58632   0.00000  Uiso   1.00
H864   H     0.46873   0.48576   0.59054   0.00000  Uiso   1.00
H865   H     0.39005   0.46391   0.90840   0.00000  Uiso   1.00
H866   H     0.42713   0.45407   0.55012   0.00000  Uiso   1.00
H867   H     0.56770   0.47373   0.86762   0.00000  Uiso   1.00
H868   H     0.55460   0.62823   0.78814   0.00000  Uiso   1.00
H869   H     0.44619   0.57290   0.62900   0.00000  Uiso   1.00
H870   H     0.38967   0.37736   0.53897   0.00000  Uiso   1.00
H871   H     0.55528   0.36981   0.78948   0.00000  Uiso   1.00
H872   H     0.44737   0.37368   0.70568   0.00000  Uiso   1.00
H873   H     0.60663   0.54318   0.81124   0.00000  Uiso   1.00
H874   H     0.36030   0.54288   0.81151   0.00000  Uiso   1.00
H875   H     0.39345   0.45702   0.68851   0.00000  Uiso   1.00
H876   H     0.63966   0.45698   0.68862   0.00000  Uiso   1.00
H877   H     0.62289   0.49497   0.91298   0.00000  Uiso   1.00
H878   H     0.63975   0.51650   0.99225   0.00000  Uiso   1.00
N879   N     0.38265   0.49999   0.74998   0.00000  Uiso   1.00
N880   N     0.61735   0.50002   0.74999   0.00000  Uiso   1.00
O881   O     0.46042   0.56011   0.75000   0.00000  Uiso   1.00
O882   O     0.42173   0.65492   0.64914   0.00000  Uiso   1.00
O883   O     0.46896   0.58610   0.64586   0.00000  Uiso   1.00
O884   O     0.66066   0.44154   0.56212   0.00000  Uiso   1.00
O885   O     0.65175   0.42678   0.97594   0.00000  Uiso   1.00
O886   O     0.37008   0.37659   0.51394   0.00000  Uiso   1.00
O887   O     0.53961   0.56012   0.75000   0.00000  Uiso   1.00
O888   O     0.44108   0.49998   0.82549   0.00000  Uiso   1.00
O889   O     0.52027   0.49999   0.82549   0.00000  Uiso   1.00
O890   O     0.46039   0.43988   0.74999   0.00000  Uiso   1.00
O891   O     0.53958   0.43989   0.74999   0.00000  Uiso   1.00
O892   O     0.47973   0.50001   0.67451   0.00000  Uiso   1.00
O893   O     0.55892   0.50002   0.67451   0.00000  Uiso   1.00
O894   O     0.39028   0.60516   0.71862   0.00000  Uiso   1.00
S895   S     0.43589   0.62336   0.68323   0.00000  Uiso   1.00
S896   S     0.35286   0.42570   0.50902   0.00000  Uiso   1.00
C897   C     0.83373   0.57930   0.74775   0.00000  Uiso   1.00
C898   C     0.79711   0.48212   0.90433   0.00000  Uiso   1.00
C899   C     0.86466   0.64492   0.76939   0.00000  Uiso   1.00
C900   C     0.80834   0.49486   0.84934   0.00000  Uiso   1.00
C901   C     0.86499   0.35418   0.77043   0.00000  Uiso   1.00
C902   C     0.83394   0.37630   0.74834   0.00000  Uiso   1.00
C903   C     0.80370   0.35596   0.72374   0.00000  Uiso   1.00
C904   C     0.80408   0.64653   0.72075   0.00000  Uiso   1.00
C905   C     0.83396   0.62405   0.74542   0.00000  Uiso   1.00
C906   C     0.96601   0.52395   0.78403   0.00000  Uiso   1.00
C907   C     0.68227   0.52378   0.78419   0.00000  Uiso   1.00
C908   C     0.81868   0.47857   0.98614   0.00000  Uiso   1.00
C909   C     0.70070   0.47616   0.71583   0.00000  Uiso   1.00
C910   C     0.98437   0.47613   0.71589   0.00000  Uiso   1.00
C911   C     0.83345   0.42076   0.74989   0.00000  Uiso   1.00
C912   C     0.85908   0.50064   0.65032   0.00000  Uiso   1.00
C913   C     0.93559   0.50939   0.51308   0.00000  Uiso   1.00
C914   C     0.87367   0.50103   0.59413   0.00000  Uiso   1.00
C915   C     0.75011   0.46776   0.92966   0.00000  Uiso   1.00
C916   C     0.73873   0.45529   0.98126   0.00000  Uiso   1.00
C917   C     0.77144   0.46318   0.51005   0.00000  Uiso   1.00
C918   C     0.83360   0.48179   0.93163   0.00000  Uiso   1.00
C919   C     0.85273   0.48858   0.51404   0.00000  Uiso   1.00
C920   C     0.90198   0.49743   0.98683   0.00000  Uiso   1.00
C921   C     0.91781   0.49235   0.93380   0.00000  Uiso   1.00
C922   C     0.88461   0.48284   0.90698   0.00000  Uiso   1.00
C923   C     0.83924   0.49108   0.56802   0.00000  Uiso   1.00
C924   C     0.92152   0.51106   0.56655   0.00000  Uiso   1.00
Cu925  Cu    0.78645   0.49999   0.75000   0.00000  Uiso   1.00
Cu926  Cu    0.88022   0.50001   0.75000   0.00000  Uiso   1.00
H927   H     0.94821   0.51972   0.58632   0.00000  Uiso   1.00
H928   H     0.80206   0.48576   0.59054   0.00000  Uiso   1.00
H929   H     0.72339   0.46391   0.90840   0.00000  Uiso   1.00
H930   H     0.76047   0.45407   0.55012   0.00000  Uiso   1.00
H931   H     0.90103   0.47373   0.86762   0.00000  Uiso   1.00
H932   H     0.88793   0.62823   0.78814   0.00000  Uiso   1.00
H933   H     0.77953   0.57290   0.62900   0.00000  Uiso   1.00
H934   H     0.72301   0.37736   0.53897   0.00000  Uiso   1.00
H935   H     0.88862   0.36981   0.78948   0.00000  Uiso   1.00
H936   H     0.78071   0.37368   0.70568   0.00000  Uiso   1.00
H937   H     0.93997   0.54318   0.81124   0.00000  Uiso   1.00
H938   H     0.69363   0.54288   0.81151   0.00000  Uiso   1.00
H939   H     0.72679   0.45702   0.68851   0.00000  Uiso   1.00
H940   H     0.97299   0.45698   0.68862   0.00000  Uiso   1.00
H941   H     0.95623   0.49497   0.91298   0.00000  Uiso   1.00
H942   H     0.97308   0.51650   0.99225   0.00000  Uiso   1.00
N943   N     0.71598   0.49999   0.74998   0.00000  Uiso   1.00
N944   N     0.95069   0.50002   0.74999   0.00000  Uiso   1.00
O945   O     0.79375   0.56011   0.75000   0.00000  Uiso   1.00
O946   O     0.75506   0.65492   0.64914   0.00000  Uiso   1.00
O947   O     0.80229   0.58610   0.64586   0.00000  Uiso   1.00
O948   O     0.99399   0.44154   0.56212   0.00000  Uiso   1.00
O949   O     0.98508   0.42678   0.97594   0.00000  Uiso   1.00
O950   O     0.70342   0.37659   0.51394   0.00000  Uiso   1.00
O951   O     0.87294   0.56012   0.75000   0.00000  Uiso   1.00
O952   O     0.77441   0.49998   0.82549   0.00000  Uiso   1.00
O953   O     0.85360   0.49999   0.82549   0.00000  Uiso   1.00
O954   O     0.79373   0.43988   0.74999   0.00000  Uiso   1.00
O955   O     0.87292   0.43989   0.74999   0.00000  Uiso   1.00
O956   O     0.81306   0.50001   0.67451   0.00000  Uiso   1.00
O957   O     0.89225   0.50002   0.67451   0.00000  Uiso   1.00
O958   O     0.72361   0.60516   0.71862   0.00000  Uiso   1.00
S959   S     0.76922   0.62336   0.68323   0.00000  Uiso   1.00
S960   S     0.68619   0.42570   0.50902   0.00000  Uiso   1.00
C961   C     0.16706   0.91264   0.74775   0.00000  Uiso   1.00
C962   C     0.13044   0.81545   0.90433   0.00000  Uiso   1.00
C963   C     0.19800   0.97825   0.76939   0.00000  Uiso   1.00
C964   C     0.14168   0.82819   0.84934   0.00000  Uiso   1.00
C965   C     0.19832   0.68751   0.77043   0.00000  Uiso   1.00
C966   C     0.16727   0.70963   0.74834   0.00000  Uiso   1.00
C967   C     0.13703   0.68929   0.72374   0.00000  Uiso   1.00
C968   C     0.13741   0.97986   0.72075   0.00000  Uiso   1.00
C969   C     0.16729   0.95738   0.74542   0.00000  Uiso   1.00
C970   C     0.29935   0.85728   0.78403   0.00000  Uiso   1.00
C971   C     0.01560   0.85712   0.78419   0.00000  Uiso   1.00
C972   C     0.15202   0.81190   0.98614   0.00000  Uiso   1.00
C973   C     0.03403   0.80949   0.71583   0.00000  Uiso   1.00
C974   C     0.31771   0.80946   0.71589   0.00000  Uiso   1.00
C975   C     0.16678   0.75409   0.74989   0.00000  Uiso   1.00
C976   C     0.19241   0.83398   0.65032   0.00000  Uiso   1.00
C977   C     0.26892   0.84273   0.51308   0.00000  Uiso   1.00
C978   C     0.20700   0.83437   0.59413   0.00000  Uiso   1.00
C979   C     0.08344   0.80109   0.92966   0.00000  Uiso   1.00
C980   C     0.07206   0.78863   0.98126   0.00000  Uiso   1.00
C981   C     0.10477   0.79652   0.51005   0.00000  Uiso   1.00
C982   C     0.16694   0.81512   0.93163   0.00000  Uiso   1.00
C983   C     0.18606   0.82192   0.51404   0.00000  Uiso   1.00
C984   C     0.23532   0.83076   0.98683   0.00000  Uiso   1.00
C985   C     0.25114   0.82568   0.93380   0.00000  Uiso   1.00
C986   C     0.21795   0.81617   0.90698   0.00000  Uiso   1.00
C987   C     0.17258   0.82442   0.56802   0.00000  Uiso   1.00
C988   C     0.25485   0.84440   0.56655   0.00000  Uiso   1.00
Cu989  Cu    0.11978   0.83333   0.75000   0.00000  Uiso   1.00
Cu990  Cu    0.21355   0.83334   0.75000   0.00000  Uiso   1.00
H991   H     0.28154   0.85305   0.58632   0.00000  Uiso   1.00
H992   H     0.13540   0.81909   0.59054   0.00000  Uiso   1.00
H993   H     0.05672   0.79724   0.90840   0.00000  Uiso   1.00
H994   H     0.09380   0.78740   0.55012   0.00000  Uiso   1.00
H995   H     0.23437   0.80707   0.86762   0.00000  Uiso   1.00
H996   H     0.22127   0.96157   0.78814   0.00000  Uiso   1.00
H997   H     0.11286   0.90623   0.62900   0.00000  Uiso   1.00
H998   H     0.05634   0.71069   0.53897   0.00000  Uiso   1.00
H999   H     0.22195   0.70315   0.78948   0.00000  Uiso   1.00
H1000  H     0.11404   0.70701   0.70568   0.00000  Uiso   1.00
H1001  H     0.27330   0.87652   0.81124   0.00000  Uiso   1.00
H1002  H     0.02696   0.87621   0.81151   0.00000  Uiso   1.00
H1003  H     0.06012   0.79036   0.68851   0.00000  Uiso   1.00
H1004  H     0.30632   0.79031   0.68862   0.00000  Uiso   1.00
H1005  H     0.28956   0.82830   0.91298   0.00000  Uiso   1.00
H1006  H     0.30641   0.84983   0.99225   0.00000  Uiso   1.00
N1007  N     0.04931   0.83332   0.74998   0.00000  Uiso   1.00
N1008  N     0.28402   0.83335   0.74999   0.00000  Uiso   1.00
O1009  O     0.12708   0.89345   0.75000   0.00000  Uiso   1.00
O1010  O     0.08839   0.98826   0.64914   0.00000  Uiso   1.00
O1011  O     0.13562   0.91944   0.64586   0.00000  Uiso   1.00
O1012  O     0.32732   0.77487   0.56212   0.00000  Uiso   1.00
O1013  O     0.31842   0.76012   0.97594   0.00000  Uiso   1.00
O1014  O     0.03675   0.70992   0.51394   0.00000  Uiso   1.00
O1015  O     0.20627   0.89346   0.75000   0.00000  Uiso   1.00
O1016  O     0.10775   0.83332   0.82549   0.00000  Uiso   1.00
O1017  O     0.18694   0.83333   0.82549   0.00000  Uiso   1.00
O1018  O     0.12706   0.77321   0.74999   0.00000  Uiso   1.00
O1019  O     0.20625   0.77322   0.74999   0.00000  Uiso   1.00
O1020  O     0.14640   0.83334   0.67451   0.00000  Uiso   1.00
O1021  O     0.22559   0.83335   0.67451   0.00000  Uiso   1.00
O1022  O     0.05695   0.93849   0.71862   0.00000  Uiso   1.00
S1023  S     0.10256   0.95669   0.68323   0.00000  Uiso   1.00
S1024  S     0.01953   0.75903   0.50902   0.00000  Uiso   1.00
C1025  C     0.50040   0.91264   0.74775   0.00000  Uiso   1.00
C1026  C     0.46378   0.81545   0.90433   0.00000  Uiso   1.00
C1027  C     0.53133   0.97825   0.76939   0.00000  Uiso   1.00
C1028  C     0.47501   0.82819   0.84934   0.00000  Uiso   1.00
C1029  C     0.53166   0.68751   0.77043   0.00000  Uiso   1.00
C1030  C     0.50060   0.70963   0.74834   0.00000  Uiso   1.00
C1031  C     0.47037   0.68929   0.72374   0.00000  Uiso   1.00
C1032  C     0.47075   0.97986   0.72075   0.00000  Uiso   1.00
C1033  C     0.50063   0.95738   0.74542   0.00000  Uiso   1.00
C1034  C     0.63268   0.85728   0.78403   0.00000  Uiso   1.00
C1035  C     0.34893   0.85712   0.78419   0.00000  Uiso   1.00
C1036  C     0.48535   0.81190   0.98614   0.00000  Uiso   1.00
C1037  C     0.36736   0.80949   0.71583   0.00000  Uiso   1.00
C1038  C     0.65104   0.80946   0.71589   0.00000  Uiso   1.00
C1039  C     0.50012   0.75409   0.74989   0.00000  Uiso   1.00
C1040  C     0.52574   0.83398   0.65032   0.00000  Uiso   1.00
C1041  C     0.60225   0.84273   0.51308   0.00000  Uiso   1.00
C1042  C     0.54033   0.83437   0.59413   0.00000  Uiso   1.00
C1043  C     0.41678   0.80109   0.92966   0.00000  Uiso   1.00
C1044  C     0.40540   0.78863   0.98126   0.00000  Uiso   1.00
C1045  C     0.43811   0.79652   0.51005   0.00000  Uiso   1.00
C1046  C     0.50027   0.81512   0.93163   0.00000  Uiso   1.00
C1047  C     0.51939   0.82192   0.51404   0.00000  Uiso   1.00
C1048  C     0.56865   0.83076   0.98683   0.00000  Uiso   1.00
C1049  C     0.58448   0.82568   0.93380   0.00000  Uiso   1.00
C1050  C     0.55128   0.81617   0.90698   0.00000  Uiso   1.00
C1051  C     0.50591   0.82442   0.56802   0.00000  Uiso   1.00
C1052  C     0.58818   0.84440   0.56655   0.00000  Uiso   1.00
Cu1053 Cu    0.45311   0.83333   0.75000   0.00000  Uiso   1.00
Cu1054 Cu    0.54689   0.83334   0.75000   0.00000  Uiso   1.00
H1055  H     0.61487   0.85305   0.58632   0.00000  Uiso   1.00
H1056  H     0.46873   0.81909   0.59054   0.00000  Uiso   1.00
H1057  H     0.39005   0.79724   0.90840   0.00000  Uiso   1.00
H1058  H     0.42713   0.78740   0.55012   0.00000  Uiso   1.00
H1059  H     0.56770   0.80707   0.86762   0.00000  Uiso   1.00
H1060  H     0.55460   0.96157   0.78814   0.00000  Uiso   1.00
H1061  H     0.44619   0.90623   0.62900   0.00000  Uiso   1.00
H1062  H     0.38967   0.71069   0.53897   0.00000  Uiso   1.00
H1063  H     0.55528   0.70315   0.78948   0.00000  Uiso   1.00
H1064  H     0.44737   0.70701   0.70568   0.00000  Uiso   1.00
H1065  H     0.60663   0.87652   0.81124   0.00000  Uiso   1.00
H1066  H     0.36030   0.87621   0.81151   0.00000  Uiso   1.00
H1067  H     0.39345   0.79036   0.68851   0.00000  Uiso   1.00
H1068  H     0.63966   0.79031   0.68862   0.00000  Uiso   1.00
H1069  H     0.62289   0.82830   0.91298   0.00000  Uiso   1.00
H1070  H     0.63975   0.84983   0.99225   0.00000  Uiso   1.00
N1071  N     0.38265   0.83332   0.74998   0.00000  Uiso   1.00
N1072  N     0.61735   0.83335   0.74999   0.00000  Uiso   1.00
O1073  O     0.46042   0.89345   0.75000   0.00000  Uiso   1.00
O1074  O     0.42173   0.98826   0.64914   0.00000  Uiso   1.00
O1075  O     0.46896   0.91944   0.64586   0.00000  Uiso   1.00
O1076  O     0.66066   0.77487   0.56212   0.00000  Uiso   1.00
O1077  O     0.65175   0.76012   0.97594   0.00000  Uiso   1.00
O1078  O     0.37008   0.70992   0.51394   0.00000  Uiso   1.00
O1079  O     0.53961   0.89346   0.75000   0.00000  Uiso   1.00
O1080  O     0.44108   0.83332   0.82549   0.00000  Uiso   1.00
O1081  O     0.52027   0.83333   0.82549   0.00000  Uiso   1.00
O1082  O     0.46039   0.77321   0.74999   0.00000  Uiso   1.00
O1083  O     0.53958   0.77322   0.74999   0.00000  Uiso   1.00
O1084  O     0.47973   0.83334   0.67451   0.00000  Uiso   1.00
O1085  O     0.55892   0.83335   0.67451   0.00000  Uiso   1.00
O1086  O     0.39028   0.93849   0.71862   0.00000  Uiso   1.00
S1087  S     0.43589   0.95669   0.68323   0.00000  Uiso   1.00
S1088  S     0.35286   0.75903   0.50902   0.00000  Uiso   1.00
C1089  C     0.83373   0.91264   0.74775   0.00000  Uiso   1.00
C1090  C     0.79711   0.81545   0.90433   0.00000  Uiso   1.00
C1091  C     0.86466   0.97825   0.76939   0.00000  Uiso   1.00
C1092  C     0.80834   0.82819   0.84934   0.00000  Uiso   1.00
C1093  C     0.86499   0.68751   0.77043   0.00000  Uiso   1.00
C1094  C     0.83394   0.70963   0.74834   0.00000  Uiso   1.00
C1095  C     0.80370   0.68929   0.72374   0.00000  Uiso   1.00
C1096  C     0.80408   0.97986   0.72075   0.00000  Uiso   1.00
C1097  C     0.83396   0.95738   0.74542   0.00000  Uiso   1.00
C1098  C     0.96601   0.85728   0.78403   0.00000  Uiso   1.00
C1099  C     0.68227   0.85712   0.78419   0.00000  Uiso   1.00
C1100  C     0.81868   0.81190   0.98614   0.00000  Uiso   1.00
C1101  C     0.70070   0.80949   0.71583   0.00000  Uiso   1.00
C1102  C     0.98437   0.80946   0.71589   0.00000  Uiso   1.00
C1103  C     0.83345   0.75409   0.74989   0.00000  Uiso   1.00
C1104  C     0.85908   0.83398   0.65032   0.00000  Uiso   1.00
C1105  C     0.93559   0.84273   0.51308   0.00000  Uiso   1.00
C1106  C     0.87367   0.83437   0.59413   0.00000  Uiso   1.00
C1107  C     0.75011   0.80109   0.92966   0.00000  Uiso   1.00
C1108  C     0.73873   0.78863   0.98126   0.00000  Uiso   1.00
C1109  C     0.77144   0.79652   0.51005   0.00000  Uiso   1.00
C1110  C     0.83360   0.81512   0.93163   0.00000  Uiso   1.00
C1111  C     0.85273   0.82192   0.51404   0.00000  Uiso   1.00
C1112  C     0.90198   0.83076   0.98683   0.00000  Uiso   1.00
C1113  C     0.91781   0.82568   0.93380   0.00000  Uiso   1.00
C1114  C     0.88461   0.81617   0.90698   0.00000  Uiso   1.00
C1115  C     0.83924   0.82442   0.56802   0.00000  Uiso   1.00
C1116  C     0.92152   0.84440   0.56655   0.00000  Uiso   1.00
Cu1117 Cu    0.78645   0.83333   0.75000   0.00000  Uiso   1.00
Cu1118 Cu    0.88022   0.83334   0.75000   0.00000  Uiso   1.00
H1119  H     0.94821   0.85305   0.58632   0.00000  Uiso   1.00
H1120  H     0.80206   0.81909   0.59054   0.00000  Uiso   1.00
H1121  H     0.72339   0.79724   0.90840   0.00000  Uiso   1.00
H1122  H     0.76047   0.78740   0.55012   0.00000  Uiso   1.00
H1123  H     0.90103   0.80707   0.86762   0.00000  Uiso   1.00
H1124  H     0.88793   0.96157   0.78814   0.00000  Uiso   1.00
H1125  H     0.77953   0.90623   0.62900   0.00000  Uiso   1.00
H1126  H     0.72301   0.71069   0.53897   0.00000  Uiso   1.00
H1127  H     0.88862   0.70315   0.78948   0.00000  Uiso   1.00
H1128  H     0.78071   0.70701   0.70568   0.00000  Uiso   1.00
H1129  H     0.93997   0.87652   0.81124   0.00000  Uiso   1.00
H1130  H     0.69363   0.87621   0.81151   0.00000  Uiso   1.00
H1131  H     0.72679   0.79036   0.68851   0.00000  Uiso   1.00
H1132  H     0.97299   0.79031   0.68862   0.00000  Uiso   1.00
H1133  H     0.95623   0.82830   0.91298   0.00000  Uiso   1.00
H1134  H     0.97308   0.84983   0.99225   0.00000  Uiso   1.00
N1135  N     0.71598   0.83332   0.74998   0.00000  Uiso   1.00
N1136  N     0.95069   0.83335   0.74999   0.00000  Uiso   1.00
O1137  O     0.79375   0.89345   0.75000   0.00000  Uiso   1.00
O1138  O     0.75506   0.98826   0.64914   0.00000  Uiso   1.00
O1139  O     0.80229   0.91944   0.64586   0.00000  Uiso   1.00
O1140  O     0.99399   0.77487   0.56212   0.00000  Uiso   1.00
O1141  O     0.98508   0.76012   0.97594   0.00000  Uiso   1.00
O1142  O     0.70342   0.70992   0.51394   0.00000  Uiso   1.00
O1143  O     0.87294   0.89346   0.75000   0.00000  Uiso   1.00
O1144  O     0.77441   0.83332   0.82549   0.00000  Uiso   1.00
O1145  O     0.85360   0.83333   0.82549   0.00000  Uiso   1.00
O1146  O     0.79373   0.77321   0.74999   0.00000  Uiso   1.00
O1147  O     0.87292   0.77322   0.74999   0.00000  Uiso   1.00
O1148  O     0.81306   0.83334   0.67451   0.00000  Uiso   1.00
O1149  O     0.89225   0.83335   0.67451   0.00000  Uiso   1.00
O1150  O     0.72361   0.93849   0.71862   0.00000  Uiso   1.00
S1151  S     0.76922   0.95669   0.68323   0.00000  Uiso   1.00
S1152  S     0.68619   0.75903   0.50902   0.00000  Uiso   1.00
loop_
_geom_bond_atom_site_label_1
_geom_bond_atom_site_label_2
_geom_bond_distance
_geom_bond_site_symmetry_2
_ccdc_geom_bond_type
C1     O55     1.294   .     A
C1     C9      1.453   .     S
C1     O49     1.288   .     A
C2     C22     1.434   .     A
C2     C4      1.486   .     S
C2     C19     1.403   .     A
C3     C9      1.403   .     A
C3     H36     1.084   .     S
C3     C197    1.383   .     S
C4     O57     1.281   .     A
C4     O56     1.314   .     A
C5     H39     1.084   .     S
C5     C6      1.395   .     A
C5     C387    1.383   1_545 S
C6     C7      1.396   .     A
C6     C15     1.443   .     S
C7     H40     1.083   .     S
C7     C392    1.390   1_545 S
C8     S63     1.776   .     S
C8     C9      1.419   .     A
C8     C199    1.390   .     S
C10    H41     1.082   .     S
C10    N48     1.367   .     A
C10    C75     1.415   .     S
C11    N47     1.367   .     A
C11    H42     1.082   .     S
C11    C138    1.415   1_455 S
C12    C22     1.415   .     A
C12    C597    1.413   .     S
C12    C599    1.425   .     S
C13    H43     1.082   .     S
C13    N47     1.367   .     A
C13    C142    1.416   1_455 S
C14    H44     1.082   .     S
C14    N48     1.367   .     A
C14    C77     1.416   .     S
C15    O58     1.288   .     A
C15    O59     1.288   .     A
C16    C18     1.455   .     S
C16    O60     1.291   .     A
C16    O61     1.292   .     A
C17    C28     1.385   .     A
C17    C600    1.399   1_554 S
C17    H622    1.084   1_554 S
C18    C28     1.398   .     A
C18    C27     1.399   .     A
C19    C20     1.397   .     A
C19    H33     1.083   .     S
C20    C597    1.396   .     S
C20    S640    1.763   .     S
C21    H34     1.079   .     S
C21    C588    1.413   1_554 S
C21    C596    1.396   1_554 S
C22    C26     1.420   .     A
C23    C27     1.400   .     A
C23    C588    1.425   1_554 S
C23    C600    1.420   1_554 S
C24    C25     1.384   .     A
C24    C599    1.420   .     S
C24    C593    1.399   .     S
C25    C26     1.380   .     A
C25    H45     1.085   .     S
C26    H35     1.074   .     S
C27    H32     1.078   .     S
C28    H31     1.083   .     S
Cu29   O56     1.968   .     S
Cu29   O60     1.963   .     S
Cu29   O49     1.963   .     S
Cu29   Cu30    2.674   .     S
Cu29   N47     2.010   .     S
Cu29   O58     1.961   .     S
Cu30   O55     1.961   .     S
Cu30   O59     1.963   .     S
Cu30   N48     2.010   .     S
Cu30   O57     1.963   .     S
Cu30   O61     1.968   .     S
H37    O51     0.991   .     S
H38    O54     0.991   .     S
H46    C593    1.084   .     S
O50    S63     1.504   .     D
O51    S63     1.681   .     S
O52    S128    1.502   .     S
O53    S704    1.502   .     S
O54    S64     1.681   .     S
O62    S63     1.503   .     D
S64    C596    1.763   1_554 S
S64    O180    1.502   1_455 S
S64    O757    1.502   1_454 S
C65    O119    1.294   .     A
C65    C73     1.453   .     S
C65    O113    1.288   .     A
C66    C86     1.434   .     A
C66    C68     1.486   .     S
C66    C83     1.403   .     A
C67    C73     1.403   .     A
C67    H100    1.084   .     S
C67    C261    1.383   .     S
C68    O121    1.281   .     A
C68    O120    1.314   .     A
C69    H103    1.084   .     S
C69    C70     1.395   .     A
C69    C451    1.383   1_545 S
C70    C71     1.396   .     A
C70    C79     1.443   .     S
C71    H104    1.083   .     S
C71    C456    1.390   1_545 S
C72    S127    1.776   .     S
C72    C73     1.419   .     A
C72    C263    1.390   .     S
C74    H105    1.082   .     S
C74    N112    1.367   .     A
C74    C139    1.415   .     S
C75    N111    1.367   .     A
C75    H106    1.082   .     S
C76    C86     1.415   .     A
C76    C661    1.413   .     S
C76    C663    1.425   .     S
C77    H107    1.082   .     S
C77    N111    1.367   .     A
C78    H108    1.082   .     S
C78    N112    1.367   .     A
C78    C141    1.416   .     S
C79    O122    1.288   .     A
C79    O123    1.288   .     A
C80    C82     1.455   .     S
C80    O124    1.291   .     A
C80    O125    1.292   .     A
C81    C92     1.385   .     A
C81    C664    1.399   1_554 S
C81    H686    1.084   1_554 S
C82    C92     1.398   .     A
C82    C91     1.399   .     A
C83    C84     1.397   .     A
C83    H97     1.083   .     S
C84    C661    1.396   .     S
C84    S704    1.763   .     S
C85    H98     1.079   .     S
C85    C652    1.413   1_554 S
C85    C660    1.396   1_554 S
C86    C90     1.420   .     A
C87    C91     1.400   .     A
C87    C652    1.425   1_554 S
C87    C664    1.420   1_554 S
C88    C89     1.384   .     A
C88    C663    1.420   .     S
C88    C657    1.399   .     S
C89    C90     1.380   .     A
C89    H109    1.085   .     S
C90    H99     1.074   .     S
C91    H96     1.078   .     S
C92    H95     1.083   .     S
Cu93   O120    1.968   .     S
Cu93   O124    1.963   .     S
Cu93   O113    1.963   .     S
Cu93   Cu94    2.674   .     S
Cu93   N111    2.010   .     S
Cu93   O122    1.961   .     S
Cu94   O119    1.961   .     S
Cu94   O123    1.963   .     S
Cu94   N112    2.010   .     S
Cu94   O121    1.963   .     S
Cu94   O125    1.968   .     S
H101   O115    0.991   .     S
H102   O118    0.991   .     S
H110   C657    1.084   .     S
O114   S127    1.504   .     D
O115   S127    1.681   .     S
O116   S192    1.502   .     S
O117   S768    1.502   .     S
O118   S128    1.681   .     S
O126   S127    1.503   .     D
S128   C660    1.763   1_554 S
S128   O629    1.502   1_554 S
C129   O183    1.294   .     A
C129   C137    1.453   .     S
C129   O177    1.288   .     A
C130   C150    1.434   .     A
C130   C132    1.486   .     S
C130   C147    1.403   .     A
C131   C137    1.403   .     A
C131   H164    1.084   .     S
C131   C325    1.383   .     S
C132   O185    1.281   .     A
C132   O184    1.314   .     A
C133   H167    1.084   .     S
C133   C134    1.395   .     A
C133   C515    1.383   1_545 S
C134   C135    1.396   .     A
C134   C143    1.443   .     S
C135   H168    1.083   .     S
C135   C520    1.390   1_545 S
C136   S191    1.776   .     S
C136   C137    1.419   .     A
C136   C327    1.390   .     S
C138   H169    1.082   .     S
C138   N176    1.367   .     A
C138   C11     1.415   1_655 S
C139   N175    1.367   .     A
C139   H170    1.082   .     S
C140   C150    1.415   .     A
C140   C725    1.413   .     S
C140   C727    1.425   .     S
C141   H171    1.082   .     S
C141   N175    1.367   .     A
C142   H172    1.082   .     S
C142   N176    1.367   .     A
C142   C13     1.416   1_655 S
C143   O186    1.288   .     A
C143   O187    1.288   .     A
C144   C146    1.455   .     S
C144   O188    1.291   .     A
C144   O189    1.292   .     A
C145   C156    1.385   .     A
C145   C728    1.399   1_554 S
C145   H750    1.084   1_554 S
C146   C156    1.398   .     A
C146   C155    1.399   .     A
C147   C148    1.397   .     A
C147   H161    1.083   .     S
C148   C725    1.396   .     S
C148   S768    1.763   .     S
C149   H162    1.079   .     S
C149   C716    1.413   1_554 S
C149   C724    1.396   1_554 S
C150   C154    1.420   .     A
C151   C155    1.400   .     A
C151   C716    1.425   1_554 S
C151   C728    1.420   1_554 S
C152   C153    1.384   .     A
C152   C727    1.420   .     S
C152   C721    1.399   .     S
C153   C154    1.380   .     A
C153   H173    1.085   .     S
C154   H163    1.074   .     S
C155   H160    1.078   .     S
C156   H159    1.083   .     S
Cu157  O184    1.968   .     S
Cu157  O188    1.963   .     S
Cu157  O177    1.963   .     S
Cu157  Cu158   2.674   .     S
Cu157  N175    2.010   .     S
Cu157  O186    1.961   .     S
Cu158  O183    1.961   .     S
Cu158  O187    1.963   .     S
Cu158  N176    2.010   .     S
Cu158  O185    1.963   .     S
Cu158  O189    1.968   .     S
H165   O179    0.991   .     S
H166   O182    0.991   .     S
H174   C721    1.084   .     S
O178   S191    1.504   .     D
O179   S191    1.681   .     S
O180   S64     1.502   1_655 S
O181   S640    1.502   1_655 S
O182   S192    1.681   .     S
O190   S191    1.503   .     D
S192   C724    1.763   1_554 S
S192   O693    1.502   1_554 S
C193   O247    1.294   .     A
C193   C201    1.453   .     S
C193   O241    1.288   .     A
C194   C214    1.434   .     A
C194   C196    1.486   .     S
C194   C211    1.403   .     A
C195   C201    1.403   .     A
C195   H228    1.084   .     S
C195   C389    1.383   .     S
C196   O249    1.281   .     A
C196   O248    1.314   .     A
C197   H231    1.084   .     S
C197   C198    1.395   .     A
C198   C199    1.396   .     A
C198   C207    1.443   .     S
C199   H232    1.083   .     S
C200   S255    1.776   .     S
C200   C201    1.419   .     A
C200   C391    1.390   .     S
C202   H233    1.082   .     S
C202   N240    1.367   .     A
C202   C267    1.415   .     S
C203   N239    1.367   .     A
C203   H234    1.082   .     S
C203   C330    1.415   1_455 S
C204   C214    1.415   .     A
C204   C789    1.413   .     S
C204   C791    1.425   .     S
C205   H235    1.082   .     S
C205   N239    1.367   .     A
C205   C334    1.416   1_455 S
C206   H236    1.082   .     S
C206   N240    1.367   .     A
C206   C269    1.416   .     S
C207   O250    1.288   .     A
C207   O251    1.288   .     A
C208   C210    1.455   .     S
C208   O252    1.291   .     A
C208   O253    1.292   .     A
C209   C220    1.385   .     A
C209   C792    1.399   1_554 S
C209   H814    1.084   1_554 S
C210   C220    1.398   .     A
C210   C219    1.399   .     A
C211   C212    1.397   .     A
C211   H225    1.083   .     S
C212   C789    1.396   .     S
C212   S832    1.763   .     S
C213   H226    1.079   .     S
C213   C780    1.413   1_554 S
C213   C788    1.396   1_554 S
C214   C218    1.420   .     A
C215   C219    1.400   .     A
C215   C780    1.425   1_554 S
C215   C792    1.420   1_554 S
C216   C217    1.384   .     A
C216   C791    1.420   .     S
C216   C785    1.399   .     S
C217   C218    1.380   .     A
C217   H237    1.085   .     S
C218   H227    1.074   .     S
C219   H224    1.078   .     S
C220   H223    1.083   .     S
Cu221  O248    1.968   .     S
Cu221  O252    1.963   .     S
Cu221  O241    1.963   .     S
Cu221  Cu222   2.674   .     S
Cu221  N239    2.010   .     S
Cu221  O250    1.961   .     S
Cu222  O247    1.961   .     S
Cu222  O251    1.963   .     S
Cu222  N240    2.010   .     S
Cu222  O249    1.963   .     S
Cu222  O253    1.968   .     S
H229   O243    0.991   .     S
H230   O246    0.991   .     S
H238   C785    1.084   .     S
O242   S255    1.504   .     D
O243   S255    1.681   .     S
O244   S320    1.502   .     S
O245   S896    1.502   .     S
O246   S256    1.681   .     S
O254   S255    1.503   .     D
S256   C788    1.763   1_554 S
S256   O372    1.502   1_455 S
S256   O949    1.502   1_454 S
C257   O311    1.294   .     A
C257   C265    1.453   .     S
C257   O305    1.288   .     A
C258   C278    1.434   .     A
C258   C260    1.486   .     S
C258   C275    1.403   .     A
C259   C265    1.403   .     A
C259   H292    1.084   .     S
C259   C453    1.383   .     S
C260   O313    1.281   .     A
C260   O312    1.314   .     A
C261   H295    1.084   .     S
C261   C262    1.395   .     A
C262   C263    1.396   .     A
C262   C271    1.443   .     S
C263   H296    1.083   .     S
C264   S319    1.776   .     S
C264   C265    1.419   .     A
C264   C455    1.390   .     S
C266   H297    1.082   .     S
C266   N304    1.367   .     A
C266   C331    1.415   .     S
C267   N303    1.367   .     A
C267   H298    1.082   .     S
C268   C278    1.415   .     A
C268   C853    1.413   .     S
C268   C855    1.425   .     S
C269   H299    1.082   .     S
C269   N303    1.367   .     A
C270   H300    1.082   .     S
C270   N304    1.367   .     A
C270   C333    1.416   .     S
C271   O314    1.288   .     A
C271   O315    1.288   .     A
C272   C274    1.455   .     S
C272   O316    1.291   .     A
C272   O317    1.292   .     A
C273   C284    1.385   .     A
C273   C856    1.399   1_554 S
C273   H878    1.084   1_554 S
C274   C284    1.398   .     A
C274   C283    1.399   .     A
C275   C276    1.397   .     A
C275   H289    1.083   .     S
C276   C853    1.396   .     S
C276   S896    1.763   .     S
C277   H290    1.079   .     S
C277   C844    1.413   1_554 S
C277   C852    1.396   1_554 S
C278   C282    1.420   .     A
C279   C283    1.400   .     A
C279   C844    1.425   1_554 S
C279   C856    1.420   1_554 S
C280   C281    1.384   .     A
C280   C855    1.420   .     S
C280   C849    1.399   .     S
C281   C282    1.380   .     A
C281   H301    1.085   .     S
C282   H291    1.074   .     S
C283   H288    1.078   .     S
C284   H287    1.083   .     S
Cu285  O312    1.968   .     S
Cu285  O316    1.963   .     S
Cu285  O305    1.963   .     S
Cu285  Cu286   2.674   .     S
Cu285  N303    2.010   .     S
Cu285  O314    1.961   .     S
Cu286  O311    1.961   .     S
Cu286  O315    1.963   .     S
Cu286  N304    2.010   .     S
Cu286  O313    1.963   .     S
Cu286  O317    1.968   .     S
H293   O307    0.991   .     S
H294   O310    0.991   .     S
H302   C849    1.084   .     S
O306   S319    1.504   .     D
O307   S319    1.681   .     S
O308   S384    1.502   .     S
O309   S960    1.502   .     S
O310   S320    1.681   .     S
O318   S319    1.503   .     D
S320   C852    1.763   1_554 S
S320   O821    1.502   1_554 S
C321   O375    1.294   .     A
C321   C329    1.453   .     S
C321   O369    1.288   .     A
C322   C342    1.434   .     A
C322   C324    1.486   .     S
C322   C339    1.403   .     A
C323   C329    1.403   .     A
C323   H356    1.084   .     S
C323   C517    1.383   .     S
C324   O377    1.281   .     A
C324   O376    1.314   .     A
C325   H359    1.084   .     S
C325   C326    1.395   .     A
C326   C327    1.396   .     A
C326   C335    1.443   .     S
C327   H360    1.083   .     S
C328   S383    1.776   .     S
C328   C329    1.419   .     A
C328   C519    1.390   .     S
C330   H361    1.082   .     S
C330   N368    1.367   .     A
C330   C203    1.415   1_655 S
C331   N367    1.367   .     A
C331   H362    1.082   .     S
C332   C342    1.415   .     A
C332   C917    1.413   .     S
C332   C919    1.425   .     S
C333   H363    1.082   .     S
C333   N367    1.367   .     A
C334   H364    1.082   .     S
C334   N368    1.367   .     A
C334   C205    1.416   1_655 S
C335   O378    1.288   .     A
C335   O379    1.288   .     A
C336   C338    1.455   .     S
C336   O380    1.291   .     A
C336   O381    1.292   .     A
C337   C348    1.385   .     A
C337   C920    1.399   1_554 S
C337   H942    1.084   1_554 S
C338   C348    1.398   .     A
C338   C347    1.399   .     A
C339   C340    1.397   .     A
C339   H353    1.083   .     S
C340   C917    1.396   .     S
C340   S960    1.763   .     S
C341   H354    1.079   .     S
C341   C908    1.413   1_554 S
C341   C916    1.396   1_554 S
C342   C346    1.420   .     A
C343   C347    1.400   .     A
C343   C908    1.425   1_554 S
C343   C920    1.420   1_554 S
C344   C345    1.384   .     A
C344   C919    1.420   .     S
C344   C913    1.399   .     S
C345   C346    1.380   .     A
C345   H365    1.085   .     S
C346   H355    1.074   .     S
C347   H352    1.078   .     S
C348   H351    1.083   .     S
Cu349  O376    1.968   .     S
Cu349  O380    1.963   .     S
Cu349  O369    1.963   .     S
Cu349  Cu350   2.674   .     S
Cu349  N367    2.010   .     S
Cu349  O378    1.961   .     S
Cu350  O375    1.961   .     S
Cu350  O379    1.963   .     S
Cu350  N368    2.010   .     S
Cu350  O377    1.963   .     S
Cu350  O381    1.968   .     S
H357   O371    0.991   .     S
H358   O374    0.991   .     S
H366   C913    1.084   .     S
O370   S383    1.504   .     D
O371   S383    1.681   .     S
O372   S256    1.502   1_655 S
O373   S832    1.502   1_655 S
O374   S384    1.681   .     S
O382   S383    1.503   .     D
S384   C916    1.763   1_554 S
S384   O885    1.502   1_554 S
C385   O439    1.294   .     A
C385   C393    1.453   .     S
C385   O433    1.288   .     A
C386   C406    1.434   .     A
C386   C388    1.486   .     S
C386   C403    1.403   .     A
C387   C393    1.403   .     A
C387   H420    1.084   .     S
C387   C5      1.383   1_565 S
C388   O441    1.281   .     A
C388   O440    1.314   .     A
C389   H423    1.084   .     S
C389   C390    1.395   .     A
C390   C391    1.396   .     A
C390   C399    1.443   .     S
C391   H424    1.083   .     S
C392   S447    1.776   .     S
C392   C393    1.419   .     A
C392   C7      1.390   1_565 S
C394   H425    1.082   .     S
C394   N432    1.367   .     A
C394   C459    1.415   .     S
C395   N431    1.367   .     A
C395   H426    1.082   .     S
C395   C522    1.415   1_455 S
C396   C406    1.415   .     A
C396   C981    1.413   .     S
C396   C983    1.425   .     S
C397   H427    1.082   .     S
C397   N431    1.367   .     A
C397   C526    1.416   1_455 S
C398   H428    1.082   .     S
C398   N432    1.367   .     A
C398   C461    1.416   .     S
C399   O442    1.288   .     A
C399   O443    1.288   .     A
C400   C402    1.455   .     S
C400   O444    1.291   .     A
C400   O445    1.292   .     A
C401   C412    1.385   .     A
C401   C984    1.399   1_554 S
C401   H1006   1.084   1_554 S
C402   C412    1.398   .     A
C402   C411    1.399   .     A
C403   C404    1.397   .     A
C403   H417    1.083   .     S
C404   C981    1.396   .     S
C404   S1024   1.763   .     S
C405   H418    1.079   .     S
C405   C972    1.413   1_554 S
C405   C980    1.396   1_554 S
C406   C410    1.420   .     A
C407   C411    1.400   .     A
C407   C972    1.425   1_554 S
C407   C984    1.420   1_554 S
C408   C409    1.384   .     A
C408   C983    1.420   .     S
C408   C977    1.399   .     S
C409   C410    1.380   .     A
C409   H429    1.085   .     S
C410   H419    1.074   .     S
C411   H416    1.078   .     S
C412   H415    1.083   .     S
Cu413  O440    1.968   .     S
Cu413  O444    1.963   .     S
Cu413  O433    1.963   .     S
Cu413  Cu414   2.674   .     S
Cu413  N431    2.010   .     S
Cu413  O442    1.961   .     S
Cu414  O439    1.961   .     S
Cu414  O443    1.963   .     S
Cu414  N432    2.010   .     S
Cu414  O441    1.963   .     S
Cu414  O445    1.968   .     S
H421   O435    0.991   .     S
H422   O438    0.991   .     S
H430   C977    1.084   .     S
O434   S447    1.504   .     D
O435   S447    1.681   .     S
O436   S512    1.502   .     S
O437   S1088   1.502   .     S
O438   S448    1.681   .     S
O446   S447    1.503   .     D
S448   C980    1.763   1_554 S
S448   O564    1.502   1_455 S
S448   O1141   1.502   1_454 S
C449   O503    1.294   .     A
C449   C457    1.453   .     S
C449   O497    1.288   .     A
C450   C470    1.434   .     A
C450   C452    1.486   .     S
C450   C467    1.403   .     A
C451   C457    1.403   .     A
C451   H484    1.084   .     S
C451   C69     1.383   1_565 S
C452   O505    1.281   .     A
C452   O504    1.314   .     A
C453   H487    1.084   .     S
C453   C454    1.395   .     A
C454   C455    1.396   .     A
C454   C463    1.443   .     S
C455   H488    1.083   .     S
C456   S511    1.776   .     S
C456   C457    1.419   .     A
C456   C71     1.390   1_565 S
C458   H489    1.082   .     S
C458   N496    1.367   .     A
C458   C523    1.415   .     S
C459   N495    1.367   .     A
C459   H490    1.082   .     S
C460   C470    1.415   .     A
C460   C1045   1.413   .     S
C460   C1047   1.425   .     S
C461   H491    1.082   .     S
C461   N495    1.367   .     A
C462   H492    1.082   .     S
C462   N496    1.367   .     A
C462   C525    1.416   .     S
C463   O506    1.288   .     A
C463   O507    1.288   .     A
C464   C466    1.455   .     S
C464   O508    1.291   .     A
C464   O509    1.292   .     A
C465   C476    1.385   .     A
C465   C1048   1.399   1_554 S
C465   H1070   1.084   1_554 S
C466   C476    1.398   .     A
C466   C475    1.399   .     A
C467   C468    1.397   .     A
C467   H481    1.083   .     S
C468   C1045   1.396   .     S
C468   S1088   1.763   .     S
C469   H482    1.079   .     S
C469   C1036   1.413   1_554 S
C469   C1044   1.396   1_554 S
C470   C474    1.420   .     A
C471   C475    1.400   .     A
C471   C1036   1.425   1_554 S
C471   C1048   1.420   1_554 S
C472   C473    1.384   .     A
C472   C1047   1.420   .     S
C472   C1041   1.399   .     S
C473   C474    1.380   .     A
C473   H493    1.085   .     S
C474   H483    1.074   .     S
C475   H480    1.078   .     S
C476   H479    1.083   .     S
Cu477  O504    1.968   .     S
Cu477  O508    1.963   .     S
Cu477  O497    1.963   .     S
Cu477  Cu478   2.674   .     S
Cu477  N495    2.010   .     S
Cu477  O506    1.961   .     S
Cu478  O503    1.961   .     S
Cu478  O507    1.963   .     S
Cu478  N496    2.010   .     S
Cu478  O505    1.963   .     S
Cu478  O509    1.968   .     S
H485   O499    0.991   .     S
H486   O502    0.991   .     S
H494   C1041   1.084   .     S
O498   S511    1.504   .     D
O499   S511    1.681   .     S
O500   S576    1.502   .     S
O501   S1152   1.502   .     S
O502   S512    1.681   .     S
O510   S511    1.503   .     D
S512   C1044   1.763   1_554 S
S512   O1013   1.502   1_554 S
C513   O567    1.294   .     A
C513   C521    1.453   .     S
C513   O561    1.288   .     A
C514   C534    1.434   .     A
C514   C516    1.486   .     S
C514   C531    1.403   .     A
C515   C521    1.403   .     A
C515   H548    1.084   .     S
C515   C133    1.383   1_565 S
C516   O569    1.281   .     A
C516   O568    1.314   .     A
C517   H551    1.084   .     S
C517   C518    1.395   .     A
C518   C519    1.396   .     A
C518   C527    1.443   .     S
C519   H552    1.083   .     S
C520   S575    1.776   .     S
C520   C521    1.419   .     A
C520   C135    1.390   1_565 S
C522   H553    1.082   .     S
C522   N560    1.367   .     A
C522   C395    1.415   1_655 S
C523   N559    1.367   .     A
C523   H554    1.082   .     S
C524   C534    1.415   .     A
C524   C1109   1.413   .     S
C524   C1111   1.425   .     S
C525   H555    1.082   .     S
C525   N559    1.367   .     A
C526   H556    1.082   .     S
C526   N560    1.367   .     A
C526   C397    1.416   1_655 S
C527   O570    1.288   .     A
C527   O571    1.288   .     A
C528   C530    1.455   .     S
C528   O572    1.291   .     A
C528   O573    1.292   .     A
C529   C540    1.385   .     A
C529   C1112   1.399   1_554 S
C529   H1134   1.084   1_554 S
C530   C540    1.398   .     A
C530   C539    1.399   .     A
C531   C532    1.397   .     A
C531   H545    1.083   .     S
C532   C1109   1.396   .     S
C532   S1152   1.763   .     S
C533   H546    1.079   .     S
C533   C1100   1.413   1_554 S
C533   C1108   1.396   1_554 S
C534   C538    1.420   .     A
C535   C539    1.400   .     A
C535   C1100   1.425   1_554 S
C535   C1112   1.420   1_554 S
C536   C537    1.384   .     A
C536   C1111   1.420   .     S
C536   C1105   1.399   .     S
C537   C538    1.380   .     A
C537   H557    1.085   .     S
C538   H547    1.074   .     S
C539   H544    1.078   .     S
C540   H543    1.083   .     S
Cu541  O568    1.968   .     S
Cu541  O572    1.963   .     S
Cu541  O561    1.963   .     S
Cu541  Cu542   2.674   .     S
Cu541  N559    2.010   .     S
Cu541  O570    1.961   .     S
Cu542  O567    1.961   .     S
Cu542  O571    1.963   .     S
Cu542  N560    2.010   .     S
Cu542  O569    1.963   .     S
Cu542  O573    1.968   .     S
H549   O563    0.991   .     S
H550   O566    0.991   .     S
H558   C1105   1.084   .     S
O562   S575    1.504   .     D
O563   S575    1.681   .     S
O564   S448    1.502   1_655 S
O565   S1024   1.502   1_655 S
O566   S576    1.681   .     S
O574   S575    1.503   .     D
S576   C1108   1.763   1_554 S
S576   O1077   1.502   1_554 S
C577   O631    1.294   .     A
C577   C585    1.453   .     S
C577   O625    1.288   .     A
C578   C598    1.434   .     A
C578   C580    1.486   .     S
C578   C595    1.403   .     A
C579   C585    1.403   .     A
C579   H612    1.084   .     S
C579   C773    1.383   .     S
C580   O633    1.281   .     A
C580   O632    1.314   .     A
C581   H615    1.084   .     S
C581   C582    1.395   .     A
C581   C963    1.383   1_545 S
C582   C583    1.396   .     A
C582   C591    1.443   .     S
C583   H616    1.083   .     S
C583   C968    1.390   1_545 S
C584   S639    1.776   .     S
C584   C585    1.419   .     A
C584   C775    1.390   .     S
C586   H617    1.082   .     S
C586   N624    1.367   .     A
C586   C651    1.415   .     S
C587   N623    1.367   .     A
C587   H618    1.082   .     S
C587   C714    1.415   1_455 S
C588   C598    1.415   .     A
C588   C21     1.413   1_556 S
C588   C23     1.425   1_556 S
C589   H619    1.082   .     S
C589   N623    1.367   .     A
C589   C718    1.416   1_455 S
C590   H620    1.082   .     S
C590   N624    1.367   .     A
C590   C653    1.416   .     S
C591   O634    1.288   .     A
C591   O635    1.288   .     A
C592   C594    1.455   .     S
C592   O636    1.291   .     A
C592   O637    1.292   .     A
C593   C604    1.385   .     A
C594   C604    1.398   .     A
C594   C603    1.399   .     A
C595   C596    1.397   .     A
C595   H609    1.083   .     S
C596   C21     1.396   1_556 S
C596   S64     1.763   1_556 S
C597   H610    1.079   .     S
C598   C602    1.420   .     A
C599   C603    1.400   .     A
C600   C601    1.384   .     A
C600   C23     1.420   1_556 S
C600   C17     1.399   1_556 S
C601   C602    1.380   .     A
C601   H621    1.085   .     S
C602   H611    1.074   .     S
C603   H608    1.078   .     S
C604   H607    1.083   .     S
Cu605  O632    1.968   .     S
Cu605  O636    1.963   .     S
Cu605  O625    1.963   .     S
Cu605  Cu606   2.674   .     S
Cu605  N623    2.010   .     S
Cu605  O634    1.961   .     S
Cu606  O631    1.961   .     S
Cu606  O635    1.963   .     S
Cu606  N624    2.010   .     S
Cu606  O633    1.963   .     S
Cu606  O637    1.968   .     S
H613   O627    0.991   .     S
H614   O630    0.991   .     S
H622   C17     1.084   1_556 S
O626   S639    1.504   .     D
O627   S639    1.681   .     S
O628   S704    1.502   .     S
O629   S128    1.502   1_556 S
O630   S640    1.681   .     S
O638   S639    1.503   .     D
S640   O756    1.502   1_455 S
S640   O181    1.502   1_455 S
C641   O695    1.294   .     A
C641   C649    1.453   .     S
C641   O689    1.288   .     A
C642   C662    1.434   .     A
C642   C644    1.486   .     S
C642   C659    1.403   .     A
C643   C649    1.403   .     A
C643   H676    1.084   .     S
C643   C837    1.383   .     S
C644   O697    1.281   .     A
C644   O696    1.314   .     A
C645   H679    1.084   .     S
C645   C646    1.395   .     A
C645   C1027   1.383   1_545 S
C646   C647    1.396   .     A
C646   C655    1.443   .     S
C647   H680    1.083   .     S
C647   C1032   1.390   1_545 S
C648   S703    1.776   .     S
C648   C649    1.419   .     A
C648   C839    1.390   .     S
C650   H681    1.082   .     S
C650   N688    1.367   .     A
C650   C715    1.415   .     S
C651   N687    1.367   .     A
C651   H682    1.082   .     S
C652   C662    1.415   .     A
C652   C85     1.413   1_556 S
C652   C87     1.425   1_556 S
C653   H683    1.082   .     S
C653   N687    1.367   .     A
C654   H684    1.082   .     S
C654   N688    1.367   .     A
C654   C717    1.416   .     S
C655   O698    1.288   .     A
C655   O699    1.288   .     A
C656   C658    1.455   .     S
C656   O700    1.291   .     A
C656   O701    1.292   .     A
C657   C668    1.385   .     A
C658   C668    1.398   .     A
C658   C667    1.399   .     A
C659   C660    1.397   .     A
C659   H673    1.083   .     S
C660   C85     1.396   1_556 S
C660   S128    1.763   1_556 S
C661   H674    1.079   .     S
C662   C666    1.420   .     A
C663   C667    1.400   .     A
C664   C665    1.384   .     A
C664   C87     1.420   1_556 S
C664   C81     1.399   1_556 S
C665   C666    1.380   .     A
C665   H685    1.085   .     S
C666   H675    1.074   .     S
C667   H672    1.078   .     S
C668   H671    1.083   .     S
Cu669  O696    1.968   .     S
Cu669  O700    1.963   .     S
Cu669  O689    1.963   .     S
Cu669  Cu670   2.674   .     S
Cu669  N687    2.010   .     S
Cu669  O698    1.961   .     S
Cu670  O695    1.961   .     S
Cu670  O699    1.963   .     S
Cu670  N688    2.010   .     S
Cu670  O697    1.963   .     S
Cu670  O701    1.968   .     S
H677   O691    0.991   .     S
H678   O694    0.991   .     S
H686   C81     1.084   1_556 S
O690   S703    1.504   .     D
O691   S703    1.681   .     S
O692   S768    1.502   .     S
O693   S192    1.502   1_556 S
O694   S704    1.681   .     S
O702   S703    1.503   .     D
C705   O759    1.294   .     A
C705   C713    1.453   .     S
C705   O753    1.288   .     A
C706   C726    1.434   .     A
C706   C708    1.486   .     S
C706   C723    1.403   .     A
C707   C713    1.403   .     A
C707   H740    1.084   .     S
C707   C901    1.383   .     S
C708   O761    1.281   .     A
C708   O760    1.314   .     A
C709   H743    1.084   .     S
C709   C710    1.395   .     A
C709   C1091   1.383   1_545 S
C710   C711    1.396   .     A
C710   C719    1.443   .     S
C711   H744    1.083   .     S
C711   C1096   1.390   1_545 S
C712   S767    1.776   .     S
C712   C713    1.419   .     A
C712   C903    1.390   .     S
C714   H745    1.082   .     S
C714   N752    1.367   .     A
C714   C587    1.415   1_655 S
C715   N751    1.367   .     A
C715   H746    1.082   .     S
C716   C726    1.415   .     A
C716   C149    1.413   1_556 S
C716   C151    1.425   1_556 S
C717   H747    1.082   .     S
C717   N751    1.367   .     A
C718   H748    1.082   .     S
C718   N752    1.367   .     A
C718   C589    1.416   1_655 S
C719   O762    1.288   .     A
C719   O763    1.288   .     A
C720   C722    1.455   .     S
C720   O764    1.291   .     A
C720   O765    1.292   .     A
C721   C732    1.385   .     A
C722   C732    1.398   .     A
C722   C731    1.399   .     A
C723   C724    1.397   .     A
C723   H737    1.083   .     S
C724   C149    1.396   1_556 S
C724   S192    1.763   1_556 S
C725   H738    1.079   .     S
C726   C730    1.420   .     A
C727   C731    1.400   .     A
C728   C729    1.384   .     A
C728   C151    1.420   1_556 S
C728   C145    1.399   1_556 S
C729   C730    1.380   .     A
C729   H749    1.085   .     S
C730   H739    1.074   .     S
C731   H736    1.078   .     S
C732   H735    1.083   .     S
Cu733  O760    1.968   .     S
Cu733  O764    1.963   .     S
Cu733  O753    1.963   .     S
Cu733  Cu734   2.674   .     S
Cu733  N751    2.010   .     S
Cu733  O762    1.961   .     S
Cu734  O759    1.961   .     S
Cu734  O763    1.963   .     S
Cu734  N752    2.010   .     S
Cu734  O761    1.963   .     S
Cu734  O765    1.968   .     S
H741   O755    0.991   .     S
H742   O758    0.991   .     S
H750   C145    1.084   1_556 S
O754   S767    1.504   .     D
O755   S767    1.681   .     S
O756   S640    1.502   1_655 S
O757   S64     1.502   1_656 S
O758   S768    1.681   .     S
O766   S767    1.503   .     D
C769   O823    1.294   .     A
C769   C777    1.453   .     S
C769   O817    1.288   .     A
C770   C790    1.434   .     A
C770   C772    1.486   .     S
C770   C787    1.403   .     A
C771   C777    1.403   .     A
C771   H804    1.084   .     S
C771   C965    1.383   .     S
C772   O825    1.281   .     A
C772   O824    1.314   .     A
C773   H807    1.084   .     S
C773   C774    1.395   .     A
C774   C775    1.396   .     A
C774   C783    1.443   .     S
C775   H808    1.083   .     S
C776   S831    1.776   .     S
C776   C777    1.419   .     A
C776   C967    1.390   .     S
C778   H809    1.082   .     S
C778   N816    1.367   .     A
C778   C843    1.415   .     S
C779   N815    1.367   .     A
C779   H810    1.082   .     S
C779   C906    1.415   1_455 S
C780   C790    1.415   .     A
C780   C213    1.413   1_556 S
C780   C215    1.425   1_556 S
C781   H811    1.082   .     S
C781   N815    1.367   .     A
C781   C910    1.416   1_455 S
C782   H812    1.082   .     S
C782   N816    1.367   .     A
C782   C845    1.416   .     S
C783   O826    1.288   .     A
C783   O827    1.288   .     A
C784   C786    1.455   .     S
C784   O828    1.291   .     A
C784   O829    1.292   .     A
C785   C796    1.385   .     A
C786   C796    1.398   .     A
C786   C795    1.399   .     A
C787   C788    1.397   .     A
C787   H801    1.083   .     S
C788   C213    1.396   1_556 S
C788   S256    1.763   1_556 S
C789   H802    1.079   .     S
C790   C794    1.420   .     A
C791   C795    1.400   .     A
C792   C793    1.384   .     A
C792   C215    1.420   1_556 S
C792   C209    1.399   1_556 S
C793   C794    1.380   .     A
C793   H813    1.085   .     S
C794   H803    1.074   .     S
C795   H800    1.078   .     S
C796   H799    1.083   .     S
Cu797  O824    1.968   .     S
Cu797  O828    1.963   .     S
Cu797  O817    1.963   .     S
Cu797  Cu798   2.674   .     S
Cu797  N815    2.010   .     S
Cu797  O826    1.961   .     S
Cu798  O823    1.961   .     S
Cu798  O827    1.963   .     S
Cu798  N816    2.010   .     S
Cu798  O825    1.963   .     S
Cu798  O829    1.968   .     S
H805   O819    0.991   .     S
H806   O822    0.991   .     S
H814   C209    1.084   1_556 S
O818   S831    1.504   .     D
O819   S831    1.681   .     S
O820   S896    1.502   .     S
O821   S320    1.502   1_556 S
O822   S832    1.681   .     S
O830   S831    1.503   .     D
S832   O948    1.502   1_455 S
S832   O373    1.502   1_455 S
C833   O887    1.294   .     A
C833   C841    1.453   .     S
C833   O881    1.288   .     A
C834   C854    1.434   .     A
C834   C836    1.486   .     S
C834   C851    1.403   .     A
C835   C841    1.403   .     A
C835   H868    1.084   .     S
C835   C1029   1.383   .     S
C836   O889    1.281   .     A
C836   O888    1.314   .     A
C837   H871    1.084   .     S
C837   C838    1.395   .     A
C838   C839    1.396   .     A
C838   C847    1.443   .     S
C839   H872    1.083   .     S
C840   S895    1.776   .     S
C840   C841    1.419   .     A
C840   C1031   1.390   .     S
C842   H873    1.082   .     S
C842   N880    1.367   .     A
C842   C907    1.415   .     S
C843   N879    1.367   .     A
C843   H874    1.082   .     S
C844   C854    1.415   .     A
C844   C277    1.413   1_556 S
C844   C279    1.425   1_556 S
C845   H875    1.082   .     S
C845   N879    1.367   .     A
C846   H876    1.082   .     S
C846   N880    1.367   .     A
C846   C909    1.416   .     S
C847   O890    1.288   .     A
C847   O891    1.288   .     A
C848   C850    1.455   .     S
C848   O892    1.291   .     A
C848   O893    1.292   .     A
C849   C860    1.385   .     A
C850   C860    1.398   .     A
C850   C859    1.399   .     A
C851   C852    1.397   .     A
C851   H865    1.083   .     S
C852   C277    1.396   1_556 S
C852   S320    1.763   1_556 S
C853   H866    1.079   .     S
C854   C858    1.420   .     A
C855   C859    1.400   .     A
C856   C857    1.384   .     A
C856   C279    1.420   1_556 S
C856   C273    1.399   1_556 S
C857   C858    1.380   .     A
C857   H877    1.085   .     S
C858   H867    1.074   .     S
C859   H864    1.078   .     S
C860   H863    1.083   .     S
Cu861  O888    1.968   .     S
Cu861  O892    1.963   .     S
Cu861  O881    1.963   .     S
Cu861  Cu862   2.674   .     S
Cu861  N879    2.010   .     S
Cu861  O890    1.961   .     S
Cu862  O887    1.961   .     S
Cu862  O891    1.963   .     S
Cu862  N880    2.010   .     S
Cu862  O889    1.963   .     S
Cu862  O893    1.968   .     S
H869   O883    0.991   .     S
H870   O886    0.991   .     S
H878   C273    1.084   1_556 S
O882   S895    1.504   .     D
O883   S895    1.681   .     S
O884   S960    1.502   .     S
O885   S384    1.502   1_556 S
O886   S896    1.681   .     S
O894   S895    1.503   .     D
C897   O951    1.294   .     A
C897   C905    1.453   .     S
C897   O945    1.288   .     A
C898   C918    1.434   .     A
C898   C900    1.486   .     S
C898   C915    1.403   .     A
C899   C905    1.403   .     A
C899   H932    1.084   .     S
C899   C1093   1.383   .     S
C900   O953    1.281   .     A
C900   O952    1.314   .     A
C901   H935    1.084   .     S
C901   C902    1.395   .     A
C902   C903    1.396   .     A
C902   C911    1.443   .     S
C903   H936    1.083   .     S
C904   S959    1.776   .     S
C904   C905    1.419   .     A
C904   C1095   1.390   .     S
C906   H937    1.082   .     S
C906   N944    1.367   .     A
C906   C779    1.415   1_655 S
C907   N943    1.367   .     A
C907   H938    1.082   .     S
C908   C918    1.415   .     A
C908   C341    1.413   1_556 S
C908   C343    1.425   1_556 S
C909   H939    1.082   .     S
C909   N943    1.367   .     A
C910   H940    1.082   .     S
C910   N944    1.367   .     A
C910   C781    1.416   1_655 S
C911   O954    1.288   .     A
C911   O955    1.288   .     A
C912   C914    1.455   .     S
C912   O956    1.291   .     A
C912   O957    1.292   .     A
C913   C924    1.385   .     A
C914   C924    1.398   .     A
C914   C923    1.399   .     A
C915   C916    1.397   .     A
C915   H929    1.083   .     S
C916   C341    1.396   1_556 S
C916   S384    1.763   1_556 S
C917   H930    1.079   .     S
C918   C922    1.420   .     A
C919   C923    1.400   .     A
C920   C921    1.384   .     A
C920   C343    1.420   1_556 S
C920   C337    1.399   1_556 S
C921   C922    1.380   .     A
C921   H941    1.085   .     S
C922   H931    1.074   .     S
C923   H928    1.078   .     S
C924   H927    1.083   .     S
Cu925  O952    1.968   .     S
Cu925  O956    1.963   .     S
Cu925  O945    1.963   .     S
Cu925  Cu926   2.674   .     S
Cu925  N943    2.010   .     S
Cu925  O954    1.961   .     S
Cu926  O951    1.961   .     S
Cu926  O955    1.963   .     S
Cu926  N944    2.010   .     S
Cu926  O953    1.963   .     S
Cu926  O957    1.968   .     S
H933   O947    0.991   .     S
H934   O950    0.991   .     S
H942   C337    1.084   1_556 S
O946   S959    1.504   .     D
O947   S959    1.681   .     S
O948   S832    1.502   1_655 S
O949   S256    1.502   1_656 S
O950   S960    1.681   .     S
O958   S959    1.503   .     D
C961   O1015   1.294   .     A
C961   C969    1.453   .     S
C961   O1009   1.288   .     A
C962   C982    1.434   .     A
C962   C964    1.486   .     S
C962   C979    1.403   .     A
C963   C969    1.403   .     A
C963   H996    1.084   .     S
C963   C581    1.383   1_565 S
C964   O1017   1.281   .     A
C964   O1016   1.314   .     A
C965   H999    1.084   .     S
C965   C966    1.395   .     A
C966   C967    1.396   .     A
C966   C975    1.443   .     S
C967   H1000   1.083   .     S
C968   S1023   1.776   .     S
C968   C969    1.419   .     A
C968   C583    1.390   1_565 S
C970   H1001   1.082   .     S
C970   N1008   1.367   .     A
C970   C1035   1.415   .     S
C971   N1007   1.367   .     A
C971   H1002   1.082   .     S
C971   C1098   1.415   1_455 S
C972   C982    1.415   .     A
C972   C405    1.413   1_556 S
C972   C407    1.425   1_556 S
C973   H1003   1.082   .     S
C973   N1007   1.367   .     A
C973   C1102   1.416   1_455 S
C974   H1004   1.082   .     S
C974   N1008   1.367   .     A
C974   C1037   1.416   .     S
C975   O1018   1.288   .     A
C975   O1019   1.288   .     A
C976   C978    1.455   .     S
C976   O1020   1.291   .     A
C976   O1021   1.292   .     A
C977   C988    1.385   .     A
C978   C988    1.398   .     A
C978   C987    1.399   .     A
C979   C980    1.397   .     A
C979   H993    1.083   .     S
C980   C405    1.396   1_556 S
C980   S448    1.763   1_556 S
C981   H994    1.079   .     S
C982   C986    1.420   .     A
C983   C987    1.400   .     A
C984   C985    1.384   .     A
C984   C407    1.420   1_556 S
C984   C401    1.399   1_556 S
C985   C986    1.380   .     A
C985   H1005   1.085   .     S
C986   H995    1.074   .     S
C987   H992    1.078   .     S
C988   H991    1.083   .     S
Cu989  O1016   1.968   .     S
Cu989  O1020   1.963   .     S
Cu989  O1009   1.963   .     S
Cu989  Cu990   2.674   .     S
Cu989  N1007   2.010   .     S
Cu989  O1018   1.961   .     S
Cu990  O1015   1.961   .     S
Cu990  O1019   1.963   .     S
Cu990  N1008   2.010   .     S
Cu990  O1017   1.963   .     S
Cu990  O1021   1.968   .     S
H997   O1011   0.991   .     S
H998   O1014   0.991   .     S
H1006  C401    1.084   1_556 S
O1010  S1023   1.504   .     D
O1011  S1023   1.681   .     S
O1012  S1088   1.502   .     S
O1013  S512    1.502   1_556 S
O1014  S1024   1.681   .     S
O1022  S1023   1.503   .     D
S1024  O1140   1.502   1_455 S
S1024  O565    1.502   1_455 S
C1025  O1079   1.294   .     A
C1025  C1033   1.453   .     S
C1025  O1073   1.288   .     A
C1026  C1046   1.434   .     A
C1026  C1028   1.486   .     S
C1026  C1043   1.403   .     A
C1027  C1033   1.403   .     A
C1027  H1060   1.084   .     S
C1027  C645    1.383   1_565 S
C1028  O1081   1.281   .     A
C1028  O1080   1.314   .     A
C1029  H1063   1.084   .     S
C1029  C1030   1.395   .     A
C1030  C1031   1.396   .     A
C1030  C1039   1.443   .     S
C1031  H1064   1.083   .     S
C1032  S1087   1.776   .     S
C1032  C1033   1.419   .     A
C1032  C647    1.390   1_565 S
C1034  H1065   1.082   .     S
C1034  N1072   1.367   .     A
C1034  C1099   1.415   .     S
C1035  N1071   1.367   .     A
C1035  H1066   1.082   .     S
C1036  C1046   1.415   .     A
C1036  C469    1.413   1_556 S
C1036  C471    1.425   1_556 S
C1037  H1067   1.082   .     S
C1037  N1071   1.367   .     A
C1038  H1068   1.082   .     S
C1038  N1072   1.367   .     A
C1038  C1101   1.416   .     S
C1039  O1082   1.288   .     A
C1039  O1083   1.288   .     A
C1040  C1042   1.455   .     S
C1040  O1084   1.291   .     A
C1040  O1085   1.292   .     A
C1041  C1052   1.385   .     A
C1042  C1052   1.398   .     A
C1042  C1051   1.399   .     A
C1043  C1044   1.397   .     A
C1043  H1057   1.083   .     S
C1044  C469    1.396   1_556 S
C1044  S512    1.763   1_556 S
C1045  H1058   1.079   .     S
C1046  C1050   1.420   .     A
C1047  C1051   1.400   .     A
C1048  C1049   1.384   .     A
C1048  C471    1.420   1_556 S
C1048  C465    1.399   1_556 S
C1049  C1050   1.380   .     A
C1049  H1069   1.085   .     S
C1050  H1059   1.074   .     S
C1051  H1056   1.078   .     S
C1052  H1055   1.083   .     S
Cu1053 O1080   1.968   .     S
Cu1053 O1084   1.963   .     S
Cu1053 O1073   1.963   .     S
Cu1053 Cu1054  2.674   .     S
Cu1053 N1071   2.010   .     S
Cu1053 O1082   1.961   .     S
Cu1054 O1079   1.961   .     S
Cu1054 O1083   1.963   .     S
Cu1054 N1072   2.010   .     S
Cu1054 O1081   1.963   .     S
Cu1054 O1085   1.968   .     S
H1061  O1075   0.991   .     S
H1062  O1078   0.991   .     S
H1070  C465    1.084   1_556 S
O1074  S1087   1.504   .     D
O1075  S1087   1.681   .     S
O1076  S1152   1.502   .     S
O1077  S576    1.502   1_556 S
O1078  S1088   1.681   .     S
O1086  S1087   1.503   .     D
C1089  O1143   1.294   .     A
C1089  C1097   1.453   .     S
C1089  O1137   1.288   .     A
C1090  C1110   1.434   .     A
C1090  C1092   1.486   .     S
C1090  C1107   1.403   .     A
C1091  C1097   1.403   .     A
C1091  H1124   1.084   .     S
C1091  C709    1.383   1_565 S
C1092  O1145   1.281   .     A
C1092  O1144   1.314   .     A
C1093  H1127   1.084   .     S
C1093  C1094   1.395   .     A
C1094  C1095   1.396   .     A
C1094  C1103   1.443   .     S
C1095  H1128   1.083   .     S
C1096  S1151   1.776   .     S
C1096  C1097   1.419   .     A
C1096  C711    1.390   1_565 S
C1098  H1129   1.082   .     S
C1098  N1136   1.367   .     A
C1098  C971    1.415   1_655 S
C1099  N1135   1.367   .     A
C1099  H1130   1.082   .     S
C1100  C1110   1.415   .     A
C1100  C533    1.413   1_556 S
C1100  C535    1.425   1_556 S
C1101  H1131   1.082   .     S
C1101  N1135   1.367   .     A
C1102  H1132   1.082   .     S
C1102  N1136   1.367   .     A
C1102  C973    1.416   1_655 S
C1103  O1146   1.288   .     A
C1103  O1147   1.288   .     A
C1104  C1106   1.455   .     S
C1104  O1148   1.291   .     A
C1104  O1149   1.292   .     A
C1105  C1116   1.385   .     A
C1106  C1116   1.398   .     A
C1106  C1115   1.399   .     A
C1107  C1108   1.397   .     A
C1107  H1121   1.083   .     S
C1108  C533    1.396   1_556 S
C1108  S576    1.763   1_556 S
C1109  H1122   1.079   .     S
C1110  C1114   1.420   .     A
C1111  C1115   1.400   .     A
C1112  C1113   1.384   .     A
C1112  C535    1.420   1_556 S
C1112  C529    1.399   1_556 S
C1113  C1114   1.380   .     A
C1113  H1133   1.085   .     S
C1114  H1123   1.074   .     S
C1115  H1120   1.078   .     S
C1116  H1119   1.083   .     S
Cu1117 O1144   1.968   .     S
Cu1117 O1148   1.963   .     S
Cu1117 O1137   1.963   .     S
Cu1117 Cu1118  2.674   .     S
Cu1117 N1135   2.010   .     S
Cu1117 O1146   1.961   .     S
Cu1118 O1143   1.961   .     S
Cu1118 O1147   1.963   .     S
Cu1118 N1136   2.010   .     S
Cu1118 O1145   1.963   .     S
Cu1118 O1149   1.968   .     S
H1125  O1139   0.991   .     S
H1126  O1142   0.991   .     S
H1134  C529    1.084   1_556 S
O1138  S1151   1.504   .     D
O1139  S1151   1.681   .     S
O1140  S1024   1.502   1_655 S
O1141  S448    1.502   1_656 S
O1142  S1152   1.681   .     S
O1150  S1151   1.503   .     D
