data_str_m2_o1_o18_pcu_sym.31
_audit_creation_date              2020-01-03
_audit_creation_method            'Materials Studio'
_symmetry_space_group_name_H-M    'P1'
_symmetry_Int_Tables_number       1
_symmetry_cell_setting            triclinic
loop_
_symmetry_equiv_pos_as_xyz
  x,y,z
_cell_length_a                    28.7334
_cell_length_b                    32.4331
_cell_length_c                    30.4845
_cell_angle_alpha                 87.6973
_cell_angle_beta                  75.3582
_cell_angle_gamma                 88.9523
loop_
_atom_site_label
_atom_site_type_symbol
_atom_site_fract_x
_atom_site_fract_y
_atom_site_fract_z
_atom_site_U_iso_or_equiv
_atom_site_adp_type
_atom_site_occupancy
O1     O     0.03958   0.10655   0.25000   0.00000  Uiso   1.00
O2     O     0.29375   0.22678   0.25000   0.00000  Uiso   1.00
O3     O     0.29372   0.10654   0.25000   0.00000  Uiso   1.00
O4     O     0.03961   0.22679   0.24999   0.00000  Uiso   1.00
C5     C     0.00019   0.08742   0.25018   0.00000  Uiso   1.00
C6     C     0.33314   0.24592   0.24982   0.00000  Uiso   1.00
O7     O     0.01852   0.16668   0.31491   0.00000  Uiso   1.00
O8     O     0.31481   0.16666   0.18508   0.00000  Uiso   1.00
O9     O     0.27267   0.16667   0.31492   0.00000  Uiso   1.00
O10    O     0.06067   0.16667   0.18508   0.00000  Uiso   1.00
C11    C     0.30656   0.16724   0.33661   0.00000  Uiso   1.00
C12    C     0.02678   0.16609   0.16339   0.00000  Uiso   1.00
Cu13   Cu    0.04689   0.16667   0.25000   0.00000  Uiso   1.00
Cu14   Cu    0.28645   0.16666   0.25000   0.00000  Uiso   1.00
C15    C     0.29238   0.16580   0.38715   0.00000  Uiso   1.00
C16    C     0.04095   0.16754   0.11285   0.00000  Uiso   1.00
C17    C     0.30409   0.14071   0.45975   0.00000  Uiso   1.00
C18    C     0.02924   0.19262   0.04025   0.00000  Uiso   1.00
C19    C     0.32397   0.15426   0.41477   0.00000  Uiso   1.00
C20    C     0.00937   0.17907   0.08523   0.00000  Uiso   1.00
C21    C     0.24367   0.17254   0.40835   0.00000  Uiso   1.00
C22    C     0.08966   0.16079   0.09165   0.00000  Uiso   1.00
C23    C     0.22465   0.16383   0.45499   0.00000  Uiso   1.00
C24    C     0.10869   0.16950   0.04501   0.00000  Uiso   1.00
C25    C     0.25418   0.14211   0.47904   0.00000  Uiso   1.00
C26    C     0.07916   0.19122   0.02096   0.00000  Uiso   1.00
C27    C     0.17648   0.17431   0.47754   0.00000  Uiso   1.00
C28    C     0.15685   0.15902   0.02246   0.00000  Uiso   1.00
C29    C     0.18487   0.13171   0.04269   0.00000  Uiso   1.00
C30    C     0.14846   0.20162   0.45731   0.00000  Uiso   1.00
C31    C     0.23304   0.12293   0.02176   0.00000  Uiso   1.00
C32    C     0.10029   0.21040   0.47824   0.00000  Uiso   1.00
H33    H     0.11313   0.15080   0.11266   0.00000  Uiso   1.00
H34    H     0.22021   0.18253   0.38734   0.00000  Uiso   1.00
H35    H     0.32815   0.13073   0.48031   0.00000  Uiso   1.00
H36    H     0.00518   0.20260   0.01968   0.00000  Uiso   1.00
H37    H     0.16896   0.11515   0.07416   0.00000  Uiso   1.00
H38    H     0.16437   0.21818   0.42585   0.00000  Uiso   1.00
C39    C     0.28977   0.02163   0.26207   0.00000  Uiso   1.00
C40    C     0.04356   0.31171   0.23793   0.00000  Uiso   1.00
H41    H     0.25571   0.03797   0.27182   0.00000  Uiso   1.00
H42    H     0.07763   0.29536   0.22818   0.00000  Uiso   1.00
C43    C     0.28953   0.31231   0.26183   0.00000  Uiso   1.00
C44    C     0.04381   0.02102   0.23817   0.00000  Uiso   1.00
H45    H     0.25545   0.29641   0.27171   0.00000  Uiso   1.00
H46    H     0.07788   0.03692   0.22829   0.00000  Uiso   1.00
C47    C     0.33307   0.29056   0.24969   0.00000  Uiso   1.00
C48    C     0.00027   0.04277   0.25031   0.00000  Uiso   1.00
C49    C     0.18727   0.13517   0.27046   0.00000  Uiso   1.00
C50    C     0.14607   0.19816   0.22954   0.00000  Uiso   1.00
H51    H     0.20254   0.11036   0.28732   0.00000  Uiso   1.00
H52    H     0.13080   0.22298   0.21268   0.00000  Uiso   1.00
C53    C     0.13792   0.13482   0.27085   0.00000  Uiso   1.00
C54    C     0.19541   0.19852   0.22915   0.00000  Uiso   1.00
N55    N     0.11736   0.16668   0.24999   0.00000  Uiso   1.00
N56    N     0.21597   0.16666   0.25001   0.00000  Uiso   1.00
C57    C     0.25786   0.09008   0.04347   0.00000  Uiso   1.00
O58    O     0.29150   0.07039   0.02080   0.00000  Uiso   1.00
O59    O     0.24056   0.07972   0.08967   0.00000  Uiso   1.00
H60    H     0.25976   0.05661   0.10033   0.00000  Uiso   1.00
C61    C     0.07548   0.24325   0.45653   0.00000  Uiso   1.00
O62    O     0.04183   0.26294   0.47920   0.00000  Uiso   1.00
O63    O     0.09278   0.25361   0.41034   0.00000  Uiso   1.00
H64    H     0.07358   0.27673   0.39967   0.00000  Uiso   1.00
C65    C     0.28946   0.17697   0.10058   0.00000  Uiso   1.00
O66    O     0.27008   0.14888   0.12623   0.00000  Uiso   1.00
O67    O     0.26125   0.20582   0.08333   0.00000  Uiso   1.00
H68    H     0.22551   0.20064   0.09541   0.00000  Uiso   1.00
C69    C     0.04387   0.15636   0.39941   0.00000  Uiso   1.00
O70    O     0.06325   0.18446   0.37378   0.00000  Uiso   1.00
O71    O     0.07208   0.12750   0.41665   0.00000  Uiso   1.00
H72    H     0.10782   0.13269   0.40458   0.00000  Uiso   1.00
C73    C     0.11100   0.09854   0.29429   0.00000  Uiso   1.00
O74    O     0.07273   0.10265   0.32227   0.00000  Uiso   1.00
O75    O     0.13143   0.05919   0.28644   0.00000  Uiso   1.00
H76    H     0.11043   0.03671   0.30508   0.00000  Uiso   1.00
C77    C     0.22233   0.23480   0.20571   0.00000  Uiso   1.00
O78    O     0.26061   0.23068   0.17773   0.00000  Uiso   1.00
O79    O     0.20190   0.27415   0.21356   0.00000  Uiso   1.00
H80    H     0.22291   0.29663   0.19491   0.00000  Uiso   1.00
O81    O     0.37291   0.10655   0.25000   0.00000  Uiso   1.00
O82    O     0.62709   0.22678   0.25000   0.00000  Uiso   1.00
O83    O     0.62706   0.10654   0.25000   0.00000  Uiso   1.00
O84    O     0.37294   0.22679   0.24999   0.00000  Uiso   1.00
C85    C     0.33353   0.08742   0.25018   0.00000  Uiso   1.00
C86    C     0.66647   0.24592   0.24982   0.00000  Uiso   1.00
O87    O     0.35186   0.16668   0.31491   0.00000  Uiso   1.00
O88    O     0.64814   0.16666   0.18508   0.00000  Uiso   1.00
O89    O     0.60600   0.16667   0.31492   0.00000  Uiso   1.00
O90    O     0.39400   0.16667   0.18508   0.00000  Uiso   1.00
C91    C     0.63989   0.16724   0.33661   0.00000  Uiso   1.00
C92    C     0.36011   0.16609   0.16339   0.00000  Uiso   1.00
Cu93   Cu    0.38022   0.16667   0.25000   0.00000  Uiso   1.00
Cu94   Cu    0.61978   0.16666   0.25000   0.00000  Uiso   1.00
C95    C     0.62572   0.16580   0.38715   0.00000  Uiso   1.00
C96    C     0.37428   0.16754   0.11285   0.00000  Uiso   1.00
C97    C     0.63743   0.14071   0.45975   0.00000  Uiso   1.00
C98    C     0.36257   0.19262   0.04025   0.00000  Uiso   1.00
C99    C     0.65730   0.15426   0.41477   0.00000  Uiso   1.00
C100   C     0.34270   0.17907   0.08523   0.00000  Uiso   1.00
C101   C     0.57701   0.17254   0.40835   0.00000  Uiso   1.00
C102   C     0.42299   0.16079   0.09165   0.00000  Uiso   1.00
C103   C     0.55798   0.16383   0.45499   0.00000  Uiso   1.00
C104   C     0.44202   0.16950   0.04501   0.00000  Uiso   1.00
C105   C     0.58751   0.14211   0.47904   0.00000  Uiso   1.00
C106   C     0.41249   0.19122   0.02096   0.00000  Uiso   1.00
C107   C     0.50982   0.17431   0.47754   0.00000  Uiso   1.00
C108   C     0.49018   0.15902   0.02246   0.00000  Uiso   1.00
C109   C     0.51821   0.13171   0.04269   0.00000  Uiso   1.00
C110   C     0.48179   0.20162   0.45731   0.00000  Uiso   1.00
C111   C     0.56637   0.12293   0.02176   0.00000  Uiso   1.00
C112   C     0.43363   0.21040   0.47824   0.00000  Uiso   1.00
H113   H     0.44646   0.15080   0.11266   0.00000  Uiso   1.00
H114   H     0.55354   0.18253   0.38734   0.00000  Uiso   1.00
H115   H     0.66149   0.13073   0.48031   0.00000  Uiso   1.00
H116   H     0.33851   0.20260   0.01968   0.00000  Uiso   1.00
H117   H     0.50230   0.11515   0.07416   0.00000  Uiso   1.00
H118   H     0.49770   0.21818   0.42585   0.00000  Uiso   1.00
C119   C     0.62310   0.02163   0.26207   0.00000  Uiso   1.00
C120   C     0.37690   0.31171   0.23793   0.00000  Uiso   1.00
H121   H     0.58904   0.03797   0.27182   0.00000  Uiso   1.00
H122   H     0.41096   0.29536   0.22818   0.00000  Uiso   1.00
C123   C     0.62286   0.31231   0.26183   0.00000  Uiso   1.00
C124   C     0.37714   0.02102   0.23817   0.00000  Uiso   1.00
H125   H     0.58878   0.29641   0.27171   0.00000  Uiso   1.00
H126   H     0.41122   0.03692   0.22829   0.00000  Uiso   1.00
C127   C     0.66640   0.29056   0.24969   0.00000  Uiso   1.00
C128   C     0.33360   0.04277   0.25031   0.00000  Uiso   1.00
C129   C     0.52060   0.13517   0.27046   0.00000  Uiso   1.00
C130   C     0.47940   0.19816   0.22954   0.00000  Uiso   1.00
H131   H     0.53587   0.11036   0.28732   0.00000  Uiso   1.00
H132   H     0.46413   0.22298   0.21268   0.00000  Uiso   1.00
C133   C     0.47126   0.13482   0.27085   0.00000  Uiso   1.00
C134   C     0.52874   0.19852   0.22915   0.00000  Uiso   1.00
N135   N     0.45069   0.16668   0.24999   0.00000  Uiso   1.00
N136   N     0.54931   0.16666   0.25001   0.00000  Uiso   1.00
C137   C     0.59119   0.09008   0.04347   0.00000  Uiso   1.00
O138   O     0.62483   0.07039   0.02080   0.00000  Uiso   1.00
O139   O     0.57389   0.07972   0.08967   0.00000  Uiso   1.00
H140   H     0.59309   0.05661   0.10033   0.00000  Uiso   1.00
C141   C     0.40881   0.24325   0.45653   0.00000  Uiso   1.00
O142   O     0.37517   0.26294   0.47920   0.00000  Uiso   1.00
O143   O     0.42611   0.25361   0.41034   0.00000  Uiso   1.00
H144   H     0.40691   0.27673   0.39967   0.00000  Uiso   1.00
C145   C     0.62280   0.17697   0.10058   0.00000  Uiso   1.00
O146   O     0.60341   0.14888   0.12623   0.00000  Uiso   1.00
O147   O     0.59459   0.20582   0.08333   0.00000  Uiso   1.00
H148   H     0.55885   0.20064   0.09541   0.00000  Uiso   1.00
C149   C     0.37720   0.15636   0.39941   0.00000  Uiso   1.00
O150   O     0.39658   0.18446   0.37378   0.00000  Uiso   1.00
O151   O     0.40541   0.12750   0.41665   0.00000  Uiso   1.00
H152   H     0.44115   0.13269   0.40458   0.00000  Uiso   1.00
C153   C     0.44434   0.09854   0.29429   0.00000  Uiso   1.00
O154   O     0.40606   0.10265   0.32227   0.00000  Uiso   1.00
O155   O     0.46476   0.05919   0.28644   0.00000  Uiso   1.00
H156   H     0.44376   0.03671   0.30508   0.00000  Uiso   1.00
C157   C     0.55566   0.23480   0.20571   0.00000  Uiso   1.00
O158   O     0.59394   0.23068   0.17773   0.00000  Uiso   1.00
O159   O     0.53524   0.27415   0.21356   0.00000  Uiso   1.00
H160   H     0.55624   0.29663   0.19491   0.00000  Uiso   1.00
O161   O     0.70625   0.10655   0.25000   0.00000  Uiso   1.00
O162   O     0.96042   0.22678   0.25000   0.00000  Uiso   1.00
O163   O     0.96039   0.10654   0.25000   0.00000  Uiso   1.00
O164   O     0.70628   0.22679   0.24999   0.00000  Uiso   1.00
C165   C     0.66686   0.08742   0.25018   0.00000  Uiso   1.00
C166   C     0.99981   0.24592   0.24982   0.00000  Uiso   1.00
O167   O     0.68519   0.16668   0.31491   0.00000  Uiso   1.00
O168   O     0.98148   0.16666   0.18508   0.00000  Uiso   1.00
O169   O     0.93933   0.16667   0.31492   0.00000  Uiso   1.00
O170   O     0.72733   0.16667   0.18508   0.00000  Uiso   1.00
C171   C     0.97322   0.16724   0.33661   0.00000  Uiso   1.00
C172   C     0.69344   0.16609   0.16339   0.00000  Uiso   1.00
Cu173  Cu    0.71355   0.16667   0.25000   0.00000  Uiso   1.00
Cu174  Cu    0.95311   0.16666   0.25000   0.00000  Uiso   1.00
C175   C     0.95905   0.16580   0.38715   0.00000  Uiso   1.00
C176   C     0.70762   0.16754   0.11285   0.00000  Uiso   1.00
C177   C     0.97076   0.14071   0.45975   0.00000  Uiso   1.00
C178   C     0.69591   0.19262   0.04025   0.00000  Uiso   1.00
C179   C     0.99063   0.15426   0.41477   0.00000  Uiso   1.00
C180   C     0.67603   0.17907   0.08523   0.00000  Uiso   1.00
C181   C     0.91034   0.17254   0.40835   0.00000  Uiso   1.00
C182   C     0.75633   0.16079   0.09165   0.00000  Uiso   1.00
C183   C     0.89131   0.16383   0.45499   0.00000  Uiso   1.00
C184   C     0.77535   0.16950   0.04501   0.00000  Uiso   1.00
C185   C     0.92084   0.14211   0.47904   0.00000  Uiso   1.00
C186   C     0.74582   0.19122   0.02096   0.00000  Uiso   1.00
C187   C     0.84315   0.17431   0.47754   0.00000  Uiso   1.00
C188   C     0.82352   0.15902   0.02246   0.00000  Uiso   1.00
C189   C     0.85154   0.13171   0.04269   0.00000  Uiso   1.00
C190   C     0.81513   0.20162   0.45731   0.00000  Uiso   1.00
C191   C     0.89971   0.12293   0.02176   0.00000  Uiso   1.00
C192   C     0.76696   0.21040   0.47824   0.00000  Uiso   1.00
H193   H     0.77979   0.15080   0.11266   0.00000  Uiso   1.00
H194   H     0.88687   0.18253   0.38734   0.00000  Uiso   1.00
H195   H     0.99482   0.13073   0.48031   0.00000  Uiso   1.00
H196   H     0.67185   0.20260   0.01968   0.00000  Uiso   1.00
H197   H     0.83563   0.11515   0.07416   0.00000  Uiso   1.00
H198   H     0.83104   0.21818   0.42585   0.00000  Uiso   1.00
C199   C     0.95644   0.02163   0.26207   0.00000  Uiso   1.00
C200   C     0.71023   0.31171   0.23793   0.00000  Uiso   1.00
H201   H     0.92237   0.03797   0.27182   0.00000  Uiso   1.00
H202   H     0.74429   0.29536   0.22818   0.00000  Uiso   1.00
C203   C     0.95620   0.31231   0.26183   0.00000  Uiso   1.00
C204   C     0.71047   0.02102   0.23817   0.00000  Uiso   1.00
H205   H     0.92212   0.29641   0.27171   0.00000  Uiso   1.00
H206   H     0.74455   0.03692   0.22829   0.00000  Uiso   1.00
C207   C     0.99973   0.29056   0.24969   0.00000  Uiso   1.00
C208   C     0.66693   0.04277   0.25031   0.00000  Uiso   1.00
C209   C     0.85393   0.13517   0.27046   0.00000  Uiso   1.00
C210   C     0.81273   0.19816   0.22954   0.00000  Uiso   1.00
H211   H     0.86920   0.11036   0.28732   0.00000  Uiso   1.00
H212   H     0.79746   0.22298   0.21268   0.00000  Uiso   1.00
C213   C     0.80459   0.13482   0.27085   0.00000  Uiso   1.00
C214   C     0.86208   0.19852   0.22915   0.00000  Uiso   1.00
N215   N     0.78403   0.16668   0.24999   0.00000  Uiso   1.00
N216   N     0.88264   0.16666   0.25001   0.00000  Uiso   1.00
C217   C     0.92452   0.09008   0.04347   0.00000  Uiso   1.00
O218   O     0.95816   0.07039   0.02080   0.00000  Uiso   1.00
O219   O     0.90722   0.07972   0.08967   0.00000  Uiso   1.00
H220   H     0.92643   0.05661   0.10033   0.00000  Uiso   1.00
C221   C     0.74214   0.24325   0.45653   0.00000  Uiso   1.00
O222   O     0.70850   0.26294   0.47920   0.00000  Uiso   1.00
O223   O     0.75944   0.25361   0.41034   0.00000  Uiso   1.00
H224   H     0.74024   0.27673   0.39967   0.00000  Uiso   1.00
C225   C     0.95613   0.17697   0.10058   0.00000  Uiso   1.00
O226   O     0.93675   0.14888   0.12623   0.00000  Uiso   1.00
O227   O     0.92792   0.20582   0.08333   0.00000  Uiso   1.00
H228   H     0.89218   0.20064   0.09541   0.00000  Uiso   1.00
C229   C     0.71053   0.15636   0.39941   0.00000  Uiso   1.00
O230   O     0.72992   0.18446   0.37378   0.00000  Uiso   1.00
O231   O     0.73875   0.12750   0.41665   0.00000  Uiso   1.00
H232   H     0.77448   0.13269   0.40458   0.00000  Uiso   1.00
C233   C     0.77767   0.09854   0.29429   0.00000  Uiso   1.00
O234   O     0.73939   0.10265   0.32227   0.00000  Uiso   1.00
O235   O     0.79810   0.05919   0.28644   0.00000  Uiso   1.00
H236   H     0.77710   0.03671   0.30508   0.00000  Uiso   1.00
C237   C     0.88900   0.23480   0.20571   0.00000  Uiso   1.00
O238   O     0.92727   0.23068   0.17773   0.00000  Uiso   1.00
O239   O     0.86857   0.27415   0.21356   0.00000  Uiso   1.00
H240   H     0.88957   0.29663   0.19491   0.00000  Uiso   1.00
O241   O     0.03958   0.43989   0.25000   0.00000  Uiso   1.00
O242   O     0.29375   0.56011   0.25000   0.00000  Uiso   1.00
O243   O     0.29372   0.43988   0.25000   0.00000  Uiso   1.00
O244   O     0.03961   0.56012   0.24999   0.00000  Uiso   1.00
C245   C     0.00019   0.42075   0.25018   0.00000  Uiso   1.00
C246   C     0.33314   0.57925   0.24982   0.00000  Uiso   1.00
O247   O     0.01852   0.50001   0.31491   0.00000  Uiso   1.00
O248   O     0.31481   0.49999   0.18508   0.00000  Uiso   1.00
O249   O     0.27267   0.50000   0.31492   0.00000  Uiso   1.00
O250   O     0.06067   0.50000   0.18508   0.00000  Uiso   1.00
C251   C     0.30656   0.50058   0.33661   0.00000  Uiso   1.00
C252   C     0.02678   0.49942   0.16339   0.00000  Uiso   1.00
Cu253  Cu    0.04689   0.50001   0.25000   0.00000  Uiso   1.00
Cu254  Cu    0.28645   0.49999   0.25000   0.00000  Uiso   1.00
C255   C     0.29238   0.49913   0.38715   0.00000  Uiso   1.00
C256   C     0.04095   0.50087   0.11285   0.00000  Uiso   1.00
C257   C     0.30409   0.47404   0.45975   0.00000  Uiso   1.00
C258   C     0.02924   0.52596   0.04025   0.00000  Uiso   1.00
C259   C     0.32397   0.48759   0.41477   0.00000  Uiso   1.00
C260   C     0.00937   0.51240   0.08523   0.00000  Uiso   1.00
C261   C     0.24367   0.50588   0.40835   0.00000  Uiso   1.00
C262   C     0.08966   0.49412   0.09165   0.00000  Uiso   1.00
C263   C     0.22465   0.49716   0.45499   0.00000  Uiso   1.00
C264   C     0.10869   0.50283   0.04501   0.00000  Uiso   1.00
C265   C     0.25418   0.47544   0.47904   0.00000  Uiso   1.00
C266   C     0.07916   0.52456   0.02096   0.00000  Uiso   1.00
C267   C     0.17648   0.50764   0.47754   0.00000  Uiso   1.00
C268   C     0.15685   0.49235   0.02246   0.00000  Uiso   1.00
C269   C     0.18487   0.46504   0.04269   0.00000  Uiso   1.00
C270   C     0.14846   0.53496   0.45731   0.00000  Uiso   1.00
C271   C     0.23304   0.45626   0.02176   0.00000  Uiso   1.00
C272   C     0.10029   0.54374   0.47824   0.00000  Uiso   1.00
H273   H     0.11313   0.48414   0.11266   0.00000  Uiso   1.00
H274   H     0.22021   0.51586   0.38734   0.00000  Uiso   1.00
H275   H     0.32815   0.46406   0.48031   0.00000  Uiso   1.00
H276   H     0.00518   0.53593   0.01968   0.00000  Uiso   1.00
H277   H     0.16896   0.44849   0.07416   0.00000  Uiso   1.00
H278   H     0.16437   0.55151   0.42585   0.00000  Uiso   1.00
C279   C     0.28977   0.35496   0.26207   0.00000  Uiso   1.00
C280   C     0.04356   0.64504   0.23793   0.00000  Uiso   1.00
H281   H     0.25571   0.37131   0.27182   0.00000  Uiso   1.00
H282   H     0.07763   0.62869   0.22818   0.00000  Uiso   1.00
C283   C     0.28953   0.64565   0.26183   0.00000  Uiso   1.00
C284   C     0.04381   0.35435   0.23817   0.00000  Uiso   1.00
H285   H     0.25545   0.62975   0.27171   0.00000  Uiso   1.00
H286   H     0.07788   0.37025   0.22829   0.00000  Uiso   1.00
C287   C     0.33307   0.62390   0.24969   0.00000  Uiso   1.00
C288   C     0.00027   0.37610   0.25031   0.00000  Uiso   1.00
C289   C     0.18727   0.46850   0.27046   0.00000  Uiso   1.00
C290   C     0.14607   0.53150   0.22954   0.00000  Uiso   1.00
H291   H     0.20254   0.44369   0.28732   0.00000  Uiso   1.00
H292   H     0.13080   0.55631   0.21268   0.00000  Uiso   1.00
C293   C     0.13792   0.46815   0.27085   0.00000  Uiso   1.00
C294   C     0.19541   0.53185   0.22915   0.00000  Uiso   1.00
N295   N     0.11736   0.50001   0.24999   0.00000  Uiso   1.00
N296   N     0.21597   0.49999   0.25001   0.00000  Uiso   1.00
C297   C     0.25786   0.42342   0.04347   0.00000  Uiso   1.00
O298   O     0.29150   0.40372   0.02080   0.00000  Uiso   1.00
O299   O     0.24056   0.41306   0.08967   0.00000  Uiso   1.00
H300   H     0.25976   0.38994   0.10033   0.00000  Uiso   1.00
C301   C     0.07548   0.57658   0.45653   0.00000  Uiso   1.00
O302   O     0.04183   0.59628   0.47920   0.00000  Uiso   1.00
O303   O     0.09278   0.58695   0.41034   0.00000  Uiso   1.00
H304   H     0.07358   0.61006   0.39967   0.00000  Uiso   1.00
C305   C     0.28946   0.51030   0.10058   0.00000  Uiso   1.00
O306   O     0.27008   0.48221   0.12623   0.00000  Uiso   1.00
O307   O     0.26125   0.53916   0.08333   0.00000  Uiso   1.00
H308   H     0.22551   0.53397   0.09541   0.00000  Uiso   1.00
C309   C     0.04387   0.48970   0.39941   0.00000  Uiso   1.00
O310   O     0.06325   0.51779   0.37378   0.00000  Uiso   1.00
O311   O     0.07208   0.46083   0.41665   0.00000  Uiso   1.00
H312   H     0.10782   0.46602   0.40458   0.00000  Uiso   1.00
C313   C     0.11100   0.43187   0.29429   0.00000  Uiso   1.00
O314   O     0.07273   0.43598   0.32227   0.00000  Uiso   1.00
O315   O     0.13143   0.39252   0.28644   0.00000  Uiso   1.00
H316   H     0.11043   0.37004   0.30508   0.00000  Uiso   1.00
C317   C     0.22233   0.56813   0.20571   0.00000  Uiso   1.00
O318   O     0.26061   0.56402   0.17773   0.00000  Uiso   1.00
O319   O     0.20190   0.60748   0.21356   0.00000  Uiso   1.00
H320   H     0.22291   0.62996   0.19491   0.00000  Uiso   1.00
O321   O     0.37291   0.43989   0.25000   0.00000  Uiso   1.00
O322   O     0.62709   0.56011   0.25000   0.00000  Uiso   1.00
O323   O     0.62706   0.43988   0.25000   0.00000  Uiso   1.00
O324   O     0.37294   0.56012   0.24999   0.00000  Uiso   1.00
C325   C     0.33353   0.42075   0.25018   0.00000  Uiso   1.00
C326   C     0.66647   0.57925   0.24982   0.00000  Uiso   1.00
O327   O     0.35186   0.50001   0.31491   0.00000  Uiso   1.00
O328   O     0.64814   0.49999   0.18508   0.00000  Uiso   1.00
O329   O     0.60600   0.50000   0.31492   0.00000  Uiso   1.00
O330   O     0.39400   0.50000   0.18508   0.00000  Uiso   1.00
C331   C     0.63989   0.50058   0.33661   0.00000  Uiso   1.00
C332   C     0.36011   0.49942   0.16339   0.00000  Uiso   1.00
Cu333  Cu    0.38022   0.50001   0.25000   0.00000  Uiso   1.00
Cu334  Cu    0.61978   0.49999   0.25000   0.00000  Uiso   1.00
C335   C     0.62572   0.49913   0.38715   0.00000  Uiso   1.00
C336   C     0.37428   0.50087   0.11285   0.00000  Uiso   1.00
C337   C     0.63743   0.47404   0.45975   0.00000  Uiso   1.00
C338   C     0.36257   0.52596   0.04025   0.00000  Uiso   1.00
C339   C     0.65730   0.48759   0.41477   0.00000  Uiso   1.00
C340   C     0.34270   0.51240   0.08523   0.00000  Uiso   1.00
C341   C     0.57701   0.50588   0.40835   0.00000  Uiso   1.00
C342   C     0.42299   0.49412   0.09165   0.00000  Uiso   1.00
C343   C     0.55798   0.49716   0.45499   0.00000  Uiso   1.00
C344   C     0.44202   0.50283   0.04501   0.00000  Uiso   1.00
C345   C     0.58751   0.47544   0.47904   0.00000  Uiso   1.00
C346   C     0.41249   0.52456   0.02096   0.00000  Uiso   1.00
C347   C     0.50982   0.50764   0.47754   0.00000  Uiso   1.00
C348   C     0.49018   0.49235   0.02246   0.00000  Uiso   1.00
C349   C     0.51821   0.46504   0.04269   0.00000  Uiso   1.00
C350   C     0.48179   0.53496   0.45731   0.00000  Uiso   1.00
C351   C     0.56637   0.45626   0.02176   0.00000  Uiso   1.00
C352   C     0.43363   0.54374   0.47824   0.00000  Uiso   1.00
H353   H     0.44646   0.48414   0.11266   0.00000  Uiso   1.00
H354   H     0.55354   0.51586   0.38734   0.00000  Uiso   1.00
H355   H     0.66149   0.46406   0.48031   0.00000  Uiso   1.00
H356   H     0.33851   0.53593   0.01968   0.00000  Uiso   1.00
H357   H     0.50230   0.44849   0.07416   0.00000  Uiso   1.00
H358   H     0.49770   0.55151   0.42585   0.00000  Uiso   1.00
C359   C     0.62310   0.35496   0.26207   0.00000  Uiso   1.00
C360   C     0.37690   0.64504   0.23793   0.00000  Uiso   1.00
H361   H     0.58904   0.37131   0.27182   0.00000  Uiso   1.00
H362   H     0.41096   0.62869   0.22818   0.00000  Uiso   1.00
C363   C     0.62286   0.64565   0.26183   0.00000  Uiso   1.00
C364   C     0.37714   0.35435   0.23817   0.00000  Uiso   1.00
H365   H     0.58878   0.62975   0.27171   0.00000  Uiso   1.00
H366   H     0.41122   0.37025   0.22829   0.00000  Uiso   1.00
C367   C     0.66640   0.62390   0.24969   0.00000  Uiso   1.00
C368   C     0.33360   0.37610   0.25031   0.00000  Uiso   1.00
C369   C     0.52060   0.46850   0.27046   0.00000  Uiso   1.00
C370   C     0.47940   0.53150   0.22954   0.00000  Uiso   1.00
H371   H     0.53587   0.44369   0.28732   0.00000  Uiso   1.00
H372   H     0.46413   0.55631   0.21268   0.00000  Uiso   1.00
C373   C     0.47126   0.46815   0.27085   0.00000  Uiso   1.00
C374   C     0.52874   0.53185   0.22915   0.00000  Uiso   1.00
N375   N     0.45069   0.50001   0.24999   0.00000  Uiso   1.00
N376   N     0.54931   0.49999   0.25001   0.00000  Uiso   1.00
C377   C     0.59119   0.42342   0.04347   0.00000  Uiso   1.00
O378   O     0.62483   0.40372   0.02080   0.00000  Uiso   1.00
O379   O     0.57389   0.41306   0.08967   0.00000  Uiso   1.00
H380   H     0.59309   0.38994   0.10033   0.00000  Uiso   1.00
C381   C     0.40881   0.57658   0.45653   0.00000  Uiso   1.00
O382   O     0.37517   0.59628   0.47920   0.00000  Uiso   1.00
O383   O     0.42611   0.58695   0.41034   0.00000  Uiso   1.00
H384   H     0.40691   0.61006   0.39967   0.00000  Uiso   1.00
C385   C     0.62280   0.51030   0.10058   0.00000  Uiso   1.00
O386   O     0.60341   0.48221   0.12623   0.00000  Uiso   1.00
O387   O     0.59459   0.53916   0.08333   0.00000  Uiso   1.00
H388   H     0.55885   0.53397   0.09541   0.00000  Uiso   1.00
C389   C     0.37720   0.48970   0.39941   0.00000  Uiso   1.00
O390   O     0.39658   0.51779   0.37378   0.00000  Uiso   1.00
O391   O     0.40541   0.46083   0.41665   0.00000  Uiso   1.00
H392   H     0.44115   0.46602   0.40458   0.00000  Uiso   1.00
C393   C     0.44434   0.43187   0.29429   0.00000  Uiso   1.00
O394   O     0.40606   0.43598   0.32227   0.00000  Uiso   1.00
O395   O     0.46476   0.39252   0.28644   0.00000  Uiso   1.00
H396   H     0.44376   0.37004   0.30508   0.00000  Uiso   1.00
C397   C     0.55566   0.56813   0.20571   0.00000  Uiso   1.00
O398   O     0.59394   0.56402   0.17773   0.00000  Uiso   1.00
O399   O     0.53524   0.60748   0.21356   0.00000  Uiso   1.00
H400   H     0.55624   0.62996   0.19491   0.00000  Uiso   1.00
O401   O     0.70625   0.43989   0.25000   0.00000  Uiso   1.00
O402   O     0.96042   0.56011   0.25000   0.00000  Uiso   1.00
O403   O     0.96039   0.43988   0.25000   0.00000  Uiso   1.00
O404   O     0.70628   0.56012   0.24999   0.00000  Uiso   1.00
C405   C     0.66686   0.42075   0.25018   0.00000  Uiso   1.00
C406   C     0.99981   0.57925   0.24982   0.00000  Uiso   1.00
O407   O     0.68519   0.50001   0.31491   0.00000  Uiso   1.00
O408   O     0.98148   0.49999   0.18508   0.00000  Uiso   1.00
O409   O     0.93933   0.50000   0.31492   0.00000  Uiso   1.00
O410   O     0.72733   0.50000   0.18508   0.00000  Uiso   1.00
C411   C     0.97322   0.50058   0.33661   0.00000  Uiso   1.00
C412   C     0.69344   0.49942   0.16339   0.00000  Uiso   1.00
Cu413  Cu    0.71355   0.50001   0.25000   0.00000  Uiso   1.00
Cu414  Cu    0.95311   0.49999   0.25000   0.00000  Uiso   1.00
C415   C     0.95905   0.49913   0.38715   0.00000  Uiso   1.00
C416   C     0.70762   0.50087   0.11285   0.00000  Uiso   1.00
C417   C     0.97076   0.47404   0.45975   0.00000  Uiso   1.00
C418   C     0.69591   0.52596   0.04025   0.00000  Uiso   1.00
C419   C     0.99063   0.48759   0.41477   0.00000  Uiso   1.00
C420   C     0.67603   0.51240   0.08523   0.00000  Uiso   1.00
C421   C     0.91034   0.50588   0.40835   0.00000  Uiso   1.00
C422   C     0.75633   0.49412   0.09165   0.00000  Uiso   1.00
C423   C     0.89131   0.49716   0.45499   0.00000  Uiso   1.00
C424   C     0.77535   0.50283   0.04501   0.00000  Uiso   1.00
C425   C     0.92084   0.47544   0.47904   0.00000  Uiso   1.00
C426   C     0.74582   0.52456   0.02096   0.00000  Uiso   1.00
C427   C     0.84315   0.50764   0.47754   0.00000  Uiso   1.00
C428   C     0.82352   0.49235   0.02246   0.00000  Uiso   1.00
C429   C     0.85154   0.46504   0.04269   0.00000  Uiso   1.00
C430   C     0.81513   0.53496   0.45731   0.00000  Uiso   1.00
C431   C     0.89971   0.45626   0.02176   0.00000  Uiso   1.00
C432   C     0.76696   0.54374   0.47824   0.00000  Uiso   1.00
H433   H     0.77979   0.48414   0.11266   0.00000  Uiso   1.00
H434   H     0.88687   0.51586   0.38734   0.00000  Uiso   1.00
H435   H     0.99482   0.46406   0.48031   0.00000  Uiso   1.00
H436   H     0.67185   0.53593   0.01968   0.00000  Uiso   1.00
H437   H     0.83563   0.44849   0.07416   0.00000  Uiso   1.00
H438   H     0.83104   0.55151   0.42585   0.00000  Uiso   1.00
C439   C     0.95644   0.35496   0.26207   0.00000  Uiso   1.00
C440   C     0.71023   0.64504   0.23793   0.00000  Uiso   1.00
H441   H     0.92237   0.37131   0.27182   0.00000  Uiso   1.00
H442   H     0.74429   0.62869   0.22818   0.00000  Uiso   1.00
C443   C     0.95620   0.64565   0.26183   0.00000  Uiso   1.00
C444   C     0.71047   0.35435   0.23817   0.00000  Uiso   1.00
H445   H     0.92212   0.62975   0.27171   0.00000  Uiso   1.00
H446   H     0.74455   0.37025   0.22829   0.00000  Uiso   1.00
C447   C     0.99973   0.62390   0.24969   0.00000  Uiso   1.00
C448   C     0.66693   0.37610   0.25031   0.00000  Uiso   1.00
C449   C     0.85393   0.46850   0.27046   0.00000  Uiso   1.00
C450   C     0.81273   0.53150   0.22954   0.00000  Uiso   1.00
H451   H     0.86920   0.44369   0.28732   0.00000  Uiso   1.00
H452   H     0.79746   0.55631   0.21268   0.00000  Uiso   1.00
C453   C     0.80459   0.46815   0.27085   0.00000  Uiso   1.00
C454   C     0.86208   0.53185   0.22915   0.00000  Uiso   1.00
N455   N     0.78403   0.50001   0.24999   0.00000  Uiso   1.00
N456   N     0.88264   0.49999   0.25001   0.00000  Uiso   1.00
C457   C     0.92452   0.42342   0.04347   0.00000  Uiso   1.00
O458   O     0.95816   0.40372   0.02080   0.00000  Uiso   1.00
O459   O     0.90722   0.41306   0.08967   0.00000  Uiso   1.00
H460   H     0.92643   0.38994   0.10033   0.00000  Uiso   1.00
C461   C     0.74214   0.57658   0.45653   0.00000  Uiso   1.00
O462   O     0.70850   0.59628   0.47920   0.00000  Uiso   1.00
O463   O     0.75944   0.58695   0.41034   0.00000  Uiso   1.00
H464   H     0.74024   0.61006   0.39967   0.00000  Uiso   1.00
C465   C     0.95613   0.51030   0.10058   0.00000  Uiso   1.00
O466   O     0.93675   0.48221   0.12623   0.00000  Uiso   1.00
O467   O     0.92792   0.53916   0.08333   0.00000  Uiso   1.00
H468   H     0.89218   0.53397   0.09541   0.00000  Uiso   1.00
C469   C     0.71053   0.48970   0.39941   0.00000  Uiso   1.00
O470   O     0.72992   0.51779   0.37378   0.00000  Uiso   1.00
O471   O     0.73875   0.46083   0.41665   0.00000  Uiso   1.00
H472   H     0.77448   0.46602   0.40458   0.00000  Uiso   1.00
C473   C     0.77767   0.43187   0.29429   0.00000  Uiso   1.00
O474   O     0.73939   0.43598   0.32227   0.00000  Uiso   1.00
O475   O     0.79810   0.39252   0.28644   0.00000  Uiso   1.00
H476   H     0.77710   0.37004   0.30508   0.00000  Uiso   1.00
C477   C     0.88900   0.56813   0.20571   0.00000  Uiso   1.00
O478   O     0.92727   0.56402   0.17773   0.00000  Uiso   1.00
O479   O     0.86857   0.60748   0.21356   0.00000  Uiso   1.00
H480   H     0.88957   0.62996   0.19491   0.00000  Uiso   1.00
O481   O     0.03958   0.77322   0.25000   0.00000  Uiso   1.00
O482   O     0.29375   0.89345   0.25000   0.00000  Uiso   1.00
O483   O     0.29372   0.77321   0.25000   0.00000  Uiso   1.00
O484   O     0.03961   0.89346   0.24999   0.00000  Uiso   1.00
C485   C     0.00019   0.75408   0.25018   0.00000  Uiso   1.00
C486   C     0.33314   0.91258   0.24982   0.00000  Uiso   1.00
O487   O     0.01852   0.83334   0.31491   0.00000  Uiso   1.00
O488   O     0.31481   0.83332   0.18508   0.00000  Uiso   1.00
O489   O     0.27267   0.83333   0.31492   0.00000  Uiso   1.00
O490   O     0.06067   0.83333   0.18508   0.00000  Uiso   1.00
C491   C     0.30656   0.83391   0.33661   0.00000  Uiso   1.00
C492   C     0.02678   0.83276   0.16339   0.00000  Uiso   1.00
Cu493  Cu    0.04689   0.83334   0.25000   0.00000  Uiso   1.00
Cu494  Cu    0.28645   0.83333   0.25000   0.00000  Uiso   1.00
C495   C     0.29238   0.83246   0.38715   0.00000  Uiso   1.00
C496   C     0.04095   0.83420   0.11285   0.00000  Uiso   1.00
C497   C     0.30409   0.80737   0.45975   0.00000  Uiso   1.00
C498   C     0.02924   0.85929   0.04025   0.00000  Uiso   1.00
C499   C     0.32397   0.82093   0.41477   0.00000  Uiso   1.00
C500   C     0.00937   0.84574   0.08523   0.00000  Uiso   1.00
C501   C     0.24367   0.83921   0.40835   0.00000  Uiso   1.00
C502   C     0.08966   0.82745   0.09165   0.00000  Uiso   1.00
C503   C     0.22465   0.83050   0.45499   0.00000  Uiso   1.00
C504   C     0.10869   0.83617   0.04501   0.00000  Uiso   1.00
C505   C     0.25418   0.80877   0.47904   0.00000  Uiso   1.00
C506   C     0.07916   0.85789   0.02096   0.00000  Uiso   1.00
C507   C     0.17648   0.84098   0.47754   0.00000  Uiso   1.00
C508   C     0.15685   0.82569   0.02246   0.00000  Uiso   1.00
C509   C     0.18487   0.79837   0.04269   0.00000  Uiso   1.00
C510   C     0.14846   0.86829   0.45731   0.00000  Uiso   1.00
C511   C     0.23304   0.78959   0.02176   0.00000  Uiso   1.00
C512   C     0.10029   0.87707   0.47824   0.00000  Uiso   1.00
H513   H     0.11313   0.81747   0.11266   0.00000  Uiso   1.00
H514   H     0.22021   0.84919   0.38734   0.00000  Uiso   1.00
H515   H     0.32815   0.79739   0.48031   0.00000  Uiso   1.00
H516   H     0.00518   0.86927   0.01968   0.00000  Uiso   1.00
H517   H     0.16896   0.78182   0.07416   0.00000  Uiso   1.00
H518   H     0.16437   0.88484   0.42585   0.00000  Uiso   1.00
C519   C     0.28977   0.68829   0.26207   0.00000  Uiso   1.00
C520   C     0.04356   0.97837   0.23793   0.00000  Uiso   1.00
H521   H     0.25571   0.70464   0.27182   0.00000  Uiso   1.00
H522   H     0.07763   0.96203   0.22818   0.00000  Uiso   1.00
C523   C     0.28953   0.97898   0.26183   0.00000  Uiso   1.00
C524   C     0.04381   0.68769   0.23817   0.00000  Uiso   1.00
H525   H     0.25545   0.96308   0.27171   0.00000  Uiso   1.00
H526   H     0.07788   0.70358   0.22829   0.00000  Uiso   1.00
C527   C     0.33307   0.95723   0.24969   0.00000  Uiso   1.00
C528   C     0.00027   0.70944   0.25031   0.00000  Uiso   1.00
C529   C     0.18727   0.80184   0.27046   0.00000  Uiso   1.00
C530   C     0.14607   0.86483   0.22954   0.00000  Uiso   1.00
H531   H     0.20254   0.77702   0.28732   0.00000  Uiso   1.00
H532   H     0.13080   0.88964   0.21268   0.00000  Uiso   1.00
C533   C     0.13792   0.80148   0.27085   0.00000  Uiso   1.00
C534   C     0.19541   0.86518   0.22915   0.00000  Uiso   1.00
N535   N     0.11736   0.83334   0.24999   0.00000  Uiso   1.00
N536   N     0.21597   0.83332   0.25001   0.00000  Uiso   1.00
C537   C     0.25786   0.75675   0.04347   0.00000  Uiso   1.00
O538   O     0.29150   0.73705   0.02080   0.00000  Uiso   1.00
O539   O     0.24056   0.74639   0.08967   0.00000  Uiso   1.00
H540   H     0.25976   0.72327   0.10033   0.00000  Uiso   1.00
C541   C     0.07548   0.90992   0.45653   0.00000  Uiso   1.00
O542   O     0.04183   0.92961   0.47920   0.00000  Uiso   1.00
O543   O     0.09278   0.92028   0.41034   0.00000  Uiso   1.00
H544   H     0.07358   0.94340   0.39967   0.00000  Uiso   1.00
C545   C     0.28946   0.84363   0.10058   0.00000  Uiso   1.00
O546   O     0.27008   0.81555   0.12623   0.00000  Uiso   1.00
O547   O     0.26125   0.87249   0.08333   0.00000  Uiso   1.00
H548   H     0.22551   0.86730   0.09541   0.00000  Uiso   1.00
C549   C     0.04387   0.82303   0.39941   0.00000  Uiso   1.00
O550   O     0.06325   0.85112   0.37378   0.00000  Uiso   1.00
O551   O     0.07208   0.79417   0.41665   0.00000  Uiso   1.00
H552   H     0.10782   0.79935   0.40458   0.00000  Uiso   1.00
C553   C     0.11100   0.76520   0.29429   0.00000  Uiso   1.00
O554   O     0.07273   0.76932   0.32227   0.00000  Uiso   1.00
O555   O     0.13143   0.72585   0.28644   0.00000  Uiso   1.00
H556   H     0.11043   0.70337   0.30508   0.00000  Uiso   1.00
C557   C     0.22233   0.90146   0.20571   0.00000  Uiso   1.00
O558   O     0.26061   0.89735   0.17773   0.00000  Uiso   1.00
O559   O     0.20190   0.94081   0.21356   0.00000  Uiso   1.00
H560   H     0.22291   0.96329   0.19491   0.00000  Uiso   1.00
O561   O     0.37291   0.77322   0.25000   0.00000  Uiso   1.00
O562   O     0.62709   0.89345   0.25000   0.00000  Uiso   1.00
O563   O     0.62706   0.77321   0.25000   0.00000  Uiso   1.00
O564   O     0.37294   0.89346   0.24999   0.00000  Uiso   1.00
C565   C     0.33353   0.75408   0.25018   0.00000  Uiso   1.00
C566   C     0.66647   0.91258   0.24982   0.00000  Uiso   1.00
O567   O     0.35186   0.83334   0.31491   0.00000  Uiso   1.00
O568   O     0.64814   0.83332   0.18508   0.00000  Uiso   1.00
O569   O     0.60600   0.83333   0.31492   0.00000  Uiso   1.00
O570   O     0.39400   0.83333   0.18508   0.00000  Uiso   1.00
C571   C     0.63989   0.83391   0.33661   0.00000  Uiso   1.00
C572   C     0.36011   0.83276   0.16339   0.00000  Uiso   1.00
Cu573  Cu    0.38022   0.83334   0.25000   0.00000  Uiso   1.00
Cu574  Cu    0.61978   0.83333   0.25000   0.00000  Uiso   1.00
C575   C     0.62572   0.83246   0.38715   0.00000  Uiso   1.00
C576   C     0.37428   0.83420   0.11285   0.00000  Uiso   1.00
C577   C     0.63743   0.80737   0.45975   0.00000  Uiso   1.00
C578   C     0.36257   0.85929   0.04025   0.00000  Uiso   1.00
C579   C     0.65730   0.82093   0.41477   0.00000  Uiso   1.00
C580   C     0.34270   0.84574   0.08523   0.00000  Uiso   1.00
C581   C     0.57701   0.83921   0.40835   0.00000  Uiso   1.00
C582   C     0.42299   0.82745   0.09165   0.00000  Uiso   1.00
C583   C     0.55798   0.83050   0.45499   0.00000  Uiso   1.00
C584   C     0.44202   0.83617   0.04501   0.00000  Uiso   1.00
C585   C     0.58751   0.80877   0.47904   0.00000  Uiso   1.00
C586   C     0.41249   0.85789   0.02096   0.00000  Uiso   1.00
C587   C     0.50982   0.84098   0.47754   0.00000  Uiso   1.00
C588   C     0.49018   0.82569   0.02246   0.00000  Uiso   1.00
C589   C     0.51821   0.79837   0.04269   0.00000  Uiso   1.00
C590   C     0.48179   0.86829   0.45731   0.00000  Uiso   1.00
C591   C     0.56637   0.78959   0.02176   0.00000  Uiso   1.00
C592   C     0.43363   0.87707   0.47824   0.00000  Uiso   1.00
H593   H     0.44646   0.81747   0.11266   0.00000  Uiso   1.00
H594   H     0.55354   0.84919   0.38734   0.00000  Uiso   1.00
H595   H     0.66149   0.79739   0.48031   0.00000  Uiso   1.00
H596   H     0.33851   0.86927   0.01968   0.00000  Uiso   1.00
H597   H     0.50230   0.78182   0.07416   0.00000  Uiso   1.00
H598   H     0.49770   0.88484   0.42585   0.00000  Uiso   1.00
C599   C     0.62310   0.68829   0.26207   0.00000  Uiso   1.00
C600   C     0.37690   0.97837   0.23793   0.00000  Uiso   1.00
H601   H     0.58904   0.70464   0.27182   0.00000  Uiso   1.00
H602   H     0.41096   0.96203   0.22818   0.00000  Uiso   1.00
C603   C     0.62286   0.97898   0.26183   0.00000  Uiso   1.00
C604   C     0.37714   0.68769   0.23817   0.00000  Uiso   1.00
H605   H     0.58878   0.96308   0.27171   0.00000  Uiso   1.00
H606   H     0.41122   0.70358   0.22829   0.00000  Uiso   1.00
C607   C     0.66640   0.95723   0.24969   0.00000  Uiso   1.00
C608   C     0.33360   0.70944   0.25031   0.00000  Uiso   1.00
C609   C     0.52060   0.80184   0.27046   0.00000  Uiso   1.00
C610   C     0.47940   0.86483   0.22954   0.00000  Uiso   1.00
H611   H     0.53587   0.77702   0.28732   0.00000  Uiso   1.00
H612   H     0.46413   0.88964   0.21268   0.00000  Uiso   1.00
C613   C     0.47126   0.80148   0.27085   0.00000  Uiso   1.00
C614   C     0.52874   0.86518   0.22915   0.00000  Uiso   1.00
N615   N     0.45069   0.83334   0.24999   0.00000  Uiso   1.00
N616   N     0.54931   0.83332   0.25001   0.00000  Uiso   1.00
C617   C     0.59119   0.75675   0.04347   0.00000  Uiso   1.00
O618   O     0.62483   0.73705   0.02080   0.00000  Uiso   1.00
O619   O     0.57389   0.74639   0.08967   0.00000  Uiso   1.00
H620   H     0.59309   0.72327   0.10033   0.00000  Uiso   1.00
C621   C     0.40881   0.90992   0.45653   0.00000  Uiso   1.00
O622   O     0.37517   0.92961   0.47920   0.00000  Uiso   1.00
O623   O     0.42611   0.92028   0.41034   0.00000  Uiso   1.00
H624   H     0.40691   0.94340   0.39967   0.00000  Uiso   1.00
C625   C     0.62280   0.84363   0.10058   0.00000  Uiso   1.00
O626   O     0.60341   0.81555   0.12623   0.00000  Uiso   1.00
O627   O     0.59459   0.87249   0.08333   0.00000  Uiso   1.00
H628   H     0.55885   0.86730   0.09541   0.00000  Uiso   1.00
C629   C     0.37720   0.82303   0.39941   0.00000  Uiso   1.00
O630   O     0.39658   0.85112   0.37378   0.00000  Uiso   1.00
O631   O     0.40541   0.79417   0.41665   0.00000  Uiso   1.00
H632   H     0.44115   0.79935   0.40458   0.00000  Uiso   1.00
C633   C     0.44434   0.76520   0.29429   0.00000  Uiso   1.00
O634   O     0.40606   0.76932   0.32227   0.00000  Uiso   1.00
O635   O     0.46476   0.72585   0.28644   0.00000  Uiso   1.00
H636   H     0.44376   0.70337   0.30508   0.00000  Uiso   1.00
C637   C     0.55566   0.90146   0.20571   0.00000  Uiso   1.00
O638   O     0.59394   0.89735   0.17773   0.00000  Uiso   1.00
O639   O     0.53524   0.94081   0.21356   0.00000  Uiso   1.00
H640   H     0.55624   0.96329   0.19491   0.00000  Uiso   1.00
O641   O     0.70625   0.77322   0.25000   0.00000  Uiso   1.00
O642   O     0.96042   0.89345   0.25000   0.00000  Uiso   1.00
O643   O     0.96039   0.77321   0.25000   0.00000  Uiso   1.00
O644   O     0.70628   0.89346   0.24999   0.00000  Uiso   1.00
C645   C     0.66686   0.75408   0.25018   0.00000  Uiso   1.00
C646   C     0.99981   0.91258   0.24982   0.00000  Uiso   1.00
O647   O     0.68519   0.83334   0.31491   0.00000  Uiso   1.00
O648   O     0.98148   0.83332   0.18508   0.00000  Uiso   1.00
O649   O     0.93933   0.83333   0.31492   0.00000  Uiso   1.00
O650   O     0.72733   0.83333   0.18508   0.00000  Uiso   1.00
C651   C     0.97322   0.83391   0.33661   0.00000  Uiso   1.00
C652   C     0.69344   0.83276   0.16339   0.00000  Uiso   1.00
Cu653  Cu    0.71355   0.83334   0.25000   0.00000  Uiso   1.00
Cu654  Cu    0.95311   0.83333   0.25000   0.00000  Uiso   1.00
C655   C     0.95905   0.83246   0.38715   0.00000  Uiso   1.00
C656   C     0.70762   0.83420   0.11285   0.00000  Uiso   1.00
C657   C     0.97076   0.80737   0.45975   0.00000  Uiso   1.00
C658   C     0.69591   0.85929   0.04025   0.00000  Uiso   1.00
C659   C     0.99063   0.82093   0.41477   0.00000  Uiso   1.00
C660   C     0.67603   0.84574   0.08523   0.00000  Uiso   1.00
C661   C     0.91034   0.83921   0.40835   0.00000  Uiso   1.00
C662   C     0.75633   0.82745   0.09165   0.00000  Uiso   1.00
C663   C     0.89131   0.83050   0.45499   0.00000  Uiso   1.00
C664   C     0.77535   0.83617   0.04501   0.00000  Uiso   1.00
C665   C     0.92084   0.80877   0.47904   0.00000  Uiso   1.00
C666   C     0.74582   0.85789   0.02096   0.00000  Uiso   1.00
C667   C     0.84315   0.84098   0.47754   0.00000  Uiso   1.00
C668   C     0.82352   0.82569   0.02246   0.00000  Uiso   1.00
C669   C     0.85154   0.79837   0.04269   0.00000  Uiso   1.00
C670   C     0.81513   0.86829   0.45731   0.00000  Uiso   1.00
C671   C     0.89971   0.78959   0.02176   0.00000  Uiso   1.00
C672   C     0.76696   0.87707   0.47824   0.00000  Uiso   1.00
H673   H     0.77979   0.81747   0.11266   0.00000  Uiso   1.00
H674   H     0.88687   0.84919   0.38734   0.00000  Uiso   1.00
H675   H     0.99482   0.79739   0.48031   0.00000  Uiso   1.00
H676   H     0.67185   0.86927   0.01968   0.00000  Uiso   1.00
H677   H     0.83563   0.78182   0.07416   0.00000  Uiso   1.00
H678   H     0.83104   0.88484   0.42585   0.00000  Uiso   1.00
C679   C     0.95644   0.68829   0.26207   0.00000  Uiso   1.00
C680   C     0.71023   0.97837   0.23793   0.00000  Uiso   1.00
H681   H     0.92237   0.70464   0.27182   0.00000  Uiso   1.00
H682   H     0.74429   0.96203   0.22818   0.00000  Uiso   1.00
C683   C     0.95620   0.97898   0.26183   0.00000  Uiso   1.00
C684   C     0.71047   0.68769   0.23817   0.00000  Uiso   1.00
H685   H     0.92212   0.96308   0.27171   0.00000  Uiso   1.00
H686   H     0.74455   0.70358   0.22829   0.00000  Uiso   1.00
C687   C     0.99973   0.95723   0.24969   0.00000  Uiso   1.00
C688   C     0.66693   0.70944   0.25031   0.00000  Uiso   1.00
C689   C     0.85393   0.80184   0.27046   0.00000  Uiso   1.00
C690   C     0.81273   0.86483   0.22954   0.00000  Uiso   1.00
H691   H     0.86920   0.77702   0.28732   0.00000  Uiso   1.00
H692   H     0.79746   0.88964   0.21268   0.00000  Uiso   1.00
C693   C     0.80459   0.80148   0.27085   0.00000  Uiso   1.00
C694   C     0.86208   0.86518   0.22915   0.00000  Uiso   1.00
N695   N     0.78403   0.83334   0.24999   0.00000  Uiso   1.00
N696   N     0.88264   0.83332   0.25001   0.00000  Uiso   1.00
C697   C     0.92452   0.75675   0.04347   0.00000  Uiso   1.00
O698   O     0.95816   0.73705   0.02080   0.00000  Uiso   1.00
O699   O     0.90722   0.74639   0.08967   0.00000  Uiso   1.00
H700   H     0.92643   0.72327   0.10033   0.00000  Uiso   1.00
C701   C     0.74214   0.90992   0.45653   0.00000  Uiso   1.00
O702   O     0.70850   0.92961   0.47920   0.00000  Uiso   1.00
O703   O     0.75944   0.92028   0.41034   0.00000  Uiso   1.00
H704   H     0.74024   0.94340   0.39967   0.00000  Uiso   1.00
C705   C     0.95613   0.84363   0.10058   0.00000  Uiso   1.00
O706   O     0.93675   0.81555   0.12623   0.00000  Uiso   1.00
O707   O     0.92792   0.87249   0.08333   0.00000  Uiso   1.00
H708   H     0.89218   0.86730   0.09541   0.00000  Uiso   1.00
C709   C     0.71053   0.82303   0.39941   0.00000  Uiso   1.00
O710   O     0.72992   0.85112   0.37378   0.00000  Uiso   1.00
O711   O     0.73875   0.79417   0.41665   0.00000  Uiso   1.00
H712   H     0.77448   0.79935   0.40458   0.00000  Uiso   1.00
C713   C     0.77767   0.76520   0.29429   0.00000  Uiso   1.00
O714   O     0.73939   0.76932   0.32227   0.00000  Uiso   1.00
O715   O     0.79810   0.72585   0.28644   0.00000  Uiso   1.00
H716   H     0.77710   0.70337   0.30508   0.00000  Uiso   1.00
C717   C     0.88900   0.90146   0.20571   0.00000  Uiso   1.00
O718   O     0.92727   0.89735   0.17773   0.00000  Uiso   1.00
O719   O     0.86857   0.94081   0.21356   0.00000  Uiso   1.00
H720   H     0.88957   0.96329   0.19491   0.00000  Uiso   1.00
O721   O     0.03958   0.10655   0.75000   0.00000  Uiso   1.00
O722   O     0.29375   0.22678   0.75000   0.00000  Uiso   1.00
O723   O     0.29372   0.10654   0.75000   0.00000  Uiso   1.00
O724   O     0.03961   0.22679   0.74999   0.00000  Uiso   1.00
C725   C     0.00019   0.08742   0.75018   0.00000  Uiso   1.00
C726   C     0.33314   0.24592   0.74982   0.00000  Uiso   1.00
O727   O     0.01852   0.16668   0.81491   0.00000  Uiso   1.00
O728   O     0.31481   0.16666   0.68508   0.00000  Uiso   1.00
O729   O     0.27267   0.16667   0.81492   0.00000  Uiso   1.00
O730   O     0.06067   0.16667   0.68508   0.00000  Uiso   1.00
C731   C     0.30656   0.16724   0.83661   0.00000  Uiso   1.00
C732   C     0.02678   0.16609   0.66339   0.00000  Uiso   1.00
Cu733  Cu    0.04689   0.16667   0.75000   0.00000  Uiso   1.00
Cu734  Cu    0.28645   0.16666   0.75000   0.00000  Uiso   1.00
C735   C     0.29238   0.16580   0.88715   0.00000  Uiso   1.00
C736   C     0.04095   0.16754   0.61285   0.00000  Uiso   1.00
C737   C     0.30409   0.14071   0.95975   0.00000  Uiso   1.00
C738   C     0.02924   0.19262   0.54025   0.00000  Uiso   1.00
C739   C     0.32397   0.15426   0.91477   0.00000  Uiso   1.00
C740   C     0.00937   0.17907   0.58523   0.00000  Uiso   1.00
C741   C     0.24367   0.17254   0.90835   0.00000  Uiso   1.00
C742   C     0.08966   0.16079   0.59165   0.00000  Uiso   1.00
C743   C     0.22465   0.16383   0.95499   0.00000  Uiso   1.00
C744   C     0.10869   0.16950   0.54501   0.00000  Uiso   1.00
C745   C     0.25418   0.14211   0.97904   0.00000  Uiso   1.00
C746   C     0.07916   0.19122   0.52096   0.00000  Uiso   1.00
C747   C     0.17648   0.17431   0.97754   0.00000  Uiso   1.00
C748   C     0.15685   0.15902   0.52246   0.00000  Uiso   1.00
C749   C     0.18487   0.13171   0.54269   0.00000  Uiso   1.00
C750   C     0.14846   0.20162   0.95731   0.00000  Uiso   1.00
C751   C     0.23304   0.12293   0.52176   0.00000  Uiso   1.00
C752   C     0.10029   0.21040   0.97824   0.00000  Uiso   1.00
H753   H     0.11313   0.15080   0.61266   0.00000  Uiso   1.00
H754   H     0.22021   0.18253   0.88734   0.00000  Uiso   1.00
H755   H     0.32815   0.13073   0.98031   0.00000  Uiso   1.00
H756   H     0.00518   0.20260   0.51968   0.00000  Uiso   1.00
H757   H     0.16896   0.11515   0.57416   0.00000  Uiso   1.00
H758   H     0.16437   0.21818   0.92585   0.00000  Uiso   1.00
C759   C     0.28977   0.02163   0.76207   0.00000  Uiso   1.00
C760   C     0.04356   0.31171   0.73793   0.00000  Uiso   1.00
H761   H     0.25571   0.03797   0.77182   0.00000  Uiso   1.00
H762   H     0.07763   0.29536   0.72818   0.00000  Uiso   1.00
C763   C     0.28953   0.31231   0.76183   0.00000  Uiso   1.00
C764   C     0.04381   0.02102   0.73817   0.00000  Uiso   1.00
H765   H     0.25545   0.29641   0.77171   0.00000  Uiso   1.00
H766   H     0.07788   0.03692   0.72829   0.00000  Uiso   1.00
C767   C     0.33307   0.29056   0.74969   0.00000  Uiso   1.00
C768   C     0.00027   0.04277   0.75031   0.00000  Uiso   1.00
C769   C     0.18727   0.13517   0.77046   0.00000  Uiso   1.00
C770   C     0.14607   0.19816   0.72954   0.00000  Uiso   1.00
H771   H     0.20254   0.11036   0.78732   0.00000  Uiso   1.00
H772   H     0.13080   0.22298   0.71268   0.00000  Uiso   1.00
C773   C     0.13792   0.13482   0.77085   0.00000  Uiso   1.00
C774   C     0.19541   0.19852   0.72915   0.00000  Uiso   1.00
N775   N     0.11736   0.16668   0.74999   0.00000  Uiso   1.00
N776   N     0.21597   0.16666   0.75001   0.00000  Uiso   1.00
C777   C     0.25786   0.09008   0.54347   0.00000  Uiso   1.00
O778   O     0.29150   0.07039   0.52080   0.00000  Uiso   1.00
O779   O     0.24056   0.07972   0.58967   0.00000  Uiso   1.00
H780   H     0.25976   0.05661   0.60033   0.00000  Uiso   1.00
C781   C     0.07548   0.24325   0.95653   0.00000  Uiso   1.00
O782   O     0.04183   0.26294   0.97920   0.00000  Uiso   1.00
O783   O     0.09278   0.25361   0.91034   0.00000  Uiso   1.00
H784   H     0.07358   0.27673   0.89967   0.00000  Uiso   1.00
C785   C     0.28946   0.17697   0.60058   0.00000  Uiso   1.00
O786   O     0.27008   0.14888   0.62623   0.00000  Uiso   1.00
O787   O     0.26125   0.20582   0.58333   0.00000  Uiso   1.00
H788   H     0.22551   0.20064   0.59541   0.00000  Uiso   1.00
C789   C     0.04387   0.15636   0.89941   0.00000  Uiso   1.00
O790   O     0.06325   0.18446   0.87378   0.00000  Uiso   1.00
O791   O     0.07208   0.12750   0.91665   0.00000  Uiso   1.00
H792   H     0.10782   0.13269   0.90458   0.00000  Uiso   1.00
C793   C     0.11100   0.09854   0.79429   0.00000  Uiso   1.00
O794   O     0.07273   0.10265   0.82227   0.00000  Uiso   1.00
O795   O     0.13143   0.05919   0.78644   0.00000  Uiso   1.00
H796   H     0.11043   0.03671   0.80508   0.00000  Uiso   1.00
C797   C     0.22233   0.23480   0.70571   0.00000  Uiso   1.00
O798   O     0.26061   0.23068   0.67773   0.00000  Uiso   1.00
O799   O     0.20190   0.27415   0.71356   0.00000  Uiso   1.00
H800   H     0.22291   0.29663   0.69491   0.00000  Uiso   1.00
O801   O     0.37291   0.10655   0.75000   0.00000  Uiso   1.00
O802   O     0.62709   0.22678   0.75000   0.00000  Uiso   1.00
O803   O     0.62706   0.10654   0.75000   0.00000  Uiso   1.00
O804   O     0.37294   0.22679   0.74999   0.00000  Uiso   1.00
C805   C     0.33353   0.08742   0.75018   0.00000  Uiso   1.00
C806   C     0.66647   0.24592   0.74982   0.00000  Uiso   1.00
O807   O     0.35186   0.16668   0.81491   0.00000  Uiso   1.00
O808   O     0.64814   0.16666   0.68508   0.00000  Uiso   1.00
O809   O     0.60600   0.16667   0.81492   0.00000  Uiso   1.00
O810   O     0.39400   0.16667   0.68508   0.00000  Uiso   1.00
C811   C     0.63989   0.16724   0.83661   0.00000  Uiso   1.00
C812   C     0.36011   0.16609   0.66339   0.00000  Uiso   1.00
Cu813  Cu    0.38022   0.16667   0.75000   0.00000  Uiso   1.00
Cu814  Cu    0.61978   0.16666   0.75000   0.00000  Uiso   1.00
C815   C     0.62572   0.16580   0.88715   0.00000  Uiso   1.00
C816   C     0.37428   0.16754   0.61285   0.00000  Uiso   1.00
C817   C     0.63743   0.14071   0.95975   0.00000  Uiso   1.00
C818   C     0.36257   0.19262   0.54025   0.00000  Uiso   1.00
C819   C     0.65730   0.15426   0.91477   0.00000  Uiso   1.00
C820   C     0.34270   0.17907   0.58523   0.00000  Uiso   1.00
C821   C     0.57701   0.17254   0.90835   0.00000  Uiso   1.00
C822   C     0.42299   0.16079   0.59165   0.00000  Uiso   1.00
C823   C     0.55798   0.16383   0.95499   0.00000  Uiso   1.00
C824   C     0.44202   0.16950   0.54501   0.00000  Uiso   1.00
C825   C     0.58751   0.14211   0.97904   0.00000  Uiso   1.00
C826   C     0.41249   0.19122   0.52096   0.00000  Uiso   1.00
C827   C     0.50982   0.17431   0.97754   0.00000  Uiso   1.00
C828   C     0.49018   0.15902   0.52246   0.00000  Uiso   1.00
C829   C     0.51821   0.13171   0.54269   0.00000  Uiso   1.00
C830   C     0.48179   0.20162   0.95731   0.00000  Uiso   1.00
C831   C     0.56637   0.12293   0.52176   0.00000  Uiso   1.00
C832   C     0.43363   0.21040   0.97824   0.00000  Uiso   1.00
H833   H     0.44646   0.15080   0.61266   0.00000  Uiso   1.00
H834   H     0.55354   0.18253   0.88734   0.00000  Uiso   1.00
H835   H     0.66149   0.13073   0.98031   0.00000  Uiso   1.00
H836   H     0.33851   0.20260   0.51968   0.00000  Uiso   1.00
H837   H     0.50230   0.11515   0.57416   0.00000  Uiso   1.00
H838   H     0.49770   0.21818   0.92585   0.00000  Uiso   1.00
C839   C     0.62310   0.02163   0.76207   0.00000  Uiso   1.00
C840   C     0.37690   0.31171   0.73793   0.00000  Uiso   1.00
H841   H     0.58904   0.03797   0.77182   0.00000  Uiso   1.00
H842   H     0.41096   0.29536   0.72818   0.00000  Uiso   1.00
C843   C     0.62286   0.31231   0.76183   0.00000  Uiso   1.00
C844   C     0.37714   0.02102   0.73817   0.00000  Uiso   1.00
H845   H     0.58878   0.29641   0.77171   0.00000  Uiso   1.00
H846   H     0.41122   0.03692   0.72829   0.00000  Uiso   1.00
C847   C     0.66640   0.29056   0.74969   0.00000  Uiso   1.00
C848   C     0.33360   0.04277   0.75031   0.00000  Uiso   1.00
C849   C     0.52060   0.13517   0.77046   0.00000  Uiso   1.00
C850   C     0.47940   0.19816   0.72954   0.00000  Uiso   1.00
H851   H     0.53587   0.11036   0.78732   0.00000  Uiso   1.00
H852   H     0.46413   0.22298   0.71268   0.00000  Uiso   1.00
C853   C     0.47126   0.13482   0.77085   0.00000  Uiso   1.00
C854   C     0.52874   0.19852   0.72915   0.00000  Uiso   1.00
N855   N     0.45069   0.16668   0.74999   0.00000  Uiso   1.00
N856   N     0.54931   0.16666   0.75001   0.00000  Uiso   1.00
C857   C     0.59119   0.09008   0.54347   0.00000  Uiso   1.00
O858   O     0.62483   0.07039   0.52080   0.00000  Uiso   1.00
O859   O     0.57389   0.07972   0.58967   0.00000  Uiso   1.00
H860   H     0.59309   0.05661   0.60033   0.00000  Uiso   1.00
C861   C     0.40881   0.24325   0.95653   0.00000  Uiso   1.00
O862   O     0.37517   0.26294   0.97920   0.00000  Uiso   1.00
O863   O     0.42611   0.25361   0.91034   0.00000  Uiso   1.00
H864   H     0.40691   0.27673   0.89967   0.00000  Uiso   1.00
C865   C     0.62280   0.17697   0.60058   0.00000  Uiso   1.00
O866   O     0.60341   0.14888   0.62623   0.00000  Uiso   1.00
O867   O     0.59459   0.20582   0.58333   0.00000  Uiso   1.00
H868   H     0.55885   0.20064   0.59541   0.00000  Uiso   1.00
C869   C     0.37720   0.15636   0.89941   0.00000  Uiso   1.00
O870   O     0.39658   0.18446   0.87378   0.00000  Uiso   1.00
O871   O     0.40541   0.12750   0.91665   0.00000  Uiso   1.00
H872   H     0.44115   0.13269   0.90458   0.00000  Uiso   1.00
C873   C     0.44434   0.09854   0.79429   0.00000  Uiso   1.00
O874   O     0.40606   0.10265   0.82227   0.00000  Uiso   1.00
O875   O     0.46476   0.05919   0.78644   0.00000  Uiso   1.00
H876   H     0.44376   0.03671   0.80508   0.00000  Uiso   1.00
C877   C     0.55566   0.23480   0.70571   0.00000  Uiso   1.00
O878   O     0.59394   0.23068   0.67773   0.00000  Uiso   1.00
O879   O     0.53524   0.27415   0.71356   0.00000  Uiso   1.00
H880   H     0.55624   0.29663   0.69491   0.00000  Uiso   1.00
O881   O     0.70625   0.10655   0.75000   0.00000  Uiso   1.00
O882   O     0.96042   0.22678   0.75000   0.00000  Uiso   1.00
O883   O     0.96039   0.10654   0.75000   0.00000  Uiso   1.00
O884   O     0.70628   0.22679   0.74999   0.00000  Uiso   1.00
C885   C     0.66686   0.08742   0.75018   0.00000  Uiso   1.00
C886   C     0.99981   0.24592   0.74982   0.00000  Uiso   1.00
O887   O     0.68519   0.16668   0.81491   0.00000  Uiso   1.00
O888   O     0.98148   0.16666   0.68508   0.00000  Uiso   1.00
O889   O     0.93933   0.16667   0.81492   0.00000  Uiso   1.00
O890   O     0.72733   0.16667   0.68508   0.00000  Uiso   1.00
C891   C     0.97322   0.16724   0.83661   0.00000  Uiso   1.00
C892   C     0.69344   0.16609   0.66339   0.00000  Uiso   1.00
Cu893  Cu    0.71355   0.16667   0.75000   0.00000  Uiso   1.00
Cu894  Cu    0.95311   0.16666   0.75000   0.00000  Uiso   1.00
C895   C     0.95905   0.16580   0.88715   0.00000  Uiso   1.00
C896   C     0.70762   0.16754   0.61285   0.00000  Uiso   1.00
C897   C     0.97076   0.14071   0.95975   0.00000  Uiso   1.00
C898   C     0.69591   0.19262   0.54025   0.00000  Uiso   1.00
C899   C     0.99063   0.15426   0.91477   0.00000  Uiso   1.00
C900   C     0.67603   0.17907   0.58523   0.00000  Uiso   1.00
C901   C     0.91034   0.17254   0.90835   0.00000  Uiso   1.00
C902   C     0.75633   0.16079   0.59165   0.00000  Uiso   1.00
C903   C     0.89131   0.16383   0.95499   0.00000  Uiso   1.00
C904   C     0.77535   0.16950   0.54501   0.00000  Uiso   1.00
C905   C     0.92084   0.14211   0.97904   0.00000  Uiso   1.00
C906   C     0.74582   0.19122   0.52096   0.00000  Uiso   1.00
C907   C     0.84315   0.17431   0.97754   0.00000  Uiso   1.00
C908   C     0.82352   0.15902   0.52246   0.00000  Uiso   1.00
C909   C     0.85154   0.13171   0.54269   0.00000  Uiso   1.00
C910   C     0.81513   0.20162   0.95731   0.00000  Uiso   1.00
C911   C     0.89971   0.12293   0.52176   0.00000  Uiso   1.00
C912   C     0.76696   0.21040   0.97824   0.00000  Uiso   1.00
H913   H     0.77979   0.15080   0.61266   0.00000  Uiso   1.00
H914   H     0.88687   0.18253   0.88734   0.00000  Uiso   1.00
H915   H     0.99482   0.13073   0.98031   0.00000  Uiso   1.00
H916   H     0.67185   0.20260   0.51968   0.00000  Uiso   1.00
H917   H     0.83563   0.11515   0.57416   0.00000  Uiso   1.00
H918   H     0.83104   0.21818   0.92585   0.00000  Uiso   1.00
C919   C     0.95644   0.02163   0.76207   0.00000  Uiso   1.00
C920   C     0.71023   0.31171   0.73793   0.00000  Uiso   1.00
H921   H     0.92237   0.03797   0.77182   0.00000  Uiso   1.00
H922   H     0.74429   0.29536   0.72818   0.00000  Uiso   1.00
C923   C     0.95620   0.31231   0.76183   0.00000  Uiso   1.00
C924   C     0.71047   0.02102   0.73817   0.00000  Uiso   1.00
H925   H     0.92212   0.29641   0.77171   0.00000  Uiso   1.00
H926   H     0.74455   0.03692   0.72829   0.00000  Uiso   1.00
C927   C     0.99973   0.29056   0.74969   0.00000  Uiso   1.00
C928   C     0.66693   0.04277   0.75031   0.00000  Uiso   1.00
C929   C     0.85393   0.13517   0.77046   0.00000  Uiso   1.00
C930   C     0.81273   0.19816   0.72954   0.00000  Uiso   1.00
H931   H     0.86920   0.11036   0.78732   0.00000  Uiso   1.00
H932   H     0.79746   0.22298   0.71268   0.00000  Uiso   1.00
C933   C     0.80459   0.13482   0.77085   0.00000  Uiso   1.00
C934   C     0.86208   0.19852   0.72915   0.00000  Uiso   1.00
N935   N     0.78403   0.16668   0.74999   0.00000  Uiso   1.00
N936   N     0.88264   0.16666   0.75001   0.00000  Uiso   1.00
C937   C     0.92452   0.09008   0.54347   0.00000  Uiso   1.00
O938   O     0.95816   0.07039   0.52080   0.00000  Uiso   1.00
O939   O     0.90722   0.07972   0.58967   0.00000  Uiso   1.00
H940   H     0.92643   0.05661   0.60033   0.00000  Uiso   1.00
C941   C     0.74214   0.24325   0.95653   0.00000  Uiso   1.00
O942   O     0.70850   0.26294   0.97920   0.00000  Uiso   1.00
O943   O     0.75944   0.25361   0.91034   0.00000  Uiso   1.00
H944   H     0.74024   0.27673   0.89967   0.00000  Uiso   1.00
C945   C     0.95613   0.17697   0.60058   0.00000  Uiso   1.00
O946   O     0.93675   0.14888   0.62623   0.00000  Uiso   1.00
O947   O     0.92792   0.20582   0.58333   0.00000  Uiso   1.00
H948   H     0.89218   0.20064   0.59541   0.00000  Uiso   1.00
C949   C     0.71053   0.15636   0.89941   0.00000  Uiso   1.00
O950   O     0.72992   0.18446   0.87378   0.00000  Uiso   1.00
O951   O     0.73875   0.12750   0.91665   0.00000  Uiso   1.00
H952   H     0.77448   0.13269   0.90458   0.00000  Uiso   1.00
C953   C     0.77767   0.09854   0.79429   0.00000  Uiso   1.00
O954   O     0.73939   0.10265   0.82227   0.00000  Uiso   1.00
O955   O     0.79810   0.05919   0.78644   0.00000  Uiso   1.00
H956   H     0.77710   0.03671   0.80508   0.00000  Uiso   1.00
C957   C     0.88900   0.23480   0.70571   0.00000  Uiso   1.00
O958   O     0.92727   0.23068   0.67773   0.00000  Uiso   1.00
O959   O     0.86857   0.27415   0.71356   0.00000  Uiso   1.00
H960   H     0.88957   0.29663   0.69491   0.00000  Uiso   1.00
O961   O     0.03958   0.43989   0.75000   0.00000  Uiso   1.00
O962   O     0.29375   0.56011   0.75000   0.00000  Uiso   1.00
O963   O     0.29372   0.43988   0.75000   0.00000  Uiso   1.00
O964   O     0.03961   0.56012   0.74999   0.00000  Uiso   1.00
C965   C     0.00019   0.42075   0.75018   0.00000  Uiso   1.00
C966   C     0.33314   0.57925   0.74982   0.00000  Uiso   1.00
O967   O     0.01852   0.50001   0.81491   0.00000  Uiso   1.00
O968   O     0.31481   0.49999   0.68508   0.00000  Uiso   1.00
O969   O     0.27267   0.50000   0.81492   0.00000  Uiso   1.00
O970   O     0.06067   0.50000   0.68508   0.00000  Uiso   1.00
C971   C     0.30656   0.50058   0.83661   0.00000  Uiso   1.00
C972   C     0.02678   0.49942   0.66339   0.00000  Uiso   1.00
Cu973  Cu    0.04689   0.50001   0.75000   0.00000  Uiso   1.00
Cu974  Cu    0.28645   0.49999   0.75000   0.00000  Uiso   1.00
C975   C     0.29238   0.49913   0.88715   0.00000  Uiso   1.00
C976   C     0.04095   0.50087   0.61285   0.00000  Uiso   1.00
C977   C     0.30409   0.47404   0.95975   0.00000  Uiso   1.00
C978   C     0.02924   0.52596   0.54025   0.00000  Uiso   1.00
C979   C     0.32397   0.48759   0.91477   0.00000  Uiso   1.00
C980   C     0.00937   0.51240   0.58523   0.00000  Uiso   1.00
C981   C     0.24367   0.50588   0.90835   0.00000  Uiso   1.00
C982   C     0.08966   0.49412   0.59165   0.00000  Uiso   1.00
C983   C     0.22465   0.49716   0.95499   0.00000  Uiso   1.00
C984   C     0.10869   0.50283   0.54501   0.00000  Uiso   1.00
C985   C     0.25418   0.47544   0.97904   0.00000  Uiso   1.00
C986   C     0.07916   0.52456   0.52096   0.00000  Uiso   1.00
C987   C     0.17648   0.50764   0.97754   0.00000  Uiso   1.00
C988   C     0.15685   0.49235   0.52246   0.00000  Uiso   1.00
C989   C     0.18487   0.46504   0.54269   0.00000  Uiso   1.00
C990   C     0.14846   0.53496   0.95731   0.00000  Uiso   1.00
C991   C     0.23304   0.45626   0.52176   0.00000  Uiso   1.00
C992   C     0.10029   0.54374   0.97824   0.00000  Uiso   1.00
H993   H     0.11313   0.48414   0.61266   0.00000  Uiso   1.00
H994   H     0.22021   0.51586   0.88734   0.00000  Uiso   1.00
H995   H     0.32815   0.46406   0.98031   0.00000  Uiso   1.00
H996   H     0.00518   0.53593   0.51968   0.00000  Uiso   1.00
H997   H     0.16896   0.44849   0.57416   0.00000  Uiso   1.00
H998   H     0.16437   0.55151   0.92585   0.00000  Uiso   1.00
C999   C     0.28977   0.35496   0.76207   0.00000  Uiso   1.00
C1000  C     0.04356   0.64504   0.73793   0.00000  Uiso   1.00
H1001  H     0.25571   0.37131   0.77182   0.00000  Uiso   1.00
H1002  H     0.07763   0.62869   0.72818   0.00000  Uiso   1.00
C1003  C     0.28953   0.64565   0.76183   0.00000  Uiso   1.00
C1004  C     0.04381   0.35435   0.73817   0.00000  Uiso   1.00
H1005  H     0.25545   0.62975   0.77171   0.00000  Uiso   1.00
H1006  H     0.07788   0.37025   0.72829   0.00000  Uiso   1.00
C1007  C     0.33307   0.62390   0.74969   0.00000  Uiso   1.00
C1008  C     0.00027   0.37610   0.75031   0.00000  Uiso   1.00
C1009  C     0.18727   0.46850   0.77046   0.00000  Uiso   1.00
C1010  C     0.14607   0.53150   0.72954   0.00000  Uiso   1.00
H1011  H     0.20254   0.44369   0.78732   0.00000  Uiso   1.00
H1012  H     0.13080   0.55631   0.71268   0.00000  Uiso   1.00
C1013  C     0.13792   0.46815   0.77085   0.00000  Uiso   1.00
C1014  C     0.19541   0.53185   0.72915   0.00000  Uiso   1.00
N1015  N     0.11736   0.50001   0.74999   0.00000  Uiso   1.00
N1016  N     0.21597   0.49999   0.75001   0.00000  Uiso   1.00
C1017  C     0.25786   0.42342   0.54347   0.00000  Uiso   1.00
O1018  O     0.29150   0.40372   0.52080   0.00000  Uiso   1.00
O1019  O     0.24056   0.41306   0.58967   0.00000  Uiso   1.00
H1020  H     0.25976   0.38994   0.60033   0.00000  Uiso   1.00
C1021  C     0.07548   0.57658   0.95653   0.00000  Uiso   1.00
O1022  O     0.04183   0.59628   0.97920   0.00000  Uiso   1.00
O1023  O     0.09278   0.58695   0.91034   0.00000  Uiso   1.00
H1024  H     0.07358   0.61006   0.89967   0.00000  Uiso   1.00
C1025  C     0.28946   0.51030   0.60058   0.00000  Uiso   1.00
O1026  O     0.27008   0.48221   0.62623   0.00000  Uiso   1.00
O1027  O     0.26125   0.53916   0.58333   0.00000  Uiso   1.00
H1028  H     0.22551   0.53397   0.59541   0.00000  Uiso   1.00
C1029  C     0.04387   0.48970   0.89941   0.00000  Uiso   1.00
O1030  O     0.06325   0.51779   0.87378   0.00000  Uiso   1.00
O1031  O     0.07208   0.46083   0.91665   0.00000  Uiso   1.00
H1032  H     0.10782   0.46602   0.90458   0.00000  Uiso   1.00
C1033  C     0.11100   0.43187   0.79429   0.00000  Uiso   1.00
O1034  O     0.07273   0.43598   0.82227   0.00000  Uiso   1.00
O1035  O     0.13143   0.39252   0.78644   0.00000  Uiso   1.00
H1036  H     0.11043   0.37004   0.80508   0.00000  Uiso   1.00
C1037  C     0.22233   0.56813   0.70571   0.00000  Uiso   1.00
O1038  O     0.26061   0.56402   0.67773   0.00000  Uiso   1.00
O1039  O     0.20190   0.60748   0.71356   0.00000  Uiso   1.00
H1040  H     0.22291   0.62996   0.69491   0.00000  Uiso   1.00
O1041  O     0.37291   0.43989   0.75000   0.00000  Uiso   1.00
O1042  O     0.62709   0.56011   0.75000   0.00000  Uiso   1.00
O1043  O     0.62706   0.43988   0.75000   0.00000  Uiso   1.00
O1044  O     0.37294   0.56012   0.74999   0.00000  Uiso   1.00
C1045  C     0.33353   0.42075   0.75018   0.00000  Uiso   1.00
C1046  C     0.66647   0.57925   0.74982   0.00000  Uiso   1.00
O1047  O     0.35186   0.50001   0.81491   0.00000  Uiso   1.00
O1048  O     0.64814   0.49999   0.68508   0.00000  Uiso   1.00
O1049  O     0.60600   0.50000   0.81492   0.00000  Uiso   1.00
O1050  O     0.39400   0.50000   0.68508   0.00000  Uiso   1.00
C1051  C     0.63989   0.50058   0.83661   0.00000  Uiso   1.00
C1052  C     0.36011   0.49942   0.66339   0.00000  Uiso   1.00
Cu1053 Cu    0.38022   0.50001   0.75000   0.00000  Uiso   1.00
Cu1054 Cu    0.61978   0.49999   0.75000   0.00000  Uiso   1.00
C1055  C     0.62572   0.49913   0.88715   0.00000  Uiso   1.00
C1056  C     0.37428   0.50087   0.61285   0.00000  Uiso   1.00
C1057  C     0.63743   0.47404   0.95975   0.00000  Uiso   1.00
C1058  C     0.36257   0.52596   0.54025   0.00000  Uiso   1.00
C1059  C     0.65730   0.48759   0.91477   0.00000  Uiso   1.00
C1060  C     0.34270   0.51240   0.58523   0.00000  Uiso   1.00
C1061  C     0.57701   0.50588   0.90835   0.00000  Uiso   1.00
C1062  C     0.42299   0.49412   0.59165   0.00000  Uiso   1.00
C1063  C     0.55798   0.49716   0.95499   0.00000  Uiso   1.00
C1064  C     0.44202   0.50283   0.54501   0.00000  Uiso   1.00
C1065  C     0.58751   0.47544   0.97904   0.00000  Uiso   1.00
C1066  C     0.41249   0.52456   0.52096   0.00000  Uiso   1.00
C1067  C     0.50982   0.50764   0.97754   0.00000  Uiso   1.00
C1068  C     0.49018   0.49235   0.52246   0.00000  Uiso   1.00
C1069  C     0.51821   0.46504   0.54269   0.00000  Uiso   1.00
C1070  C     0.48179   0.53496   0.95731   0.00000  Uiso   1.00
C1071  C     0.56637   0.45626   0.52176   0.00000  Uiso   1.00
C1072  C     0.43363   0.54374   0.97824   0.00000  Uiso   1.00
H1073  H     0.44646   0.48414   0.61266   0.00000  Uiso   1.00
H1074  H     0.55354   0.51586   0.88734   0.00000  Uiso   1.00
H1075  H     0.66149   0.46406   0.98031   0.00000  Uiso   1.00
H1076  H     0.33851   0.53593   0.51968   0.00000  Uiso   1.00
H1077  H     0.50230   0.44849   0.57416   0.00000  Uiso   1.00
H1078  H     0.49770   0.55151   0.92585   0.00000  Uiso   1.00
C1079  C     0.62310   0.35496   0.76207   0.00000  Uiso   1.00
C1080  C     0.37690   0.64504   0.73793   0.00000  Uiso   1.00
H1081  H     0.58904   0.37131   0.77182   0.00000  Uiso   1.00
H1082  H     0.41096   0.62869   0.72818   0.00000  Uiso   1.00
C1083  C     0.62286   0.64565   0.76183   0.00000  Uiso   1.00
C1084  C     0.37714   0.35435   0.73817   0.00000  Uiso   1.00
H1085  H     0.58878   0.62975   0.77171   0.00000  Uiso   1.00
H1086  H     0.41122   0.37025   0.72829   0.00000  Uiso   1.00
C1087  C     0.66640   0.62390   0.74969   0.00000  Uiso   1.00
C1088  C     0.33360   0.37610   0.75031   0.00000  Uiso   1.00
C1089  C     0.52060   0.46850   0.77046   0.00000  Uiso   1.00
C1090  C     0.47940   0.53150   0.72954   0.00000  Uiso   1.00
H1091  H     0.53587   0.44369   0.78732   0.00000  Uiso   1.00
H1092  H     0.46413   0.55631   0.71268   0.00000  Uiso   1.00
C1093  C     0.47126   0.46815   0.77085   0.00000  Uiso   1.00
C1094  C     0.52874   0.53185   0.72915   0.00000  Uiso   1.00
N1095  N     0.45069   0.50001   0.74999   0.00000  Uiso   1.00
N1096  N     0.54931   0.49999   0.75001   0.00000  Uiso   1.00
C1097  C     0.59119   0.42342   0.54347   0.00000  Uiso   1.00
O1098  O     0.62483   0.40372   0.52080   0.00000  Uiso   1.00
O1099  O     0.57389   0.41306   0.58967   0.00000  Uiso   1.00
H1100  H     0.59309   0.38994   0.60033   0.00000  Uiso   1.00
C1101  C     0.40881   0.57658   0.95653   0.00000  Uiso   1.00
O1102  O     0.37517   0.59628   0.97920   0.00000  Uiso   1.00
O1103  O     0.42611   0.58695   0.91034   0.00000  Uiso   1.00
H1104  H     0.40691   0.61006   0.89967   0.00000  Uiso   1.00
C1105  C     0.62280   0.51030   0.60058   0.00000  Uiso   1.00
O1106  O     0.60341   0.48221   0.62623   0.00000  Uiso   1.00
O1107  O     0.59459   0.53916   0.58333   0.00000  Uiso   1.00
H1108  H     0.55885   0.53397   0.59541   0.00000  Uiso   1.00
C1109  C     0.37720   0.48970   0.89941   0.00000  Uiso   1.00
O1110  O     0.39658   0.51779   0.87378   0.00000  Uiso   1.00
O1111  O     0.40541   0.46083   0.91665   0.00000  Uiso   1.00
H1112  H     0.44115   0.46602   0.90458   0.00000  Uiso   1.00
C1113  C     0.44434   0.43187   0.79429   0.00000  Uiso   1.00
O1114  O     0.40606   0.43598   0.82227   0.00000  Uiso   1.00
O1115  O     0.46476   0.39252   0.78644   0.00000  Uiso   1.00
H1116  H     0.44376   0.37004   0.80508   0.00000  Uiso   1.00
C1117  C     0.55566   0.56813   0.70571   0.00000  Uiso   1.00
O1118  O     0.59394   0.56402   0.67773   0.00000  Uiso   1.00
O1119  O     0.53524   0.60748   0.71356   0.00000  Uiso   1.00
H1120  H     0.55624   0.62996   0.69491   0.00000  Uiso   1.00
O1121  O     0.70625   0.43989   0.75000   0.00000  Uiso   1.00
O1122  O     0.96042   0.56011   0.75000   0.00000  Uiso   1.00
O1123  O     0.96039   0.43988   0.75000   0.00000  Uiso   1.00
O1124  O     0.70628   0.56012   0.74999   0.00000  Uiso   1.00
C1125  C     0.66686   0.42075   0.75018   0.00000  Uiso   1.00
C1126  C     0.99981   0.57925   0.74982   0.00000  Uiso   1.00
O1127  O     0.68519   0.50001   0.81491   0.00000  Uiso   1.00
O1128  O     0.98148   0.49999   0.68508   0.00000  Uiso   1.00
O1129  O     0.93933   0.50000   0.81492   0.00000  Uiso   1.00
O1130  O     0.72733   0.50000   0.68508   0.00000  Uiso   1.00
C1131  C     0.97322   0.50058   0.83661   0.00000  Uiso   1.00
C1132  C     0.69344   0.49942   0.66339   0.00000  Uiso   1.00
Cu1133 Cu    0.71355   0.50001   0.75000   0.00000  Uiso   1.00
Cu1134 Cu    0.95311   0.49999   0.75000   0.00000  Uiso   1.00
C1135  C     0.95905   0.49913   0.88715   0.00000  Uiso   1.00
C1136  C     0.70762   0.50087   0.61285   0.00000  Uiso   1.00
C1137  C     0.97076   0.47404   0.95975   0.00000  Uiso   1.00
C1138  C     0.69591   0.52596   0.54025   0.00000  Uiso   1.00
C1139  C     0.99063   0.48759   0.91477   0.00000  Uiso   1.00
C1140  C     0.67603   0.51240   0.58523   0.00000  Uiso   1.00
C1141  C     0.91034   0.50588   0.90835   0.00000  Uiso   1.00
C1142  C     0.75633   0.49412   0.59165   0.00000  Uiso   1.00
C1143  C     0.89131   0.49716   0.95499   0.00000  Uiso   1.00
C1144  C     0.77535   0.50283   0.54501   0.00000  Uiso   1.00
C1145  C     0.92084   0.47544   0.97904   0.00000  Uiso   1.00
C1146  C     0.74582   0.52456   0.52096   0.00000  Uiso   1.00
C1147  C     0.84315   0.50764   0.97754   0.00000  Uiso   1.00
C1148  C     0.82352   0.49235   0.52246   0.00000  Uiso   1.00
C1149  C     0.85154   0.46504   0.54269   0.00000  Uiso   1.00
C1150  C     0.81513   0.53496   0.95731   0.00000  Uiso   1.00
C1151  C     0.89971   0.45626   0.52176   0.00000  Uiso   1.00
C1152  C     0.76696   0.54374   0.97824   0.00000  Uiso   1.00
H1153  H     0.77979   0.48414   0.61266   0.00000  Uiso   1.00
H1154  H     0.88687   0.51586   0.88734   0.00000  Uiso   1.00
H1155  H     0.99482   0.46406   0.98031   0.00000  Uiso   1.00
H1156  H     0.67185   0.53593   0.51968   0.00000  Uiso   1.00
H1157  H     0.83563   0.44849   0.57416   0.00000  Uiso   1.00
H1158  H     0.83104   0.55151   0.92585   0.00000  Uiso   1.00
C1159  C     0.95644   0.35496   0.76207   0.00000  Uiso   1.00
C1160  C     0.71023   0.64504   0.73793   0.00000  Uiso   1.00
H1161  H     0.92237   0.37131   0.77182   0.00000  Uiso   1.00
H1162  H     0.74429   0.62869   0.72818   0.00000  Uiso   1.00
C1163  C     0.95620   0.64565   0.76183   0.00000  Uiso   1.00
C1164  C     0.71047   0.35435   0.73817   0.00000  Uiso   1.00
H1165  H     0.92212   0.62975   0.77171   0.00000  Uiso   1.00
H1166  H     0.74455   0.37025   0.72829   0.00000  Uiso   1.00
C1167  C     0.99973   0.62390   0.74969   0.00000  Uiso   1.00
C1168  C     0.66693   0.37610   0.75031   0.00000  Uiso   1.00
C1169  C     0.85393   0.46850   0.77046   0.00000  Uiso   1.00
C1170  C     0.81273   0.53150   0.72954   0.00000  Uiso   1.00
H1171  H     0.86920   0.44369   0.78732   0.00000  Uiso   1.00
H1172  H     0.79746   0.55631   0.71268   0.00000  Uiso   1.00
C1173  C     0.80459   0.46815   0.77085   0.00000  Uiso   1.00
C1174  C     0.86208   0.53185   0.72915   0.00000  Uiso   1.00
N1175  N     0.78403   0.50001   0.74999   0.00000  Uiso   1.00
N1176  N     0.88264   0.49999   0.75001   0.00000  Uiso   1.00
C1177  C     0.92452   0.42342   0.54347   0.00000  Uiso   1.00
O1178  O     0.95816   0.40372   0.52080   0.00000  Uiso   1.00
O1179  O     0.90722   0.41306   0.58967   0.00000  Uiso   1.00
H1180  H     0.92643   0.38994   0.60033   0.00000  Uiso   1.00
C1181  C     0.74214   0.57658   0.95653   0.00000  Uiso   1.00
O1182  O     0.70850   0.59628   0.97920   0.00000  Uiso   1.00
O1183  O     0.75944   0.58695   0.91034   0.00000  Uiso   1.00
H1184  H     0.74024   0.61006   0.89967   0.00000  Uiso   1.00
C1185  C     0.95613   0.51030   0.60058   0.00000  Uiso   1.00
O1186  O     0.93675   0.48221   0.62623   0.00000  Uiso   1.00
O1187  O     0.92792   0.53916   0.58333   0.00000  Uiso   1.00
H1188  H     0.89218   0.53397   0.59541   0.00000  Uiso   1.00
C1189  C     0.71053   0.48970   0.89941   0.00000  Uiso   1.00
O1190  O     0.72992   0.51779   0.87378   0.00000  Uiso   1.00
O1191  O     0.73875   0.46083   0.91665   0.00000  Uiso   1.00
H1192  H     0.77448   0.46602   0.90458   0.00000  Uiso   1.00
C1193  C     0.77767   0.43187   0.79429   0.00000  Uiso   1.00
O1194  O     0.73939   0.43598   0.82227   0.00000  Uiso   1.00
O1195  O     0.79810   0.39252   0.78644   0.00000  Uiso   1.00
H1196  H     0.77710   0.37004   0.80508   0.00000  Uiso   1.00
C1197  C     0.88900   0.56813   0.70571   0.00000  Uiso   1.00
O1198  O     0.92727   0.56402   0.67773   0.00000  Uiso   1.00
O1199  O     0.86857   0.60748   0.71356   0.00000  Uiso   1.00
H1200  H     0.88957   0.62996   0.69491   0.00000  Uiso   1.00
O1201  O     0.03958   0.77322   0.75000   0.00000  Uiso   1.00
O1202  O     0.29375   0.89345   0.75000   0.00000  Uiso   1.00
O1203  O     0.29372   0.77321   0.75000   0.00000  Uiso   1.00
O1204  O     0.03961   0.89346   0.74999   0.00000  Uiso   1.00
C1205  C     0.00019   0.75408   0.75018   0.00000  Uiso   1.00
C1206  C     0.33314   0.91258   0.74982   0.00000  Uiso   1.00
O1207  O     0.01852   0.83334   0.81491   0.00000  Uiso   1.00
O1208  O     0.31481   0.83332   0.68508   0.00000  Uiso   1.00
O1209  O     0.27267   0.83333   0.81492   0.00000  Uiso   1.00
O1210  O     0.06067   0.83333   0.68508   0.00000  Uiso   1.00
C1211  C     0.30656   0.83391   0.83661   0.00000  Uiso   1.00
C1212  C     0.02678   0.83276   0.66339   0.00000  Uiso   1.00
Cu1213 Cu    0.04689   0.83334   0.75000   0.00000  Uiso   1.00
Cu1214 Cu    0.28645   0.83333   0.75000   0.00000  Uiso   1.00
C1215  C     0.29238   0.83246   0.88715   0.00000  Uiso   1.00
C1216  C     0.04095   0.83420   0.61285   0.00000  Uiso   1.00
C1217  C     0.30409   0.80737   0.95975   0.00000  Uiso   1.00
C1218  C     0.02924   0.85929   0.54025   0.00000  Uiso   1.00
C1219  C     0.32397   0.82093   0.91477   0.00000  Uiso   1.00
C1220  C     0.00937   0.84574   0.58523   0.00000  Uiso   1.00
C1221  C     0.24367   0.83921   0.90835   0.00000  Uiso   1.00
C1222  C     0.08966   0.82745   0.59165   0.00000  Uiso   1.00
C1223  C     0.22465   0.83050   0.95499   0.00000  Uiso   1.00
C1224  C     0.10869   0.83617   0.54501   0.00000  Uiso   1.00
C1225  C     0.25418   0.80877   0.97904   0.00000  Uiso   1.00
C1226  C     0.07916   0.85789   0.52096   0.00000  Uiso   1.00
C1227  C     0.17648   0.84098   0.97754   0.00000  Uiso   1.00
C1228  C     0.15685   0.82569   0.52246   0.00000  Uiso   1.00
C1229  C     0.18487   0.79837   0.54269   0.00000  Uiso   1.00
C1230  C     0.14846   0.86829   0.95731   0.00000  Uiso   1.00
C1231  C     0.23304   0.78959   0.52176   0.00000  Uiso   1.00
C1232  C     0.10029   0.87707   0.97824   0.00000  Uiso   1.00
H1233  H     0.11313   0.81747   0.61266   0.00000  Uiso   1.00
H1234  H     0.22021   0.84919   0.88734   0.00000  Uiso   1.00
H1235  H     0.32815   0.79739   0.98031   0.00000  Uiso   1.00
H1236  H     0.00518   0.86927   0.51968   0.00000  Uiso   1.00
H1237  H     0.16896   0.78182   0.57416   0.00000  Uiso   1.00
H1238  H     0.16437   0.88484   0.92585   0.00000  Uiso   1.00
C1239  C     0.28977   0.68829   0.76207   0.00000  Uiso   1.00
C1240  C     0.04356   0.97837   0.73793   0.00000  Uiso   1.00
H1241  H     0.25571   0.70464   0.77182   0.00000  Uiso   1.00
H1242  H     0.07763   0.96203   0.72818   0.00000  Uiso   1.00
C1243  C     0.28953   0.97898   0.76183   0.00000  Uiso   1.00
C1244  C     0.04381   0.68769   0.73817   0.00000  Uiso   1.00
H1245  H     0.25545   0.96308   0.77171   0.00000  Uiso   1.00
H1246  H     0.07788   0.70358   0.72829   0.00000  Uiso   1.00
C1247  C     0.33307   0.95723   0.74969   0.00000  Uiso   1.00
C1248  C     0.00027   0.70944   0.75031   0.00000  Uiso   1.00
C1249  C     0.18727   0.80184   0.77046   0.00000  Uiso   1.00
C1250  C     0.14607   0.86483   0.72954   0.00000  Uiso   1.00
H1251  H     0.20254   0.77702   0.78732   0.00000  Uiso   1.00
H1252  H     0.13080   0.88964   0.71268   0.00000  Uiso   1.00
C1253  C     0.13792   0.80148   0.77085   0.00000  Uiso   1.00
C1254  C     0.19541   0.86518   0.72915   0.00000  Uiso   1.00
N1255  N     0.11736   0.83334   0.74999   0.00000  Uiso   1.00
N1256  N     0.21597   0.83332   0.75001   0.00000  Uiso   1.00
C1257  C     0.25786   0.75675   0.54347   0.00000  Uiso   1.00
O1258  O     0.29150   0.73705   0.52080   0.00000  Uiso   1.00
O1259  O     0.24056   0.74639   0.58967   0.00000  Uiso   1.00
H1260  H     0.25976   0.72327   0.60033   0.00000  Uiso   1.00
C1261  C     0.07548   0.90992   0.95653   0.00000  Uiso   1.00
O1262  O     0.04183   0.92961   0.97920   0.00000  Uiso   1.00
O1263  O     0.09278   0.92028   0.91034   0.00000  Uiso   1.00
H1264  H     0.07358   0.94340   0.89967   0.00000  Uiso   1.00
C1265  C     0.28946   0.84363   0.60058   0.00000  Uiso   1.00
O1266  O     0.27008   0.81555   0.62623   0.00000  Uiso   1.00
O1267  O     0.26125   0.87249   0.58333   0.00000  Uiso   1.00
H1268  H     0.22551   0.86730   0.59541   0.00000  Uiso   1.00
C1269  C     0.04387   0.82303   0.89941   0.00000  Uiso   1.00
O1270  O     0.06325   0.85112   0.87378   0.00000  Uiso   1.00
O1271  O     0.07208   0.79417   0.91665   0.00000  Uiso   1.00
H1272  H     0.10782   0.79935   0.90458   0.00000  Uiso   1.00
C1273  C     0.11100   0.76520   0.79429   0.00000  Uiso   1.00
O1274  O     0.07273   0.76932   0.82227   0.00000  Uiso   1.00
O1275  O     0.13143   0.72585   0.78644   0.00000  Uiso   1.00
H1276  H     0.11043   0.70337   0.80508   0.00000  Uiso   1.00
C1277  C     0.22233   0.90146   0.70571   0.00000  Uiso   1.00
O1278  O     0.26061   0.89735   0.67773   0.00000  Uiso   1.00
O1279  O     0.20190   0.94081   0.71356   0.00000  Uiso   1.00
H1280  H     0.22291   0.96329   0.69491   0.00000  Uiso   1.00
O1281  O     0.37291   0.77322   0.75000   0.00000  Uiso   1.00
O1282  O     0.62709   0.89345   0.75000   0.00000  Uiso   1.00
O1283  O     0.62706   0.77321   0.75000   0.00000  Uiso   1.00
O1284  O     0.37294   0.89346   0.74999   0.00000  Uiso   1.00
C1285  C     0.33353   0.75408   0.75018   0.00000  Uiso   1.00
C1286  C     0.66647   0.91258   0.74982   0.00000  Uiso   1.00
O1287  O     0.35186   0.83334   0.81491   0.00000  Uiso   1.00
O1288  O     0.64814   0.83332   0.68508   0.00000  Uiso   1.00
O1289  O     0.60600   0.83333   0.81492   0.00000  Uiso   1.00
O1290  O     0.39400   0.83333   0.68508   0.00000  Uiso   1.00
C1291  C     0.63989   0.83391   0.83661   0.00000  Uiso   1.00
C1292  C     0.36011   0.83276   0.66339   0.00000  Uiso   1.00
Cu1293 Cu    0.38022   0.83334   0.75000   0.00000  Uiso   1.00
Cu1294 Cu    0.61978   0.83333   0.75000   0.00000  Uiso   1.00
C1295  C     0.62572   0.83246   0.88715   0.00000  Uiso   1.00
C1296  C     0.37428   0.83420   0.61285   0.00000  Uiso   1.00
C1297  C     0.63743   0.80737   0.95975   0.00000  Uiso   1.00
C1298  C     0.36257   0.85929   0.54025   0.00000  Uiso   1.00
C1299  C     0.65730   0.82093   0.91477   0.00000  Uiso   1.00
C1300  C     0.34270   0.84574   0.58523   0.00000  Uiso   1.00
C1301  C     0.57701   0.83921   0.90835   0.00000  Uiso   1.00
C1302  C     0.42299   0.82745   0.59165   0.00000  Uiso   1.00
C1303  C     0.55798   0.83050   0.95499   0.00000  Uiso   1.00
C1304  C     0.44202   0.83617   0.54501   0.00000  Uiso   1.00
C1305  C     0.58751   0.80877   0.97904   0.00000  Uiso   1.00
C1306  C     0.41249   0.85789   0.52096   0.00000  Uiso   1.00
C1307  C     0.50982   0.84098   0.97754   0.00000  Uiso   1.00
C1308  C     0.49018   0.82569   0.52246   0.00000  Uiso   1.00
C1309  C     0.51821   0.79837   0.54269   0.00000  Uiso   1.00
C1310  C     0.48179   0.86829   0.95731   0.00000  Uiso   1.00
C1311  C     0.56637   0.78959   0.52176   0.00000  Uiso   1.00
C1312  C     0.43363   0.87707   0.97824   0.00000  Uiso   1.00
H1313  H     0.44646   0.81747   0.61266   0.00000  Uiso   1.00
H1314  H     0.55354   0.84919   0.88734   0.00000  Uiso   1.00
H1315  H     0.66149   0.79739   0.98031   0.00000  Uiso   1.00
H1316  H     0.33851   0.86927   0.51968   0.00000  Uiso   1.00
H1317  H     0.50230   0.78182   0.57416   0.00000  Uiso   1.00
H1318  H     0.49770   0.88484   0.92585   0.00000  Uiso   1.00
C1319  C     0.62310   0.68829   0.76207   0.00000  Uiso   1.00
C1320  C     0.37690   0.97837   0.73793   0.00000  Uiso   1.00
H1321  H     0.58904   0.70464   0.77182   0.00000  Uiso   1.00
H1322  H     0.41096   0.96203   0.72818   0.00000  Uiso   1.00
C1323  C     0.62286   0.97898   0.76183   0.00000  Uiso   1.00
C1324  C     0.37714   0.68769   0.73817   0.00000  Uiso   1.00
H1325  H     0.58878   0.96308   0.77171   0.00000  Uiso   1.00
H1326  H     0.41122   0.70358   0.72829   0.00000  Uiso   1.00
C1327  C     0.66640   0.95723   0.74969   0.00000  Uiso   1.00
C1328  C     0.33360   0.70944   0.75031   0.00000  Uiso   1.00
C1329  C     0.52060   0.80184   0.77046   0.00000  Uiso   1.00
C1330  C     0.47940   0.86483   0.72954   0.00000  Uiso   1.00
H1331  H     0.53587   0.77702   0.78732   0.00000  Uiso   1.00
H1332  H     0.46413   0.88964   0.71268   0.00000  Uiso   1.00
C1333  C     0.47126   0.80148   0.77085   0.00000  Uiso   1.00
C1334  C     0.52874   0.86518   0.72915   0.00000  Uiso   1.00
N1335  N     0.45069   0.83334   0.74999   0.00000  Uiso   1.00
N1336  N     0.54931   0.83332   0.75001   0.00000  Uiso   1.00
C1337  C     0.59119   0.75675   0.54347   0.00000  Uiso   1.00
O1338  O     0.62483   0.73705   0.52080   0.00000  Uiso   1.00
O1339  O     0.57389   0.74639   0.58967   0.00000  Uiso   1.00
H1340  H     0.59309   0.72327   0.60033   0.00000  Uiso   1.00
C1341  C     0.40881   0.90992   0.95653   0.00000  Uiso   1.00
O1342  O     0.37517   0.92961   0.97920   0.00000  Uiso   1.00
O1343  O     0.42611   0.92028   0.91034   0.00000  Uiso   1.00
H1344  H     0.40691   0.94340   0.89967   0.00000  Uiso   1.00
C1345  C     0.62280   0.84363   0.60058   0.00000  Uiso   1.00
O1346  O     0.60341   0.81555   0.62623   0.00000  Uiso   1.00
O1347  O     0.59459   0.87249   0.58333   0.00000  Uiso   1.00
H1348  H     0.55885   0.86730   0.59541   0.00000  Uiso   1.00
C1349  C     0.37720   0.82303   0.89941   0.00000  Uiso   1.00
O1350  O     0.39658   0.85112   0.87378   0.00000  Uiso   1.00
O1351  O     0.40541   0.79417   0.91665   0.00000  Uiso   1.00
H1352  H     0.44115   0.79935   0.90458   0.00000  Uiso   1.00
C1353  C     0.44434   0.76520   0.79429   0.00000  Uiso   1.00
O1354  O     0.40606   0.76932   0.82227   0.00000  Uiso   1.00
O1355  O     0.46476   0.72585   0.78644   0.00000  Uiso   1.00
H1356  H     0.44376   0.70337   0.80508   0.00000  Uiso   1.00
C1357  C     0.55566   0.90146   0.70571   0.00000  Uiso   1.00
O1358  O     0.59394   0.89735   0.67773   0.00000  Uiso   1.00
O1359  O     0.53524   0.94081   0.71356   0.00000  Uiso   1.00
H1360  H     0.55624   0.96329   0.69491   0.00000  Uiso   1.00
O1361  O     0.70625   0.77322   0.75000   0.00000  Uiso   1.00
O1362  O     0.96042   0.89345   0.75000   0.00000  Uiso   1.00
O1363  O     0.96039   0.77321   0.75000   0.00000  Uiso   1.00
O1364  O     0.70628   0.89346   0.74999   0.00000  Uiso   1.00
C1365  C     0.66686   0.75408   0.75018   0.00000  Uiso   1.00
C1366  C     0.99981   0.91258   0.74982   0.00000  Uiso   1.00
O1367  O     0.68519   0.83334   0.81491   0.00000  Uiso   1.00
O1368  O     0.98148   0.83332   0.68508   0.00000  Uiso   1.00
O1369  O     0.93933   0.83333   0.81492   0.00000  Uiso   1.00
O1370  O     0.72733   0.83333   0.68508   0.00000  Uiso   1.00
C1371  C     0.97322   0.83391   0.83661   0.00000  Uiso   1.00
C1372  C     0.69344   0.83276   0.66339   0.00000  Uiso   1.00
Cu1373 Cu    0.71355   0.83334   0.75000   0.00000  Uiso   1.00
Cu1374 Cu    0.95311   0.83333   0.75000   0.00000  Uiso   1.00
C1375  C     0.95905   0.83246   0.88715   0.00000  Uiso   1.00
C1376  C     0.70762   0.83420   0.61285   0.00000  Uiso   1.00
C1377  C     0.97076   0.80737   0.95975   0.00000  Uiso   1.00
C1378  C     0.69591   0.85929   0.54025   0.00000  Uiso   1.00
C1379  C     0.99063   0.82093   0.91477   0.00000  Uiso   1.00
C1380  C     0.67603   0.84574   0.58523   0.00000  Uiso   1.00
C1381  C     0.91034   0.83921   0.90835   0.00000  Uiso   1.00
C1382  C     0.75633   0.82745   0.59165   0.00000  Uiso   1.00
C1383  C     0.89131   0.83050   0.95499   0.00000  Uiso   1.00
C1384  C     0.77535   0.83617   0.54501   0.00000  Uiso   1.00
C1385  C     0.92084   0.80877   0.97904   0.00000  Uiso   1.00
C1386  C     0.74582   0.85789   0.52096   0.00000  Uiso   1.00
C1387  C     0.84315   0.84098   0.97754   0.00000  Uiso   1.00
C1388  C     0.82352   0.82569   0.52246   0.00000  Uiso   1.00
C1389  C     0.85154   0.79837   0.54269   0.00000  Uiso   1.00
C1390  C     0.81513   0.86829   0.95731   0.00000  Uiso   1.00
C1391  C     0.89971   0.78959   0.52176   0.00000  Uiso   1.00
C1392  C     0.76696   0.87707   0.97824   0.00000  Uiso   1.00
H1393  H     0.77979   0.81747   0.61266   0.00000  Uiso   1.00
H1394  H     0.88687   0.84919   0.88734   0.00000  Uiso   1.00
H1395  H     0.99482   0.79739   0.98031   0.00000  Uiso   1.00
H1396  H     0.67185   0.86927   0.51968   0.00000  Uiso   1.00
H1397  H     0.83563   0.78182   0.57416   0.00000  Uiso   1.00
H1398  H     0.83104   0.88484   0.92585   0.00000  Uiso   1.00
C1399  C     0.95644   0.68829   0.76207   0.00000  Uiso   1.00
C1400  C     0.71023   0.97837   0.73793   0.00000  Uiso   1.00
H1401  H     0.92237   0.70464   0.77182   0.00000  Uiso   1.00
H1402  H     0.74429   0.96203   0.72818   0.00000  Uiso   1.00
C1403  C     0.95620   0.97898   0.76183   0.00000  Uiso   1.00
C1404  C     0.71047   0.68769   0.73817   0.00000  Uiso   1.00
H1405  H     0.92212   0.96308   0.77171   0.00000  Uiso   1.00
H1406  H     0.74455   0.70358   0.72829   0.00000  Uiso   1.00
C1407  C     0.99973   0.95723   0.74969   0.00000  Uiso   1.00
C1408  C     0.66693   0.70944   0.75031   0.00000  Uiso   1.00
C1409  C     0.85393   0.80184   0.77046   0.00000  Uiso   1.00
C1410  C     0.81273   0.86483   0.72954   0.00000  Uiso   1.00
H1411  H     0.86920   0.77702   0.78732   0.00000  Uiso   1.00
H1412  H     0.79746   0.88964   0.71268   0.00000  Uiso   1.00
C1413  C     0.80459   0.80148   0.77085   0.00000  Uiso   1.00
C1414  C     0.86208   0.86518   0.72915   0.00000  Uiso   1.00
N1415  N     0.78403   0.83334   0.74999   0.00000  Uiso   1.00
N1416  N     0.88264   0.83332   0.75001   0.00000  Uiso   1.00
C1417  C     0.92452   0.75675   0.54347   0.00000  Uiso   1.00
O1418  O     0.95816   0.73705   0.52080   0.00000  Uiso   1.00
O1419  O     0.90722   0.74639   0.58967   0.00000  Uiso   1.00
H1420  H     0.92643   0.72327   0.60033   0.00000  Uiso   1.00
C1421  C     0.74214   0.90992   0.95653   0.00000  Uiso   1.00
O1422  O     0.70850   0.92961   0.97920   0.00000  Uiso   1.00
O1423  O     0.75944   0.92028   0.91034   0.00000  Uiso   1.00
H1424  H     0.74024   0.94340   0.89967   0.00000  Uiso   1.00
C1425  C     0.95613   0.84363   0.60058   0.00000  Uiso   1.00
O1426  O     0.93675   0.81555   0.62623   0.00000  Uiso   1.00
O1427  O     0.92792   0.87249   0.58333   0.00000  Uiso   1.00
H1428  H     0.89218   0.86730   0.59541   0.00000  Uiso   1.00
C1429  C     0.71053   0.82303   0.89941   0.00000  Uiso   1.00
O1430  O     0.72992   0.85112   0.87378   0.00000  Uiso   1.00
O1431  O     0.73875   0.79417   0.91665   0.00000  Uiso   1.00
H1432  H     0.77448   0.79935   0.90458   0.00000  Uiso   1.00
C1433  C     0.77767   0.76520   0.79429   0.00000  Uiso   1.00
O1434  O     0.73939   0.76932   0.82227   0.00000  Uiso   1.00
O1435  O     0.79810   0.72585   0.78644   0.00000  Uiso   1.00
H1436  H     0.77710   0.70337   0.80508   0.00000  Uiso   1.00
C1437  C     0.88900   0.90146   0.70571   0.00000  Uiso   1.00
O1438  O     0.92727   0.89735   0.67773   0.00000  Uiso   1.00
O1439  O     0.86857   0.94081   0.71356   0.00000  Uiso   1.00
H1440  H     0.88957   0.96329   0.69491   0.00000  Uiso   1.00
loop_
_geom_bond_atom_site_label_1
_geom_bond_atom_site_label_2
_geom_bond_distance
_geom_bond_site_symmetry_2
_ccdc_geom_bond_type
O1     C5      1.299   .     A
O1     Cu13    1.965   .     S
O2     C6      1.299   .     A
O2     Cu14    1.965   .     S
O3     Cu14    1.957   .     S
O3     C85     1.292   .     S
O4     Cu13    1.957   .     S
O4     C166    1.292   1_455 S
C5     C48     1.448   .     S
C5     O163    1.292   1_455 S
C6     C47     1.448   .     S
C6     O84     1.292   .     S
O7     Cu13    1.940   .     S
O7     C171    1.303   1_455 S
O8     Cu14    1.940   .     S
O8     C92     1.303   .     S
O9     Cu14    1.918   .     S
O9     C11     1.309   .     A
O10    C12     1.309   .     A
O10    Cu13    1.918   .     S
C11    C15     1.490   .     S
C11    O87     1.303   .     S
C12    C16     1.490   .     S
C12    O168    1.303   1_455 S
Cu13   N55     2.025   .     S
Cu13   Cu174   2.694   1_455 S
Cu14   N56     2.025   .     S
Cu14   Cu93    2.694   .     S
C15    C19     1.422   .     A
C15    C21     1.403   .     A
C16    C20     1.422   .     A
C16    C22     1.403   .     A
C17    C25     1.407   .     A
C17    C19     1.402   .     A
C17    H35     1.082   .     S
C18    C26     1.407   .     A
C18    H36     1.082   .     S
C18    C20     1.402   .     A
C19    C149    1.484   .     S
C20    C225    1.484   1_455 S
C21    H34     1.079   .     S
C21    C23     1.407   .     A
C22    C24     1.407   .     A
C22    H33     1.079   .     S
C23    C27     1.423   .     A
C23    C25     1.416   .     A
C24    C26     1.416   .     A
C24    C28     1.423   .     A
C25    C751    1.414   .     S
C26    C752    1.414   1_554 S
C27    C30     1.412   .     A
C27    C748    1.416   .     S
C28    C29     1.412   .     A
C28    C747    1.416   1_554 S
C29    C31     1.399   .     A
C29    H37     1.079   .     S
C30    H38     1.079   .     S
C30    C32     1.399   .     A
C31    C57     1.495   .     S
C31    C745    1.414   1_554 S
C32    C61     1.495   .     S
C32    C746    1.414   .     S
C39    H41     1.083   .     S
C39    C523    1.384   1_545 S
C39    C128    1.403   .     S
C40    H42     1.083   .     S
C40    C284    1.384   .     S
C40    C207    1.403   1_455 S
C43    H45     1.083   .     S
C43    C47     1.398   .     A
C43    C279    1.384   .     S
C44    H46     1.083   .     S
C44    C48     1.398   .     A
C44    C520    1.384   1_545 S
C47    C120    1.403   .     S
C48    C199    1.403   1_455 S
C49    H51     1.083   .     S
C49    N56     1.353   .     A
C49    C53     1.415   .     A
C50    C54     1.415   .     A
C50    H52     1.083   .     S
C50    N55     1.353   .     A
C53    N55     1.391   .     A
C53    C73     1.476   .     S
C54    C77     1.476   .     S
C54    N56     1.391   .     A
C57    O59     1.399   .     S
C57    O58     1.223   .     D
O59    H60     1.014   .     S
C61    O63     1.399   .     S
C61    O62     1.223   .     D
O63    H64     1.014   .     S
C65    O67     1.399   .     S
C65    O66     1.222   .     D
C65    C100    1.484   .     S
O67    H68     1.014   .     S
C69    O71     1.399   .     S
C69    O70     1.222   .     D
C69    C179    1.484   1_455 S
O71    H72     1.014   .     S
C73    O74     1.218   .     D
C73    O75     1.399   .     S
O75    H76     1.014   .     S
C77    O78     1.218   .     D
C77    O79     1.399   .     S
O79    H80     1.014   .     S
O81    C85     1.299   .     A
O81    Cu93    1.965   .     S
O82    C86     1.299   .     A
O82    Cu94    1.965   .     S
O83    Cu94    1.957   .     S
O83    C165    1.292   .     S
O84    Cu93    1.957   .     S
C85    C128    1.448   .     S
C86    C127    1.448   .     S
C86    O164    1.292   .     S
O87    Cu93    1.940   .     S
O88    Cu94    1.940   .     S
O88    C172    1.303   .     S
O89    Cu94    1.918   .     S
O89    C91     1.309   .     A
O90    C92     1.309   .     A
O90    Cu93    1.918   .     S
C91    C95     1.490   .     S
C91    O167    1.303   .     S
C92    C96     1.490   .     S
Cu93   N135    2.025   .     S
Cu94   N136    2.025   .     S
Cu94   Cu173   2.694   .     S
C95    C99     1.422   .     A
C95    C101    1.403   .     A
C96    C100    1.422   .     A
C96    C102    1.403   .     A
C97    C105    1.407   .     A
C97    C99     1.402   .     A
C97    H115    1.082   .     S
C98    C106    1.407   .     A
C98    H116    1.082   .     S
C98    C100    1.402   .     A
C99    C229    1.484   .     S
C101   H114    1.079   .     S
C101   C103    1.407   .     A
C102   C104    1.407   .     A
C102   H113    1.079   .     S
C103   C107    1.423   .     A
C103   C105    1.416   .     A
C104   C106    1.416   .     A
C104   C108    1.423   .     A
C105   C831    1.414   .     S
C106   C832    1.414   1_554 S
C107   C110    1.412   .     A
C107   C828    1.416   .     S
C108   C109    1.412   .     A
C108   C827    1.416   1_554 S
C109   C111    1.399   .     A
C109   H117    1.079   .     S
C110   H118    1.079   .     S
C110   C112    1.399   .     A
C111   C137    1.495   .     S
C111   C825    1.414   1_554 S
C112   C141    1.495   .     S
C112   C826    1.414   .     S
C119   H121    1.083   .     S
C119   C603    1.384   1_545 S
C119   C208    1.403   .     S
C120   H122    1.083   .     S
C120   C364    1.384   .     S
C123   H125    1.083   .     S
C123   C127    1.398   .     A
C123   C359    1.384   .     S
C124   H126    1.083   .     S
C124   C128    1.398   .     A
C124   C600    1.384   1_545 S
C127   C200    1.403   .     S
C129   H131    1.083   .     S
C129   N136    1.353   .     A
C129   C133    1.415   .     A
C130   C134    1.415   .     A
C130   H132    1.083   .     S
C130   N135    1.353   .     A
C133   N135    1.391   .     A
C133   C153    1.476   .     S
C134   C157    1.476   .     S
C134   N136    1.391   .     A
C137   O139    1.399   .     S
C137   O138    1.223   .     D
O139   H140    1.014   .     S
C141   O143    1.399   .     S
C141   O142    1.223   .     D
O143   H144    1.014   .     S
C145   O147    1.399   .     S
C145   O146    1.222   .     D
C145   C180    1.484   .     S
O147   H148    1.014   .     S
C149   O151    1.399   .     S
C149   O150    1.222   .     D
O151   H152    1.014   .     S
C153   O154    1.218   .     D
C153   O155    1.399   .     S
O155   H156    1.014   .     S
C157   O158    1.218   .     D
C157   O159    1.399   .     S
O159   H160    1.014   .     S
O161   C165    1.299   .     A
O161   Cu173   1.965   .     S
O162   C166    1.299   .     A
O162   Cu174   1.965   .     S
O163   Cu174   1.957   .     S
O163   C5      1.292   1_655 S
O164   Cu173   1.957   .     S
C165   C208    1.448   .     S
C166   C207    1.448   .     S
C166   O4      1.292   1_655 S
O167   Cu173   1.940   .     S
O168   Cu174   1.940   .     S
O168   C12     1.303   1_655 S
O169   Cu174   1.918   .     S
O169   C171    1.309   .     A
O170   C172    1.309   .     A
O170   Cu173   1.918   .     S
C171   C175    1.490   .     S
C171   O7      1.303   1_655 S
C172   C176    1.490   .     S
Cu173  N215    2.025   .     S
Cu174  N216    2.025   .     S
Cu174  Cu13    2.694   1_655 S
C175   C179    1.422   .     A
C175   C181    1.403   .     A
C176   C180    1.422   .     A
C176   C182    1.403   .     A
C177   C185    1.407   .     A
C177   C179    1.402   .     A
C177   H195    1.082   .     S
C178   C186    1.407   .     A
C178   H196    1.082   .     S
C178   C180    1.402   .     A
C179   C69     1.484   1_655 S
C181   H194    1.079   .     S
C181   C183    1.407   .     A
C182   C184    1.407   .     A
C182   H193    1.079   .     S
C183   C187    1.423   .     A
C183   C185    1.416   .     A
C184   C186    1.416   .     A
C184   C188    1.423   .     A
C185   C911    1.414   .     S
C186   C912    1.414   1_554 S
C187   C190    1.412   .     A
C187   C908    1.416   .     S
C188   C189    1.412   .     A
C188   C907    1.416   1_554 S
C189   C191    1.399   .     A
C189   H197    1.079   .     S
C190   H198    1.079   .     S
C190   C192    1.399   .     A
C191   C217    1.495   .     S
C191   C905    1.414   1_554 S
C192   C221    1.495   .     S
C192   C906    1.414   .     S
C199   H201    1.083   .     S
C199   C683    1.384   1_545 S
C199   C48     1.403   1_655 S
C200   H202    1.083   .     S
C200   C444    1.384   .     S
C203   H205    1.083   .     S
C203   C207    1.398   .     A
C203   C439    1.384   .     S
C204   H206    1.083   .     S
C204   C208    1.398   .     A
C204   C680    1.384   1_545 S
C207   C40     1.403   1_655 S
C209   H211    1.083   .     S
C209   N216    1.353   .     A
C209   C213    1.415   .     A
C210   C214    1.415   .     A
C210   H212    1.083   .     S
C210   N215    1.353   .     A
C213   N215    1.391   .     A
C213   C233    1.476   .     S
C214   C237    1.476   .     S
C214   N216    1.391   .     A
C217   O219    1.399   .     S
C217   O218    1.223   .     D
O219   H220    1.014   .     S
C221   O223    1.399   .     S
C221   O222    1.223   .     D
O223   H224    1.014   .     S
C225   O227    1.399   .     S
C225   O226    1.222   .     D
C225   C20     1.484   1_655 S
O227   H228    1.014   .     S
C229   O231    1.399   .     S
C229   O230    1.222   .     D
O231   H232    1.014   .     S
C233   O234    1.218   .     D
C233   O235    1.399   .     S
O235   H236    1.014   .     S
C237   O238    1.218   .     D
C237   O239    1.399   .     S
O239   H240    1.014   .     S
O241   C245    1.299   .     A
O241   Cu253   1.965   .     S
O242   C246    1.299   .     A
O242   Cu254   1.965   .     S
O243   Cu254   1.957   .     S
O243   C325    1.292   .     S
O244   Cu253   1.957   .     S
O244   C406    1.292   1_455 S
C245   C288    1.448   .     S
C245   O403    1.292   1_455 S
C246   C287    1.448   .     S
C246   O324    1.292   .     S
O247   Cu253   1.940   .     S
O247   C411    1.303   1_455 S
O248   Cu254   1.940   .     S
O248   C332    1.303   .     S
O249   Cu254   1.918   .     S
O249   C251    1.309   .     A
O250   C252    1.309   .     A
O250   Cu253   1.918   .     S
C251   C255    1.490   .     S
C251   O327    1.303   .     S
C252   C256    1.490   .     S
C252   O408    1.303   1_455 S
Cu253  N295    2.025   .     S
Cu253  Cu414   2.694   1_455 S
Cu254  N296    2.025   .     S
Cu254  Cu333   2.694   .     S
C255   C259    1.422   .     A
C255   C261    1.403   .     A
C256   C260    1.422   .     A
C256   C262    1.403   .     A
C257   C265    1.407   .     A
C257   C259    1.402   .     A
C257   H275    1.082   .     S
C258   C266    1.407   .     A
C258   H276    1.082   .     S
C258   C260    1.402   .     A
C259   C389    1.484   .     S
C260   C465    1.484   1_455 S
C261   H274    1.079   .     S
C261   C263    1.407   .     A
C262   C264    1.407   .     A
C262   H273    1.079   .     S
C263   C267    1.423   .     A
C263   C265    1.416   .     A
C264   C266    1.416   .     A
C264   C268    1.423   .     A
C265   C991    1.414   .     S
C266   C992    1.414   1_554 S
C267   C270    1.412   .     A
C267   C988    1.416   .     S
C268   C269    1.412   .     A
C268   C987    1.416   1_554 S
C269   C271    1.399   .     A
C269   H277    1.079   .     S
C270   H278    1.079   .     S
C270   C272    1.399   .     A
C271   C297    1.495   .     S
C271   C985    1.414   1_554 S
C272   C301    1.495   .     S
C272   C986    1.414   .     S
C279   H281    1.083   .     S
C279   C368    1.403   .     S
C280   H282    1.083   .     S
C280   C524    1.384   .     S
C280   C447    1.403   1_455 S
C283   H285    1.083   .     S
C283   C287    1.398   .     A
C283   C519    1.384   .     S
C284   H286    1.083   .     S
C284   C288    1.398   .     A
C287   C360    1.403   .     S
C288   C439    1.403   1_455 S
C289   H291    1.083   .     S
C289   N296    1.353   .     A
C289   C293    1.415   .     A
C290   C294    1.415   .     A
C290   H292    1.083   .     S
C290   N295    1.353   .     A
C293   N295    1.391   .     A
C293   C313    1.476   .     S
C294   C317    1.476   .     S
C294   N296    1.391   .     A
C297   O299    1.399   .     S
C297   O298    1.223   .     D
O299   H300    1.014   .     S
C301   O303    1.399   .     S
C301   O302    1.223   .     D
O303   H304    1.014   .     S
C305   O307    1.399   .     S
C305   O306    1.222   .     D
C305   C340    1.484   .     S
O307   H308    1.014   .     S
C309   O311    1.399   .     S
C309   O310    1.222   .     D
C309   C419    1.484   1_455 S
O311   H312    1.014   .     S
C313   O314    1.218   .     D
C313   O315    1.399   .     S
O315   H316    1.014   .     S
C317   O318    1.218   .     D
C317   O319    1.399   .     S
O319   H320    1.014   .     S
O321   C325    1.299   .     A
O321   Cu333   1.965   .     S
O322   C326    1.299   .     A
O322   Cu334   1.965   .     S
O323   Cu334   1.957   .     S
O323   C405    1.292   .     S
O324   Cu333   1.957   .     S
C325   C368    1.448   .     S
C326   C367    1.448   .     S
C326   O404    1.292   .     S
O327   Cu333   1.940   .     S
O328   Cu334   1.940   .     S
O328   C412    1.303   .     S
O329   Cu334   1.918   .     S
O329   C331    1.309   .     A
O330   C332    1.309   .     A
O330   Cu333   1.918   .     S
C331   C335    1.490   .     S
C331   O407    1.303   .     S
C332   C336    1.490   .     S
Cu333  N375    2.025   .     S
Cu334  N376    2.025   .     S
Cu334  Cu413   2.694   .     S
C335   C339    1.422   .     A
C335   C341    1.403   .     A
C336   C340    1.422   .     A
C336   C342    1.403   .     A
C337   C345    1.407   .     A
C337   C339    1.402   .     A
C337   H355    1.082   .     S
C338   C346    1.407   .     A
C338   H356    1.082   .     S
C338   C340    1.402   .     A
C339   C469    1.484   .     S
C341   H354    1.079   .     S
C341   C343    1.407   .     A
C342   C344    1.407   .     A
C342   H353    1.079   .     S
C343   C347    1.423   .     A
C343   C345    1.416   .     A
C344   C346    1.416   .     A
C344   C348    1.423   .     A
C345   C1071   1.414   .     S
C346   C1072   1.414   1_554 S
C347   C350    1.412   .     A
C347   C1068   1.416   .     S
C348   C349    1.412   .     A
C348   C1067   1.416   1_554 S
C349   C351    1.399   .     A
C349   H357    1.079   .     S
C350   H358    1.079   .     S
C350   C352    1.399   .     A
C351   C377    1.495   .     S
C351   C1065   1.414   1_554 S
C352   C381    1.495   .     S
C352   C1066   1.414   .     S
C359   H361    1.083   .     S
C359   C448    1.403   .     S
C360   H362    1.083   .     S
C360   C604    1.384   .     S
C363   H365    1.083   .     S
C363   C367    1.398   .     A
C363   C599    1.384   .     S
C364   H366    1.083   .     S
C364   C368    1.398   .     A
C367   C440    1.403   .     S
C369   H371    1.083   .     S
C369   N376    1.353   .     A
C369   C373    1.415   .     A
C370   C374    1.415   .     A
C370   H372    1.083   .     S
C370   N375    1.353   .     A
C373   N375    1.391   .     A
C373   C393    1.476   .     S
C374   C397    1.476   .     S
C374   N376    1.391   .     A
C377   O379    1.399   .     S
C377   O378    1.223   .     D
O379   H380    1.014   .     S
C381   O383    1.399   .     S
C381   O382    1.223   .     D
O383   H384    1.014   .     S
C385   O387    1.399   .     S
C385   O386    1.222   .     D
C385   C420    1.484   .     S
O387   H388    1.014   .     S
C389   O391    1.399   .     S
C389   O390    1.222   .     D
O391   H392    1.014   .     S
C393   O394    1.218   .     D
C393   O395    1.399   .     S
O395   H396    1.014   .     S
C397   O398    1.218   .     D
C397   O399    1.399   .     S
O399   H400    1.014   .     S
O401   C405    1.299   .     A
O401   Cu413   1.965   .     S
O402   C406    1.299   .     A
O402   Cu414   1.965   .     S
O403   Cu414   1.957   .     S
O403   C245    1.292   1_655 S
O404   Cu413   1.957   .     S
C405   C448    1.448   .     S
C406   C447    1.448   .     S
C406   O244    1.292   1_655 S
O407   Cu413   1.940   .     S
O408   Cu414   1.940   .     S
O408   C252    1.303   1_655 S
O409   Cu414   1.918   .     S
O409   C411    1.309   .     A
O410   C412    1.309   .     A
O410   Cu413   1.918   .     S
C411   C415    1.490   .     S
C411   O247    1.303   1_655 S
C412   C416    1.490   .     S
Cu413  N455    2.025   .     S
Cu414  N456    2.025   .     S
Cu414  Cu253   2.694   1_655 S
C415   C419    1.422   .     A
C415   C421    1.403   .     A
C416   C420    1.422   .     A
C416   C422    1.403   .     A
C417   C425    1.407   .     A
C417   C419    1.402   .     A
C417   H435    1.082   .     S
C418   C426    1.407   .     A
C418   H436    1.082   .     S
C418   C420    1.402   .     A
C419   C309    1.484   1_655 S
C421   H434    1.079   .     S
C421   C423    1.407   .     A
C422   C424    1.407   .     A
C422   H433    1.079   .     S
C423   C427    1.423   .     A
C423   C425    1.416   .     A
C424   C426    1.416   .     A
C424   C428    1.423   .     A
C425   C1151   1.414   .     S
C426   C1152   1.414   1_554 S
C427   C430    1.412   .     A
C427   C1148   1.416   .     S
C428   C429    1.412   .     A
C428   C1147   1.416   1_554 S
C429   C431    1.399   .     A
C429   H437    1.079   .     S
C430   H438    1.079   .     S
C430   C432    1.399   .     A
C431   C457    1.495   .     S
C431   C1145   1.414   1_554 S
C432   C461    1.495   .     S
C432   C1146   1.414   .     S
C439   H441    1.083   .     S
C439   C288    1.403   1_655 S
C440   H442    1.083   .     S
C440   C684    1.384   .     S
C443   H445    1.083   .     S
C443   C447    1.398   .     A
C443   C679    1.384   .     S
C444   H446    1.083   .     S
C444   C448    1.398   .     A
C447   C280    1.403   1_655 S
C449   H451    1.083   .     S
C449   N456    1.353   .     A
C449   C453    1.415   .     A
C450   C454    1.415   .     A
C450   H452    1.083   .     S
C450   N455    1.353   .     A
C453   N455    1.391   .     A
C453   C473    1.476   .     S
C454   C477    1.476   .     S
C454   N456    1.391   .     A
C457   O459    1.399   .     S
C457   O458    1.223   .     D
O459   H460    1.014   .     S
C461   O463    1.399   .     S
C461   O462    1.223   .     D
O463   H464    1.014   .     S
C465   O467    1.399   .     S
C465   O466    1.222   .     D
C465   C260    1.484   1_655 S
O467   H468    1.014   .     S
C469   O471    1.399   .     S
C469   O470    1.222   .     D
O471   H472    1.014   .     S
C473   O474    1.218   .     D
C473   O475    1.399   .     S
O475   H476    1.014   .     S
C477   O478    1.218   .     D
C477   O479    1.399   .     S
O479   H480    1.014   .     S
O481   C485    1.299   .     A
O481   Cu493   1.965   .     S
O482   C486    1.299   .     A
O482   Cu494   1.965   .     S
O483   Cu494   1.957   .     S
O483   C565    1.292   .     S
O484   Cu493   1.957   .     S
O484   C646    1.292   1_455 S
C485   C528    1.448   .     S
C485   O643    1.292   1_455 S
C486   C527    1.448   .     S
C486   O564    1.292   .     S
O487   Cu493   1.940   .     S
O487   C651    1.303   1_455 S
O488   Cu494   1.940   .     S
O488   C572    1.303   .     S
O489   Cu494   1.918   .     S
O489   C491    1.309   .     A
O490   C492    1.309   .     A
O490   Cu493   1.918   .     S
C491   C495    1.490   .     S
C491   O567    1.303   .     S
C492   C496    1.490   .     S
C492   O648    1.303   1_455 S
Cu493  N535    2.025   .     S
Cu493  Cu654   2.694   1_455 S
Cu494  N536    2.025   .     S
Cu494  Cu573   2.694   .     S
C495   C499    1.422   .     A
C495   C501    1.403   .     A
C496   C500    1.422   .     A
C496   C502    1.403   .     A
C497   C505    1.407   .     A
C497   C499    1.402   .     A
C497   H515    1.082   .     S
C498   C506    1.407   .     A
C498   H516    1.082   .     S
C498   C500    1.402   .     A
C499   C629    1.484   .     S
C500   C705    1.484   1_455 S
C501   H514    1.079   .     S
C501   C503    1.407   .     A
C502   C504    1.407   .     A
C502   H513    1.079   .     S
C503   C507    1.423   .     A
C503   C505    1.416   .     A
C504   C506    1.416   .     A
C504   C508    1.423   .     A
C505   C1231   1.414   .     S
C506   C1232   1.414   1_554 S
C507   C510    1.412   .     A
C507   C1228   1.416   .     S
C508   C509    1.412   .     A
C508   C1227   1.416   1_554 S
C509   C511    1.399   .     A
C509   H517    1.079   .     S
C510   H518    1.079   .     S
C510   C512    1.399   .     A
C511   C537    1.495   .     S
C511   C1225   1.414   1_554 S
C512   C541    1.495   .     S
C512   C1226   1.414   .     S
C519   H521    1.083   .     S
C519   C608    1.403   .     S
C520   H522    1.083   .     S
C520   C44     1.384   1_565 S
C520   C687    1.403   1_455 S
C523   H525    1.083   .     S
C523   C527    1.398   .     A
C523   C39     1.384   1_565 S
C524   H526    1.083   .     S
C524   C528    1.398   .     A
C527   C600    1.403   .     S
C528   C679    1.403   1_455 S
C529   H531    1.083   .     S
C529   N536    1.353   .     A
C529   C533    1.415   .     A
C530   C534    1.415   .     A
C530   H532    1.083   .     S
C530   N535    1.353   .     A
C533   N535    1.391   .     A
C533   C553    1.476   .     S
C534   C557    1.476   .     S
C534   N536    1.391   .     A
C537   O539    1.399   .     S
C537   O538    1.223   .     D
O539   H540    1.014   .     S
C541   O543    1.399   .     S
C541   O542    1.223   .     D
O543   H544    1.014   .     S
C545   O547    1.399   .     S
C545   O546    1.222   .     D
C545   C580    1.484   .     S
O547   H548    1.014   .     S
C549   O551    1.399   .     S
C549   O550    1.222   .     D
C549   C659    1.484   1_455 S
O551   H552    1.014   .     S
C553   O554    1.218   .     D
C553   O555    1.399   .     S
O555   H556    1.014   .     S
C557   O558    1.218   .     D
C557   O559    1.399   .     S
O559   H560    1.014   .     S
O561   C565    1.299   .     A
O561   Cu573   1.965   .     S
O562   C566    1.299   .     A
O562   Cu574   1.965   .     S
O563   Cu574   1.957   .     S
O563   C645    1.292   .     S
O564   Cu573   1.957   .     S
C565   C608    1.448   .     S
C566   C607    1.448   .     S
C566   O644    1.292   .     S
O567   Cu573   1.940   .     S
O568   Cu574   1.940   .     S
O568   C652    1.303   .     S
O569   Cu574   1.918   .     S
O569   C571    1.309   .     A
O570   C572    1.309   .     A
O570   Cu573   1.918   .     S
C571   C575    1.490   .     S
C571   O647    1.303   .     S
C572   C576    1.490   .     S
Cu573  N615    2.025   .     S
Cu574  N616    2.025   .     S
Cu574  Cu653   2.694   .     S
C575   C579    1.422   .     A
C575   C581    1.403   .     A
C576   C580    1.422   .     A
C576   C582    1.403   .     A
C577   C585    1.407   .     A
C577   C579    1.402   .     A
C577   H595    1.082   .     S
C578   C586    1.407   .     A
C578   H596    1.082   .     S
C578   C580    1.402   .     A
C579   C709    1.484   .     S
C581   H594    1.079   .     S
C581   C583    1.407   .     A
C582   C584    1.407   .     A
C582   H593    1.079   .     S
C583   C587    1.423   .     A
C583   C585    1.416   .     A
C584   C586    1.416   .     A
C584   C588    1.423   .     A
C585   C1311   1.414   .     S
C586   C1312   1.414   1_554 S
C587   C590    1.412   .     A
C587   C1308   1.416   .     S
C588   C589    1.412   .     A
C588   C1307   1.416   1_554 S
C589   C591    1.399   .     A
C589   H597    1.079   .     S
C590   H598    1.079   .     S
C590   C592    1.399   .     A
C591   C617    1.495   .     S
C591   C1305   1.414   1_554 S
C592   C621    1.495   .     S
C592   C1306   1.414   .     S
C599   H601    1.083   .     S
C599   C688    1.403   .     S
C600   H602    1.083   .     S
C600   C124    1.384   1_565 S
C603   H605    1.083   .     S
C603   C607    1.398   .     A
C603   C119    1.384   1_565 S
C604   H606    1.083   .     S
C604   C608    1.398   .     A
C607   C680    1.403   .     S
C609   H611    1.083   .     S
C609   N616    1.353   .     A
C609   C613    1.415   .     A
C610   C614    1.415   .     A
C610   H612    1.083   .     S
C610   N615    1.353   .     A
C613   N615    1.391   .     A
C613   C633    1.476   .     S
C614   C637    1.476   .     S
C614   N616    1.391   .     A
C617   O619    1.399   .     S
C617   O618    1.223   .     D
O619   H620    1.014   .     S
C621   O623    1.399   .     S
C621   O622    1.223   .     D
O623   H624    1.014   .     S
C625   O627    1.399   .     S
C625   O626    1.222   .     D
C625   C660    1.484   .     S
O627   H628    1.014   .     S
C629   O631    1.399   .     S
C629   O630    1.222   .     D
O631   H632    1.014   .     S
C633   O634    1.218   .     D
C633   O635    1.399   .     S
O635   H636    1.014   .     S
C637   O638    1.218   .     D
C637   O639    1.399   .     S
O639   H640    1.014   .     S
O641   C645    1.299   .     A
O641   Cu653   1.965   .     S
O642   C646    1.299   .     A
O642   Cu654   1.965   .     S
O643   Cu654   1.957   .     S
O643   C485    1.292   1_655 S
O644   Cu653   1.957   .     S
C645   C688    1.448   .     S
C646   C687    1.448   .     S
C646   O484    1.292   1_655 S
O647   Cu653   1.940   .     S
O648   Cu654   1.940   .     S
O648   C492    1.303   1_655 S
O649   Cu654   1.918   .     S
O649   C651    1.309   .     A
O650   C652    1.309   .     A
O650   Cu653   1.918   .     S
C651   C655    1.490   .     S
C651   O487    1.303   1_655 S
C652   C656    1.490   .     S
Cu653  N695    2.025   .     S
Cu654  N696    2.025   .     S
Cu654  Cu493   2.694   1_655 S
C655   C659    1.422   .     A
C655   C661    1.403   .     A
C656   C660    1.422   .     A
C656   C662    1.403   .     A
C657   C665    1.407   .     A
C657   C659    1.402   .     A
C657   H675    1.082   .     S
C658   C666    1.407   .     A
C658   H676    1.082   .     S
C658   C660    1.402   .     A
C659   C549    1.484   1_655 S
C661   H674    1.079   .     S
C661   C663    1.407   .     A
C662   C664    1.407   .     A
C662   H673    1.079   .     S
C663   C667    1.423   .     A
C663   C665    1.416   .     A
C664   C666    1.416   .     A
C664   C668    1.423   .     A
C665   C1391   1.414   .     S
C666   C1392   1.414   1_554 S
C667   C670    1.412   .     A
C667   C1388   1.416   .     S
C668   C669    1.412   .     A
C668   C1387   1.416   1_554 S
C669   C671    1.399   .     A
C669   H677    1.079   .     S
C670   H678    1.079   .     S
C670   C672    1.399   .     A
C671   C697    1.495   .     S
C671   C1385   1.414   1_554 S
C672   C701    1.495   .     S
C672   C1386   1.414   .     S
C679   H681    1.083   .     S
C679   C528    1.403   1_655 S
C680   H682    1.083   .     S
C680   C204    1.384   1_565 S
C683   H685    1.083   .     S
C683   C687    1.398   .     A
C683   C199    1.384   1_565 S
C684   H686    1.083   .     S
C684   C688    1.398   .     A
C687   C520    1.403   1_655 S
C689   H691    1.083   .     S
C689   N696    1.353   .     A
C689   C693    1.415   .     A
C690   C694    1.415   .     A
C690   H692    1.083   .     S
C690   N695    1.353   .     A
C693   N695    1.391   .     A
C693   C713    1.476   .     S
C694   C717    1.476   .     S
C694   N696    1.391   .     A
C697   O699    1.399   .     S
C697   O698    1.223   .     D
O699   H700    1.014   .     S
C701   O703    1.399   .     S
C701   O702    1.223   .     D
O703   H704    1.014   .     S
C705   O707    1.399   .     S
C705   O706    1.222   .     D
C705   C500    1.484   1_655 S
O707   H708    1.014   .     S
C709   O711    1.399   .     S
C709   O710    1.222   .     D
O711   H712    1.014   .     S
C713   O714    1.218   .     D
C713   O715    1.399   .     S
O715   H716    1.014   .     S
C717   O718    1.218   .     D
C717   O719    1.399   .     S
O719   H720    1.014   .     S
O721   C725    1.299   .     A
O721   Cu733   1.965   .     S
O722   C726    1.299   .     A
O722   Cu734   1.965   .     S
O723   Cu734   1.957   .     S
O723   C805    1.292   .     S
O724   Cu733   1.957   .     S
O724   C886    1.292   1_455 S
C725   C768    1.448   .     S
C725   O883    1.292   1_455 S
C726   C767    1.448   .     S
C726   O804    1.292   .     S
O727   Cu733   1.940   .     S
O727   C891    1.303   1_455 S
O728   Cu734   1.940   .     S
O728   C812    1.303   .     S
O729   Cu734   1.918   .     S
O729   C731    1.309   .     A
O730   C732    1.309   .     A
O730   Cu733   1.918   .     S
C731   C735    1.490   .     S
C731   O807    1.303   .     S
C732   C736    1.490   .     S
C732   O888    1.303   1_455 S
Cu733  N775    2.025   .     S
Cu733  Cu894   2.694   1_455 S
Cu734  N776    2.025   .     S
Cu734  Cu813   2.694   .     S
C735   C739    1.422   .     A
C735   C741    1.403   .     A
C736   C740    1.422   .     A
C736   C742    1.403   .     A
C737   C745    1.407   .     A
C737   C739    1.402   .     A
C737   H755    1.082   .     S
C738   C746    1.407   .     A
C738   H756    1.082   .     S
C738   C740    1.402   .     A
C739   C869    1.484   .     S
C740   C945    1.484   1_455 S
C741   H754    1.079   .     S
C741   C743    1.407   .     A
C742   C744    1.407   .     A
C742   H753    1.079   .     S
C743   C747    1.423   .     A
C743   C745    1.416   .     A
C744   C746    1.416   .     A
C744   C748    1.423   .     A
C745   C31     1.414   1_556 S
C747   C750    1.412   .     A
C747   C28     1.416   1_556 S
C748   C749    1.412   .     A
C749   C751    1.399   .     A
C749   H757    1.079   .     S
C750   H758    1.079   .     S
C750   C752    1.399   .     A
C751   C777    1.495   .     S
C752   C781    1.495   .     S
C752   C26     1.414   1_556 S
C759   H761    1.083   .     S
C759   C1243   1.384   1_545 S
C759   C848    1.403   .     S
C760   H762    1.083   .     S
C760   C1004   1.384   .     S
C760   C927    1.403   1_455 S
C763   H765    1.083   .     S
C763   C767    1.398   .     A
C763   C999    1.384   .     S
C764   H766    1.083   .     S
C764   C768    1.398   .     A
C764   C1240   1.384   1_545 S
C767   C840    1.403   .     S
C768   C919    1.403   1_455 S
C769   H771    1.083   .     S
C769   N776    1.353   .     A
C769   C773    1.415   .     A
C770   C774    1.415   .     A
C770   H772    1.083   .     S
C770   N775    1.353   .     A
C773   N775    1.391   .     A
C773   C793    1.476   .     S
C774   C797    1.476   .     S
C774   N776    1.391   .     A
C777   O779    1.399   .     S
C777   O778    1.223   .     D
O779   H780    1.014   .     S
C781   O783    1.399   .     S
C781   O782    1.223   .     D
O783   H784    1.014   .     S
C785   O787    1.399   .     S
C785   O786    1.222   .     D
C785   C820    1.484   .     S
O787   H788    1.014   .     S
C789   O791    1.399   .     S
C789   O790    1.222   .     D
C789   C899    1.484   1_455 S
O791   H792    1.014   .     S
C793   O794    1.218   .     D
C793   O795    1.399   .     S
O795   H796    1.014   .     S
C797   O798    1.218   .     D
C797   O799    1.399   .     S
O799   H800    1.014   .     S
O801   C805    1.299   .     A
O801   Cu813   1.965   .     S
O802   C806    1.299   .     A
O802   Cu814   1.965   .     S
O803   Cu814   1.957   .     S
O803   C885    1.292   .     S
O804   Cu813   1.957   .     S
C805   C848    1.448   .     S
C806   C847    1.448   .     S
C806   O884    1.292   .     S
O807   Cu813   1.940   .     S
O808   Cu814   1.940   .     S
O808   C892    1.303   .     S
O809   Cu814   1.918   .     S
O809   C811    1.309   .     A
O810   C812    1.309   .     A
O810   Cu813   1.918   .     S
C811   C815    1.490   .     S
C811   O887    1.303   .     S
C812   C816    1.490   .     S
Cu813  N855    2.025   .     S
Cu814  N856    2.025   .     S
Cu814  Cu893   2.694   .     S
C815   C819    1.422   .     A
C815   C821    1.403   .     A
C816   C820    1.422   .     A
C816   C822    1.403   .     A
C817   C825    1.407   .     A
C817   C819    1.402   .     A
C817   H835    1.082   .     S
C818   C826    1.407   .     A
C818   H836    1.082   .     S
C818   C820    1.402   .     A
C819   C949    1.484   .     S
C821   H834    1.079   .     S
C821   C823    1.407   .     A
C822   C824    1.407   .     A
C822   H833    1.079   .     S
C823   C827    1.423   .     A
C823   C825    1.416   .     A
C824   C826    1.416   .     A
C824   C828    1.423   .     A
C825   C111    1.414   1_556 S
C827   C830    1.412   .     A
C827   C108    1.416   1_556 S
C828   C829    1.412   .     A
C829   C831    1.399   .     A
C829   H837    1.079   .     S
C830   H838    1.079   .     S
C830   C832    1.399   .     A
C831   C857    1.495   .     S
C832   C861    1.495   .     S
C832   C106    1.414   1_556 S
C839   H841    1.083   .     S
C839   C1323   1.384   1_545 S
C839   C928    1.403   .     S
C840   H842    1.083   .     S
C840   C1084   1.384   .     S
C843   H845    1.083   .     S
C843   C847    1.398   .     A
C843   C1079   1.384   .     S
C844   H846    1.083   .     S
C844   C848    1.398   .     A
C844   C1320   1.384   1_545 S
C847   C920    1.403   .     S
C849   H851    1.083   .     S
C849   N856    1.353   .     A
C849   C853    1.415   .     A
C850   C854    1.415   .     A
C850   H852    1.083   .     S
C850   N855    1.353   .     A
C853   N855    1.391   .     A
C853   C873    1.476   .     S
C854   C877    1.476   .     S
C854   N856    1.391   .     A
C857   O859    1.399   .     S
C857   O858    1.223   .     D
O859   H860    1.014   .     S
C861   O863    1.399   .     S
C861   O862    1.223   .     D
O863   H864    1.014   .     S
C865   O867    1.399   .     S
C865   O866    1.222   .     D
C865   C900    1.484   .     S
O867   H868    1.014   .     S
C869   O871    1.399   .     S
C869   O870    1.222   .     D
O871   H872    1.014   .     S
C873   O874    1.218   .     D
C873   O875    1.399   .     S
O875   H876    1.014   .     S
C877   O878    1.218   .     D
C877   O879    1.399   .     S
O879   H880    1.014   .     S
O881   C885    1.299   .     A
O881   Cu893   1.965   .     S
O882   C886    1.299   .     A
O882   Cu894   1.965   .     S
O883   Cu894   1.957   .     S
O883   C725    1.292   1_655 S
O884   Cu893   1.957   .     S
C885   C928    1.448   .     S
C886   C927    1.448   .     S
C886   O724    1.292   1_655 S
O887   Cu893   1.940   .     S
O888   Cu894   1.940   .     S
O888   C732    1.303   1_655 S
O889   Cu894   1.918   .     S
O889   C891    1.309   .     A
O890   C892    1.309   .     A
O890   Cu893   1.918   .     S
C891   C895    1.490   .     S
C891   O727    1.303   1_655 S
C892   C896    1.490   .     S
Cu893  N935    2.025   .     S
Cu894  N936    2.025   .     S
Cu894  Cu733   2.694   1_655 S
C895   C899    1.422   .     A
C895   C901    1.403   .     A
C896   C900    1.422   .     A
C896   C902    1.403   .     A
C897   C905    1.407   .     A
C897   C899    1.402   .     A
C897   H915    1.082   .     S
C898   C906    1.407   .     A
C898   H916    1.082   .     S
C898   C900    1.402   .     A
C899   C789    1.484   1_655 S
C901   H914    1.079   .     S
C901   C903    1.407   .     A
C902   C904    1.407   .     A
C902   H913    1.079   .     S
C903   C907    1.423   .     A
C903   C905    1.416   .     A
C904   C906    1.416   .     A
C904   C908    1.423   .     A
C905   C191    1.414   1_556 S
C907   C910    1.412   .     A
C907   C188    1.416   1_556 S
C908   C909    1.412   .     A
C909   C911    1.399   .     A
C909   H917    1.079   .     S
C910   H918    1.079   .     S
C910   C912    1.399   .     A
C911   C937    1.495   .     S
C912   C941    1.495   .     S
C912   C186    1.414   1_556 S
C919   H921    1.083   .     S
C919   C1403   1.384   1_545 S
C919   C768    1.403   1_655 S
C920   H922    1.083   .     S
C920   C1164   1.384   .     S
C923   H925    1.083   .     S
C923   C927    1.398   .     A
C923   C1159   1.384   .     S
C924   H926    1.083   .     S
C924   C928    1.398   .     A
C924   C1400   1.384   1_545 S
C927   C760    1.403   1_655 S
C929   H931    1.083   .     S
C929   N936    1.353   .     A
C929   C933    1.415   .     A
C930   C934    1.415   .     A
C930   H932    1.083   .     S
C930   N935    1.353   .     A
C933   N935    1.391   .     A
C933   C953    1.476   .     S
C934   C957    1.476   .     S
C934   N936    1.391   .     A
C937   O939    1.399   .     S
C937   O938    1.223   .     D
O939   H940    1.014   .     S
C941   O943    1.399   .     S
C941   O942    1.223   .     D
O943   H944    1.014   .     S
C945   O947    1.399   .     S
C945   O946    1.222   .     D
C945   C740    1.484   1_655 S
O947   H948    1.014   .     S
C949   O951    1.399   .     S
C949   O950    1.222   .     D
O951   H952    1.014   .     S
C953   O954    1.218   .     D
C953   O955    1.399   .     S
O955   H956    1.014   .     S
C957   O958    1.218   .     D
C957   O959    1.399   .     S
O959   H960    1.014   .     S
O961   C965    1.299   .     A
O961   Cu973   1.965   .     S
O962   C966    1.299   .     A
O962   Cu974   1.965   .     S
O963   Cu974   1.957   .     S
O963   C1045   1.292   .     S
O964   Cu973   1.957   .     S
O964   C1126   1.292   1_455 S
C965   C1008   1.448   .     S
C965   O1123   1.292   1_455 S
C966   C1007   1.448   .     S
C966   O1044   1.292   .     S
O967   Cu973   1.940   .     S
O967   C1131   1.303   1_455 S
O968   Cu974   1.940   .     S
O968   C1052   1.303   .     S
O969   Cu974   1.918   .     S
O969   C971    1.309   .     A
O970   C972    1.309   .     A
O970   Cu973   1.918   .     S
C971   C975    1.490   .     S
C971   O1047   1.303   .     S
C972   C976    1.490   .     S
C972   O1128   1.303   1_455 S
Cu973  N1015   2.025   .     S
Cu973  Cu1134  2.694   1_455 S
Cu974  N1016   2.025   .     S
Cu974  Cu1053  2.694   .     S
C975   C979    1.422   .     A
C975   C981    1.403   .     A
C976   C980    1.422   .     A
C976   C982    1.403   .     A
C977   C985    1.407   .     A
C977   C979    1.402   .     A
C977   H995    1.082   .     S
C978   C986    1.407   .     A
C978   H996    1.082   .     S
C978   C980    1.402   .     A
C979   C1109   1.484   .     S
C980   C1185   1.484   1_455 S
C981   H994    1.079   .     S
C981   C983    1.407   .     A
C982   C984    1.407   .     A
C982   H993    1.079   .     S
C983   C987    1.423   .     A
C983   C985    1.416   .     A
C984   C986    1.416   .     A
C984   C988    1.423   .     A
C985   C271    1.414   1_556 S
C987   C990    1.412   .     A
C987   C268    1.416   1_556 S
C988   C989    1.412   .     A
C989   C991    1.399   .     A
C989   H997    1.079   .     S
C990   H998    1.079   .     S
C990   C992    1.399   .     A
C991   C1017   1.495   .     S
C992   C1021   1.495   .     S
C992   C266    1.414   1_556 S
C999   H1001   1.083   .     S
C999   C1088   1.403   .     S
C1000  H1002   1.083   .     S
C1000  C1244   1.384   .     S
C1000  C1167   1.403   1_455 S
C1003  H1005   1.083   .     S
C1003  C1007   1.398   .     A
C1003  C1239   1.384   .     S
C1004  H1006   1.083   .     S
C1004  C1008   1.398   .     A
C1007  C1080   1.403   .     S
C1008  C1159   1.403   1_455 S
C1009  H1011   1.083   .     S
C1009  N1016   1.353   .     A
C1009  C1013   1.415   .     A
C1010  C1014   1.415   .     A
C1010  H1012   1.083   .     S
C1010  N1015   1.353   .     A
C1013  N1015   1.391   .     A
C1013  C1033   1.476   .     S
C1014  C1037   1.476   .     S
C1014  N1016   1.391   .     A
C1017  O1019   1.399   .     S
C1017  O1018   1.223   .     D
O1019  H1020   1.014   .     S
C1021  O1023   1.399   .     S
C1021  O1022   1.223   .     D
O1023  H1024   1.014   .     S
C1025  O1027   1.399   .     S
C1025  O1026   1.222   .     D
C1025  C1060   1.484   .     S
O1027  H1028   1.014   .     S
C1029  O1031   1.399   .     S
C1029  O1030   1.222   .     D
C1029  C1139   1.484   1_455 S
O1031  H1032   1.014   .     S
C1033  O1034   1.218   .     D
C1033  O1035   1.399   .     S
O1035  H1036   1.014   .     S
C1037  O1038   1.218   .     D
C1037  O1039   1.399   .     S
O1039  H1040   1.014   .     S
O1041  C1045   1.299   .     A
O1041  Cu1053  1.965   .     S
O1042  C1046   1.299   .     A
O1042  Cu1054  1.965   .     S
O1043  Cu1054  1.957   .     S
O1043  C1125   1.292   .     S
O1044  Cu1053  1.957   .     S
C1045  C1088   1.448   .     S
C1046  C1087   1.448   .     S
C1046  O1124   1.292   .     S
O1047  Cu1053  1.940   .     S
O1048  Cu1054  1.940   .     S
O1048  C1132   1.303   .     S
O1049  Cu1054  1.918   .     S
O1049  C1051   1.309   .     A
O1050  C1052   1.309   .     A
O1050  Cu1053  1.918   .     S
C1051  C1055   1.490   .     S
C1051  O1127   1.303   .     S
C1052  C1056   1.490   .     S
Cu1053 N1095   2.025   .     S
Cu1054 N1096   2.025   .     S
Cu1054 Cu1133  2.694   .     S
C1055  C1059   1.422   .     A
C1055  C1061   1.403   .     A
C1056  C1060   1.422   .     A
C1056  C1062   1.403   .     A
C1057  C1065   1.407   .     A
C1057  C1059   1.402   .     A
C1057  H1075   1.082   .     S
C1058  C1066   1.407   .     A
C1058  H1076   1.082   .     S
C1058  C1060   1.402   .     A
C1059  C1189   1.484   .     S
C1061  H1074   1.079   .     S
C1061  C1063   1.407   .     A
C1062  C1064   1.407   .     A
C1062  H1073   1.079   .     S
C1063  C1067   1.423   .     A
C1063  C1065   1.416   .     A
C1064  C1066   1.416   .     A
C1064  C1068   1.423   .     A
C1065  C351    1.414   1_556 S
C1067  C1070   1.412   .     A
C1067  C348    1.416   1_556 S
C1068  C1069   1.412   .     A
C1069  C1071   1.399   .     A
C1069  H1077   1.079   .     S
C1070  H1078   1.079   .     S
C1070  C1072   1.399   .     A
C1071  C1097   1.495   .     S
C1072  C1101   1.495   .     S
C1072  C346    1.414   1_556 S
C1079  H1081   1.083   .     S
C1079  C1168   1.403   .     S
C1080  H1082   1.083   .     S
C1080  C1324   1.384   .     S
C1083  H1085   1.083   .     S
C1083  C1087   1.398   .     A
C1083  C1319   1.384   .     S
C1084  H1086   1.083   .     S
C1084  C1088   1.398   .     A
C1087  C1160   1.403   .     S
C1089  H1091   1.083   .     S
C1089  N1096   1.353   .     A
C1089  C1093   1.415   .     A
C1090  C1094   1.415   .     A
C1090  H1092   1.083   .     S
C1090  N1095   1.353   .     A
C1093  N1095   1.391   .     A
C1093  C1113   1.476   .     S
C1094  C1117   1.476   .     S
C1094  N1096   1.391   .     A
C1097  O1099   1.399   .     S
C1097  O1098   1.223   .     D
O1099  H1100   1.014   .     S
C1101  O1103   1.399   .     S
C1101  O1102   1.223   .     D
O1103  H1104   1.014   .     S
C1105  O1107   1.399   .     S
C1105  O1106   1.222   .     D
C1105  C1140   1.484   .     S
O1107  H1108   1.014   .     S
C1109  O1111   1.399   .     S
C1109  O1110   1.222   .     D
O1111  H1112   1.014   .     S
C1113  O1114   1.218   .     D
C1113  O1115   1.399   .     S
O1115  H1116   1.014   .     S
C1117  O1118   1.218   .     D
C1117  O1119   1.399   .     S
O1119  H1120   1.014   .     S
O1121  C1125   1.299   .     A
O1121  Cu1133  1.965   .     S
O1122  C1126   1.299   .     A
O1122  Cu1134  1.965   .     S
O1123  Cu1134  1.957   .     S
O1123  C965    1.292   1_655 S
O1124  Cu1133  1.957   .     S
C1125  C1168   1.448   .     S
C1126  C1167   1.448   .     S
C1126  O964    1.292   1_655 S
O1127  Cu1133  1.940   .     S
O1128  Cu1134  1.940   .     S
O1128  C972    1.303   1_655 S
O1129  Cu1134  1.918   .     S
O1129  C1131   1.309   .     A
O1130  C1132   1.309   .     A
O1130  Cu1133  1.918   .     S
C1131  C1135   1.490   .     S
C1131  O967    1.303   1_655 S
C1132  C1136   1.490   .     S
Cu1133 N1175   2.025   .     S
Cu1134 N1176   2.025   .     S
Cu1134 Cu973   2.694   1_655 S
C1135  C1139   1.422   .     A
C1135  C1141   1.403   .     A
C1136  C1140   1.422   .     A
C1136  C1142   1.403   .     A
C1137  C1145   1.407   .     A
C1137  C1139   1.402   .     A
C1137  H1155   1.082   .     S
C1138  C1146   1.407   .     A
C1138  H1156   1.082   .     S
C1138  C1140   1.402   .     A
C1139  C1029   1.484   1_655 S
C1141  H1154   1.079   .     S
C1141  C1143   1.407   .     A
C1142  C1144   1.407   .     A
C1142  H1153   1.079   .     S
C1143  C1147   1.423   .     A
C1143  C1145   1.416   .     A
C1144  C1146   1.416   .     A
C1144  C1148   1.423   .     A
C1145  C431    1.414   1_556 S
C1147  C1150   1.412   .     A
C1147  C428    1.416   1_556 S
C1148  C1149   1.412   .     A
C1149  C1151   1.399   .     A
C1149  H1157   1.079   .     S
C1150  H1158   1.079   .     S
C1150  C1152   1.399   .     A
C1151  C1177   1.495   .     S
C1152  C1181   1.495   .     S
C1152  C426    1.414   1_556 S
C1159  H1161   1.083   .     S
C1159  C1008   1.403   1_655 S
C1160  H1162   1.083   .     S
C1160  C1404   1.384   .     S
C1163  H1165   1.083   .     S
C1163  C1167   1.398   .     A
C1163  C1399   1.384   .     S
C1164  H1166   1.083   .     S
C1164  C1168   1.398   .     A
C1167  C1000   1.403   1_655 S
C1169  H1171   1.083   .     S
C1169  N1176   1.353   .     A
C1169  C1173   1.415   .     A
C1170  C1174   1.415   .     A
C1170  H1172   1.083   .     S
C1170  N1175   1.353   .     A
C1173  N1175   1.391   .     A
C1173  C1193   1.476   .     S
C1174  C1197   1.476   .     S
C1174  N1176   1.391   .     A
C1177  O1179   1.399   .     S
C1177  O1178   1.223   .     D
O1179  H1180   1.014   .     S
C1181  O1183   1.399   .     S
C1181  O1182   1.223   .     D
O1183  H1184   1.014   .     S
C1185  O1187   1.399   .     S
C1185  O1186   1.222   .     D
C1185  C980    1.484   1_655 S
O1187  H1188   1.014   .     S
C1189  O1191   1.399   .     S
C1189  O1190   1.222   .     D
O1191  H1192   1.014   .     S
C1193  O1194   1.218   .     D
C1193  O1195   1.399   .     S
O1195  H1196   1.014   .     S
C1197  O1198   1.218   .     D
C1197  O1199   1.399   .     S
O1199  H1200   1.014   .     S
O1201  C1205   1.299   .     A
O1201  Cu1213  1.965   .     S
O1202  C1206   1.299   .     A
O1202  Cu1214  1.965   .     S
O1203  Cu1214  1.957   .     S
O1203  C1285   1.292   .     S
O1204  Cu1213  1.957   .     S
O1204  C1366   1.292   1_455 S
C1205  C1248   1.448   .     S
C1205  O1363   1.292   1_455 S
C1206  C1247   1.448   .     S
C1206  O1284   1.292   .     S
O1207  Cu1213  1.940   .     S
O1207  C1371   1.303   1_455 S
O1208  Cu1214  1.940   .     S
O1208  C1292   1.303   .     S
O1209  Cu1214  1.918   .     S
O1209  C1211   1.309   .     A
O1210  C1212   1.309   .     A
O1210  Cu1213  1.918   .     S
C1211  C1215   1.490   .     S
C1211  O1287   1.303   .     S
C1212  C1216   1.490   .     S
C1212  O1368   1.303   1_455 S
Cu1213 N1255   2.025   .     S
Cu1213 Cu1374  2.694   1_455 S
Cu1214 N1256   2.025   .     S
Cu1214 Cu1293  2.694   .     S
C1215  C1219   1.422   .     A
C1215  C1221   1.403   .     A
C1216  C1220   1.422   .     A
C1216  C1222   1.403   .     A
C1217  C1225   1.407   .     A
C1217  C1219   1.402   .     A
C1217  H1235   1.082   .     S
C1218  C1226   1.407   .     A
C1218  H1236   1.082   .     S
C1218  C1220   1.402   .     A
C1219  C1349   1.484   .     S
C1220  C1425   1.484   1_455 S
C1221  H1234   1.079   .     S
C1221  C1223   1.407   .     A
C1222  C1224   1.407   .     A
C1222  H1233   1.079   .     S
C1223  C1227   1.423   .     A
C1223  C1225   1.416   .     A
C1224  C1226   1.416   .     A
C1224  C1228   1.423   .     A
C1225  C511    1.414   1_556 S
C1227  C1230   1.412   .     A
C1227  C508    1.416   1_556 S
C1228  C1229   1.412   .     A
C1229  C1231   1.399   .     A
C1229  H1237   1.079   .     S
C1230  H1238   1.079   .     S
C1230  C1232   1.399   .     A
C1231  C1257   1.495   .     S
C1232  C1261   1.495   .     S
C1232  C506    1.414   1_556 S
C1239  H1241   1.083   .     S
C1239  C1328   1.403   .     S
C1240  H1242   1.083   .     S
C1240  C764    1.384   1_565 S
C1240  C1407   1.403   1_455 S
C1243  H1245   1.083   .     S
C1243  C1247   1.398   .     A
C1243  C759    1.384   1_565 S
C1244  H1246   1.083   .     S
C1244  C1248   1.398   .     A
C1247  C1320   1.403   .     S
C1248  C1399   1.403   1_455 S
C1249  H1251   1.083   .     S
C1249  N1256   1.353   .     A
C1249  C1253   1.415   .     A
C1250  C1254   1.415   .     A
C1250  H1252   1.083   .     S
C1250  N1255   1.353   .     A
C1253  N1255   1.391   .     A
C1253  C1273   1.476   .     S
C1254  C1277   1.476   .     S
C1254  N1256   1.391   .     A
C1257  O1259   1.399   .     S
C1257  O1258   1.223   .     D
O1259  H1260   1.014   .     S
C1261  O1263   1.399   .     S
C1261  O1262   1.223   .     D
O1263  H1264   1.014   .     S
C1265  O1267   1.399   .     S
C1265  O1266   1.222   .     D
C1265  C1300   1.484   .     S
O1267  H1268   1.014   .     S
C1269  O1271   1.399   .     S
C1269  O1270   1.222   .     D
C1269  C1379   1.484   1_455 S
O1271  H1272   1.014   .     S
C1273  O1274   1.218   .     D
C1273  O1275   1.399   .     S
O1275  H1276   1.014   .     S
C1277  O1278   1.218   .     D
C1277  O1279   1.399   .     S
O1279  H1280   1.014   .     S
O1281  C1285   1.299   .     A
O1281  Cu1293  1.965   .     S
O1282  C1286   1.299   .     A
O1282  Cu1294  1.965   .     S
O1283  Cu1294  1.957   .     S
O1283  C1365   1.292   .     S
O1284  Cu1293  1.957   .     S
C1285  C1328   1.448   .     S
C1286  C1327   1.448   .     S
C1286  O1364   1.292   .     S
O1287  Cu1293  1.940   .     S
O1288  Cu1294  1.940   .     S
O1288  C1372   1.303   .     S
O1289  Cu1294  1.918   .     S
O1289  C1291   1.309   .     A
O1290  C1292   1.309   .     A
O1290  Cu1293  1.918   .     S
C1291  C1295   1.490   .     S
C1291  O1367   1.303   .     S
C1292  C1296   1.490   .     S
Cu1293 N1335   2.025   .     S
Cu1294 N1336   2.025   .     S
Cu1294 Cu1373  2.694   .     S
C1295  C1299   1.422   .     A
C1295  C1301   1.403   .     A
C1296  C1300   1.422   .     A
C1296  C1302   1.403   .     A
C1297  C1305   1.407   .     A
C1297  C1299   1.402   .     A
C1297  H1315   1.082   .     S
C1298  C1306   1.407   .     A
C1298  H1316   1.082   .     S
C1298  C1300   1.402   .     A
C1299  C1429   1.484   .     S
C1301  H1314   1.079   .     S
C1301  C1303   1.407   .     A
C1302  C1304   1.407   .     A
C1302  H1313   1.079   .     S
C1303  C1307   1.423   .     A
C1303  C1305   1.416   .     A
C1304  C1306   1.416   .     A
C1304  C1308   1.423   .     A
C1305  C591    1.414   1_556 S
C1307  C1310   1.412   .     A
C1307  C588    1.416   1_556 S
C1308  C1309   1.412   .     A
C1309  C1311   1.399   .     A
C1309  H1317   1.079   .     S
C1310  H1318   1.079   .     S
C1310  C1312   1.399   .     A
C1311  C1337   1.495   .     S
C1312  C1341   1.495   .     S
C1312  C586    1.414   1_556 S
C1319  H1321   1.083   .     S
C1319  C1408   1.403   .     S
C1320  H1322   1.083   .     S
C1320  C844    1.384   1_565 S
C1323  H1325   1.083   .     S
C1323  C1327   1.398   .     A
C1323  C839    1.384   1_565 S
C1324  H1326   1.083   .     S
C1324  C1328   1.398   .     A
C1327  C1400   1.403   .     S
C1329  H1331   1.083   .     S
C1329  N1336   1.353   .     A
C1329  C1333   1.415   .     A
C1330  C1334   1.415   .     A
C1330  H1332   1.083   .     S
C1330  N1335   1.353   .     A
C1333  N1335   1.391   .     A
C1333  C1353   1.476   .     S
C1334  C1357   1.476   .     S
C1334  N1336   1.391   .     A
C1337  O1339   1.399   .     S
C1337  O1338   1.223   .     D
O1339  H1340   1.014   .     S
C1341  O1343   1.399   .     S
C1341  O1342   1.223   .     D
O1343  H1344   1.014   .     S
C1345  O1347   1.399   .     S
C1345  O1346   1.222   .     D
C1345  C1380   1.484   .     S
O1347  H1348   1.014   .     S
C1349  O1351   1.399   .     S
C1349  O1350   1.222   .     D
O1351  H1352   1.014   .     S
C1353  O1354   1.218   .     D
C1353  O1355   1.399   .     S
O1355  H1356   1.014   .     S
C1357  O1358   1.218   .     D
C1357  O1359   1.399   .     S
O1359  H1360   1.014   .     S
O1361  C1365   1.299   .     A
O1361  Cu1373  1.965   .     S
O1362  C1366   1.299   .     A
O1362  Cu1374  1.965   .     S
O1363  Cu1374  1.957   .     S
O1363  C1205   1.292   1_655 S
O1364  Cu1373  1.957   .     S
C1365  C1408   1.448   .     S
C1366  C1407   1.448   .     S
C1366  O1204   1.292   1_655 S
O1367  Cu1373  1.940   .     S
O1368  Cu1374  1.940   .     S
O1368  C1212   1.303   1_655 S
O1369  Cu1374  1.918   .     S
O1369  C1371   1.309   .     A
O1370  C1372   1.309   .     A
O1370  Cu1373  1.918   .     S
C1371  C1375   1.490   .     S
C1371  O1207   1.303   1_655 S
C1372  C1376   1.490   .     S
Cu1373 N1415   2.025   .     S
Cu1374 N1416   2.025   .     S
Cu1374 Cu1213  2.694   1_655 S
C1375  C1379   1.422   .     A
C1375  C1381   1.403   .     A
C1376  C1380   1.422   .     A
C1376  C1382   1.403   .     A
C1377  C1385   1.407   .     A
C1377  C1379   1.402   .     A
C1377  H1395   1.082   .     S
C1378  C1386   1.407   .     A
C1378  H1396   1.082   .     S
C1378  C1380   1.402   .     A
C1379  C1269   1.484   1_655 S
C1381  H1394   1.079   .     S
C1381  C1383   1.407   .     A
C1382  C1384   1.407   .     A
C1382  H1393   1.079   .     S
C1383  C1387   1.423   .     A
C1383  C1385   1.416   .     A
C1384  C1386   1.416   .     A
C1384  C1388   1.423   .     A
C1385  C671    1.414   1_556 S
C1387  C1390   1.412   .     A
C1387  C668    1.416   1_556 S
C1388  C1389   1.412   .     A
C1389  C1391   1.399   .     A
C1389  H1397   1.079   .     S
C1390  H1398   1.079   .     S
C1390  C1392   1.399   .     A
C1391  C1417   1.495   .     S
C1392  C1421   1.495   .     S
C1392  C666    1.414   1_556 S
C1399  H1401   1.083   .     S
C1399  C1248   1.403   1_655 S
C1400  H1402   1.083   .     S
C1400  C924    1.384   1_565 S
C1403  H1405   1.083   .     S
C1403  C1407   1.398   .     A
C1403  C919    1.384   1_565 S
C1404  H1406   1.083   .     S
C1404  C1408   1.398   .     A
C1407  C1240   1.403   1_655 S
C1409  H1411   1.083   .     S
C1409  N1416   1.353   .     A
C1409  C1413   1.415   .     A
C1410  C1414   1.415   .     A
C1410  H1412   1.083   .     S
C1410  N1415   1.353   .     A
C1413  N1415   1.391   .     A
C1413  C1433   1.476   .     S
C1414  C1437   1.476   .     S
C1414  N1416   1.391   .     A
C1417  O1419   1.399   .     S
C1417  O1418   1.223   .     D
O1419  H1420   1.014   .     S
C1421  O1423   1.399   .     S
C1421  O1422   1.223   .     D
O1423  H1424   1.014   .     S
C1425  O1427   1.399   .     S
C1425  O1426   1.222   .     D
C1425  C1220   1.484   1_655 S
O1427  H1428   1.014   .     S
C1429  O1431   1.399   .     S
C1429  O1430   1.222   .     D
O1431  H1432   1.014   .     S
C1433  O1434   1.218   .     D
C1433  O1435   1.399   .     S
O1435  H1436   1.014   .     S
C1437  O1438   1.218   .     D
C1437  O1439   1.399   .     S
O1439  H1440   1.014   .     S
