data_str_m2_o2_o10_pcu_sym.204
_audit_creation_date              2020-01-03
_audit_creation_method            'Materials Studio'
_symmetry_space_group_name_H-M    'P1'
_symmetry_Int_Tables_number       1
_symmetry_cell_setting            triclinic
loop_
_symmetry_equiv_pos_as_xyz
  x,y,z
_cell_length_a                    26.4007
_cell_length_b                    30.1918
_cell_length_c                    27.7229
_cell_angle_alpha                 89.8014
_cell_angle_beta                  97.6843
_cell_angle_gamma                 90.1949
loop_
_atom_site_label
_atom_site_type_symbol
_atom_site_fract_x
_atom_site_fract_y
_atom_site_fract_z
_atom_site_U_iso_or_equiv
_atom_site_adp_type
_atom_site_occupancy
C1     C     0.16618   0.16491   0.25004   0.00000  Uiso   1.00
C2     C     0.16624   0.33509   0.24985   0.00000  Uiso   1.00
C3     C     0.20480   0.27225   0.05873   0.00000  Uiso   1.00
C4     C     0.14373   0.21538   0.44323   0.00000  Uiso   1.00
C5     C     0.20383   0.27221   0.10933   0.00000  Uiso   1.00
C6     C     0.14383   0.21621   0.39251   0.00000  Uiso   1.00
C7     C     0.12930   0.22798   0.10008   0.00000  Uiso   1.00
C8     C     0.18939   0.28380   0.39809   0.00000  Uiso   1.00
C9     C     0.12829   0.22787   0.04922   0.00000  Uiso   1.00
C10    C     0.18936   0.28466   0.44880   0.00000  Uiso   1.00
C11    C     0.16655   0.25002   0.02734   0.00000  Uiso   1.00
C12    C     0.16654   0.25002   0.47265   0.00000  Uiso   1.00
C13    C     0.06807   0.25104   0.23774   0.00000  Uiso   1.00
C14    C     0.26528   0.24891   0.26227   0.00000  Uiso   1.00
C15    C     0.01309   0.25610   0.23167   0.00000  Uiso   1.00
C16    C     0.32030   0.24384   0.26838   0.00000  Uiso   1.00
C17    C     0.13372   0.04880   0.28458   0.00000  Uiso   1.00
C18    C     0.13403   0.45108   0.20701   0.00000  Uiso   1.00
C19    C     0.13918   0.09473   0.28539   0.00000  Uiso   1.00
C20    C     0.13953   0.40519   0.20757   0.00000  Uiso   1.00
C21    C     0.16327   0.11665   0.25001   0.00000  Uiso   1.00
C22    C     0.16333   0.38334   0.24917   0.00000  Uiso   1.00
C23    C     0.18311   0.09239   0.21401   0.00000  Uiso   1.00
C24    C     0.18282   0.40767   0.29038   0.00000  Uiso   1.00
C25    C     0.17974   0.04648   0.21385   0.00000  Uiso   1.00
C26    C     0.17941   0.45356   0.28972   0.00000  Uiso   1.00
C27    C     0.15503   0.02429   0.24869   0.00000  Uiso   1.00
C28    C     0.15501   0.47566   0.24847   0.00000  Uiso   1.00
Cu29   Cu    0.16667   0.25000   0.29822   0.00000  Uiso   1.00
Cu30   Cu    0.16667   0.25001   0.20179   0.00000  Uiso   1.00
H31    H     0.20201   0.10888   0.18655   0.00000  Uiso   1.00
H32    H     0.20149   0.39124   0.32274   0.00000  Uiso   1.00
H33    H     0.19666   0.02808   0.18659   0.00000  Uiso   1.00
H34    H     0.19608   0.47203   0.32141   0.00000  Uiso   1.00
H35    H     0.23587   0.28926   0.04470   0.00000  Uiso   1.00
H36    H     0.12638   0.18731   0.45905   0.00000  Uiso   1.00
H37    H     0.23306   0.29001   0.13260   0.00000  Uiso   1.00
H38    H     0.12566   0.18952   0.37067   0.00000  Uiso   1.00
N39    N     0.16667   0.25001   0.12935   0.00000  Uiso   1.00
N40    N     0.16667   0.24999   0.37065   0.00000  Uiso   1.00
O41    O     0.16667   0.18573   0.29071   0.00000  Uiso   1.00
O42    O     0.16666   0.31428   0.20929   0.00000  Uiso   1.00
O43    O     0.16667   0.18573   0.20928   0.00000  Uiso   1.00
O44    O     0.16666   0.31427   0.29072   0.00000  Uiso   1.00
O45    O     0.09161   0.25000   0.28132   0.00000  Uiso   1.00
O46    O     0.24172   0.25001   0.21868   0.00000  Uiso   1.00
O47    O     0.09161   0.25000   0.19989   0.00000  Uiso   1.00
O48    O     0.24172   0.25000   0.30011   0.00000  Uiso   1.00
O49    O     0.32165   0.27571   0.18970   0.00000  Uiso   1.00
H50    H     0.01372   0.28581   0.16877   0.00000  Uiso   1.00
O51    O     0.01180   0.22431   0.31040   0.00000  Uiso   1.00
H52    H     0.31971   0.21420   0.33131   0.00000  Uiso   1.00
O53    O     0.10694   0.02967   0.31884   0.00000  Uiso   1.00
H54    H     0.09718   0.49904   0.30895   0.00000  Uiso   1.00
O55    O     0.10756   0.47010   0.16581   0.00000  Uiso   1.00
H56    H     0.09766   0.00066   0.17319   0.00000  Uiso   1.00
H57    H     0.12294   0.11344   0.31286   0.00000  Uiso   1.00
H58    H     0.12355   0.38643   0.17585   0.00000  Uiso   1.00
H59    H     0.09981   0.21051   0.11610   0.00000  Uiso   1.00
H60    H     0.20756   0.31052   0.38072   0.00000  Uiso   1.00
H61    H     0.09715   0.21094   0.02742   0.00000  Uiso   1.00
H62    H     0.20663   0.31277   0.46882   0.00000  Uiso   1.00
C63    C     0.49951   0.16491   0.25004   0.00000  Uiso   1.00
C64    C     0.49957   0.33509   0.24985   0.00000  Uiso   1.00
C65    C     0.53813   0.27225   0.05873   0.00000  Uiso   1.00
C66    C     0.47706   0.21538   0.44323   0.00000  Uiso   1.00
C67    C     0.53716   0.27221   0.10933   0.00000  Uiso   1.00
C68    C     0.47716   0.21621   0.39251   0.00000  Uiso   1.00
C69    C     0.46264   0.22798   0.10008   0.00000  Uiso   1.00
C70    C     0.52273   0.28380   0.39809   0.00000  Uiso   1.00
C71    C     0.46162   0.22787   0.04922   0.00000  Uiso   1.00
C72    C     0.52269   0.28466   0.44880   0.00000  Uiso   1.00
C73    C     0.49988   0.25002   0.02734   0.00000  Uiso   1.00
C74    C     0.49987   0.25002   0.47265   0.00000  Uiso   1.00
C75    C     0.40140   0.25104   0.23774   0.00000  Uiso   1.00
C76    C     0.59861   0.24891   0.26227   0.00000  Uiso   1.00
C77    C     0.34642   0.25610   0.23167   0.00000  Uiso   1.00
C78    C     0.65363   0.24384   0.26838   0.00000  Uiso   1.00
C79    C     0.46705   0.04880   0.28458   0.00000  Uiso   1.00
C80    C     0.46736   0.45108   0.20701   0.00000  Uiso   1.00
C81    C     0.47251   0.09473   0.28539   0.00000  Uiso   1.00
C82    C     0.47286   0.40519   0.20757   0.00000  Uiso   1.00
C83    C     0.49660   0.11665   0.25001   0.00000  Uiso   1.00
C84    C     0.49666   0.38334   0.24917   0.00000  Uiso   1.00
C85    C     0.51644   0.09239   0.21401   0.00000  Uiso   1.00
C86    C     0.51616   0.40767   0.29038   0.00000  Uiso   1.00
C87    C     0.51307   0.04648   0.21385   0.00000  Uiso   1.00
C88    C     0.51275   0.45356   0.28972   0.00000  Uiso   1.00
C89    C     0.48837   0.02429   0.24869   0.00000  Uiso   1.00
C90    C     0.48835   0.47566   0.24847   0.00000  Uiso   1.00
Cu91   Cu    0.50000   0.25000   0.29822   0.00000  Uiso   1.00
Cu92   Cu    0.50000   0.25001   0.20179   0.00000  Uiso   1.00
H93    H     0.53535   0.10888   0.18655   0.00000  Uiso   1.00
H94    H     0.53482   0.39124   0.32274   0.00000  Uiso   1.00
H95    H     0.53000   0.02808   0.18659   0.00000  Uiso   1.00
H96    H     0.52941   0.47203   0.32141   0.00000  Uiso   1.00
H97    H     0.56920   0.28926   0.04470   0.00000  Uiso   1.00
H98    H     0.45971   0.18731   0.45905   0.00000  Uiso   1.00
H99    H     0.56639   0.29001   0.13260   0.00000  Uiso   1.00
H100   H     0.45899   0.18952   0.37067   0.00000  Uiso   1.00
N101   N     0.50000   0.25001   0.12935   0.00000  Uiso   1.00
N102   N     0.50000   0.24999   0.37065   0.00000  Uiso   1.00
O103   O     0.50000   0.18573   0.29071   0.00000  Uiso   1.00
O104   O     0.50000   0.31428   0.20929   0.00000  Uiso   1.00
O105   O     0.50000   0.18573   0.20928   0.00000  Uiso   1.00
O106   O     0.50000   0.31427   0.29072   0.00000  Uiso   1.00
O107   O     0.42495   0.25000   0.28132   0.00000  Uiso   1.00
O108   O     0.57505   0.25001   0.21868   0.00000  Uiso   1.00
O109   O     0.42495   0.25000   0.19989   0.00000  Uiso   1.00
O110   O     0.57505   0.25000   0.30011   0.00000  Uiso   1.00
O111   O     0.65498   0.27571   0.18970   0.00000  Uiso   1.00
H112   H     0.34706   0.28581   0.16877   0.00000  Uiso   1.00
O113   O     0.34513   0.22431   0.31040   0.00000  Uiso   1.00
H114   H     0.65304   0.21420   0.33131   0.00000  Uiso   1.00
O115   O     0.44028   0.02967   0.31884   0.00000  Uiso   1.00
H116   H     0.43052   0.49904   0.30895   0.00000  Uiso   1.00
O117   O     0.44089   0.47010   0.16581   0.00000  Uiso   1.00
H118   H     0.43100   0.00066   0.17319   0.00000  Uiso   1.00
H119   H     0.45628   0.11344   0.31286   0.00000  Uiso   1.00
H120   H     0.45689   0.38643   0.17585   0.00000  Uiso   1.00
H121   H     0.43315   0.21051   0.11610   0.00000  Uiso   1.00
H122   H     0.54089   0.31052   0.38072   0.00000  Uiso   1.00
H123   H     0.43048   0.21094   0.02742   0.00000  Uiso   1.00
H124   H     0.53997   0.31277   0.46882   0.00000  Uiso   1.00
C125   C     0.83285   0.16491   0.25004   0.00000  Uiso   1.00
C126   C     0.83290   0.33509   0.24985   0.00000  Uiso   1.00
C127   C     0.87147   0.27225   0.05873   0.00000  Uiso   1.00
C128   C     0.81040   0.21538   0.44323   0.00000  Uiso   1.00
C129   C     0.87049   0.27221   0.10933   0.00000  Uiso   1.00
C130   C     0.81049   0.21621   0.39251   0.00000  Uiso   1.00
C131   C     0.79597   0.22798   0.10008   0.00000  Uiso   1.00
C132   C     0.85606   0.28380   0.39809   0.00000  Uiso   1.00
C133   C     0.79495   0.22787   0.04922   0.00000  Uiso   1.00
C134   C     0.85603   0.28466   0.44880   0.00000  Uiso   1.00
C135   C     0.83322   0.25002   0.02734   0.00000  Uiso   1.00
C136   C     0.83320   0.25002   0.47265   0.00000  Uiso   1.00
C137   C     0.73474   0.25104   0.23774   0.00000  Uiso   1.00
C138   C     0.93195   0.24891   0.26227   0.00000  Uiso   1.00
C139   C     0.67976   0.25610   0.23167   0.00000  Uiso   1.00
C140   C     0.98697   0.24384   0.26838   0.00000  Uiso   1.00
C141   C     0.80039   0.04880   0.28458   0.00000  Uiso   1.00
C142   C     0.80070   0.45108   0.20701   0.00000  Uiso   1.00
C143   C     0.80584   0.09473   0.28539   0.00000  Uiso   1.00
C144   C     0.80620   0.40519   0.20757   0.00000  Uiso   1.00
C145   C     0.82993   0.11665   0.25001   0.00000  Uiso   1.00
C146   C     0.82999   0.38334   0.24917   0.00000  Uiso   1.00
C147   C     0.84978   0.09239   0.21401   0.00000  Uiso   1.00
C148   C     0.84949   0.40767   0.29038   0.00000  Uiso   1.00
C149   C     0.84641   0.04648   0.21385   0.00000  Uiso   1.00
C150   C     0.84608   0.45356   0.28972   0.00000  Uiso   1.00
C151   C     0.82170   0.02429   0.24869   0.00000  Uiso   1.00
C152   C     0.82168   0.47566   0.24847   0.00000  Uiso   1.00
Cu153  Cu    0.83333   0.25000   0.29822   0.00000  Uiso   1.00
Cu154  Cu    0.83333   0.25001   0.20179   0.00000  Uiso   1.00
H155   H     0.86868   0.10888   0.18655   0.00000  Uiso   1.00
H156   H     0.86815   0.39124   0.32274   0.00000  Uiso   1.00
H157   H     0.86333   0.02808   0.18659   0.00000  Uiso   1.00
H158   H     0.86275   0.47203   0.32141   0.00000  Uiso   1.00
H159   H     0.90253   0.28926   0.04470   0.00000  Uiso   1.00
H160   H     0.79305   0.18731   0.45905   0.00000  Uiso   1.00
H161   H     0.89972   0.29001   0.13260   0.00000  Uiso   1.00
H162   H     0.79233   0.18952   0.37067   0.00000  Uiso   1.00
N163   N     0.83333   0.25001   0.12935   0.00000  Uiso   1.00
N164   N     0.83333   0.24999   0.37065   0.00000  Uiso   1.00
O165   O     0.83334   0.18573   0.29071   0.00000  Uiso   1.00
O166   O     0.83333   0.31428   0.20929   0.00000  Uiso   1.00
O167   O     0.83334   0.18573   0.20928   0.00000  Uiso   1.00
O168   O     0.83333   0.31427   0.29072   0.00000  Uiso   1.00
O169   O     0.75828   0.25000   0.28132   0.00000  Uiso   1.00
O170   O     0.90839   0.25001   0.21868   0.00000  Uiso   1.00
O171   O     0.75828   0.25000   0.19989   0.00000  Uiso   1.00
O172   O     0.90839   0.25000   0.30011   0.00000  Uiso   1.00
O173   O     0.98831   0.27571   0.18970   0.00000  Uiso   1.00
H174   H     0.68039   0.28581   0.16877   0.00000  Uiso   1.00
O175   O     0.67847   0.22431   0.31040   0.00000  Uiso   1.00
H176   H     0.98638   0.21420   0.33131   0.00000  Uiso   1.00
O177   O     0.77361   0.02967   0.31884   0.00000  Uiso   1.00
H178   H     0.76385   0.49904   0.30895   0.00000  Uiso   1.00
O179   O     0.77422   0.47010   0.16581   0.00000  Uiso   1.00
H180   H     0.76433   0.00066   0.17319   0.00000  Uiso   1.00
H181   H     0.78961   0.11344   0.31286   0.00000  Uiso   1.00
H182   H     0.79022   0.38643   0.17585   0.00000  Uiso   1.00
H183   H     0.76648   0.21051   0.11610   0.00000  Uiso   1.00
H184   H     0.87423   0.31052   0.38072   0.00000  Uiso   1.00
H185   H     0.76381   0.21094   0.02742   0.00000  Uiso   1.00
H186   H     0.87330   0.31277   0.46882   0.00000  Uiso   1.00
C187   C     0.16618   0.66491   0.25004   0.00000  Uiso   1.00
C188   C     0.16624   0.83509   0.24985   0.00000  Uiso   1.00
C189   C     0.20480   0.77225   0.05873   0.00000  Uiso   1.00
C190   C     0.14373   0.71538   0.44323   0.00000  Uiso   1.00
C191   C     0.20383   0.77221   0.10933   0.00000  Uiso   1.00
C192   C     0.14383   0.71621   0.39251   0.00000  Uiso   1.00
C193   C     0.12930   0.72798   0.10008   0.00000  Uiso   1.00
C194   C     0.18939   0.78380   0.39809   0.00000  Uiso   1.00
C195   C     0.12829   0.72787   0.04922   0.00000  Uiso   1.00
C196   C     0.18936   0.78466   0.44880   0.00000  Uiso   1.00
C197   C     0.16655   0.75002   0.02734   0.00000  Uiso   1.00
C198   C     0.16654   0.75002   0.47265   0.00000  Uiso   1.00
C199   C     0.06807   0.75104   0.23774   0.00000  Uiso   1.00
C200   C     0.26528   0.74891   0.26227   0.00000  Uiso   1.00
C201   C     0.01309   0.75610   0.23167   0.00000  Uiso   1.00
C202   C     0.32030   0.74384   0.26838   0.00000  Uiso   1.00
C203   C     0.13372   0.54880   0.28458   0.00000  Uiso   1.00
C204   C     0.13403   0.95108   0.20701   0.00000  Uiso   1.00
C205   C     0.13918   0.59473   0.28539   0.00000  Uiso   1.00
C206   C     0.13953   0.90519   0.20757   0.00000  Uiso   1.00
C207   C     0.16327   0.61665   0.25001   0.00000  Uiso   1.00
C208   C     0.16333   0.88334   0.24917   0.00000  Uiso   1.00
C209   C     0.18311   0.59239   0.21401   0.00000  Uiso   1.00
C210   C     0.18282   0.90767   0.29038   0.00000  Uiso   1.00
C211   C     0.17974   0.54648   0.21385   0.00000  Uiso   1.00
C212   C     0.17941   0.95356   0.28972   0.00000  Uiso   1.00
C213   C     0.15503   0.52429   0.24869   0.00000  Uiso   1.00
C214   C     0.15501   0.97566   0.24847   0.00000  Uiso   1.00
Cu215  Cu    0.16667   0.75000   0.29822   0.00000  Uiso   1.00
Cu216  Cu    0.16667   0.75001   0.20179   0.00000  Uiso   1.00
H217   H     0.20201   0.60888   0.18655   0.00000  Uiso   1.00
H218   H     0.20149   0.89124   0.32274   0.00000  Uiso   1.00
H219   H     0.19666   0.52808   0.18659   0.00000  Uiso   1.00
H220   H     0.19608   0.97203   0.32141   0.00000  Uiso   1.00
H221   H     0.23587   0.78926   0.04470   0.00000  Uiso   1.00
H222   H     0.12638   0.68731   0.45905   0.00000  Uiso   1.00
H223   H     0.23306   0.79001   0.13260   0.00000  Uiso   1.00
H224   H     0.12566   0.68952   0.37067   0.00000  Uiso   1.00
N225   N     0.16667   0.75001   0.12935   0.00000  Uiso   1.00
N226   N     0.16667   0.74999   0.37065   0.00000  Uiso   1.00
O227   O     0.16667   0.68573   0.29071   0.00000  Uiso   1.00
O228   O     0.16666   0.81428   0.20929   0.00000  Uiso   1.00
O229   O     0.16667   0.68573   0.20928   0.00000  Uiso   1.00
O230   O     0.16666   0.81427   0.29072   0.00000  Uiso   1.00
O231   O     0.09161   0.75000   0.28132   0.00000  Uiso   1.00
O232   O     0.24172   0.75001   0.21868   0.00000  Uiso   1.00
O233   O     0.09161   0.75000   0.19989   0.00000  Uiso   1.00
O234   O     0.24172   0.75000   0.30011   0.00000  Uiso   1.00
O235   O     0.32165   0.77571   0.18970   0.00000  Uiso   1.00
H236   H     0.01372   0.78581   0.16877   0.00000  Uiso   1.00
O237   O     0.01180   0.72431   0.31040   0.00000  Uiso   1.00
H238   H     0.31971   0.71420   0.33131   0.00000  Uiso   1.00
O239   O     0.10694   0.52967   0.31884   0.00000  Uiso   1.00
H240   H     0.09718   0.99904   0.30895   0.00000  Uiso   1.00
O241   O     0.10756   0.97010   0.16581   0.00000  Uiso   1.00
H242   H     0.09766   0.50066   0.17319   0.00000  Uiso   1.00
H243   H     0.12294   0.61344   0.31286   0.00000  Uiso   1.00
H244   H     0.12355   0.88643   0.17585   0.00000  Uiso   1.00
H245   H     0.09981   0.71051   0.11610   0.00000  Uiso   1.00
H246   H     0.20756   0.81052   0.38072   0.00000  Uiso   1.00
H247   H     0.09715   0.71094   0.02742   0.00000  Uiso   1.00
H248   H     0.20663   0.81277   0.46882   0.00000  Uiso   1.00
C249   C     0.49951   0.66491   0.25004   0.00000  Uiso   1.00
C250   C     0.49957   0.83509   0.24985   0.00000  Uiso   1.00
C251   C     0.53813   0.77225   0.05873   0.00000  Uiso   1.00
C252   C     0.47706   0.71538   0.44323   0.00000  Uiso   1.00
C253   C     0.53716   0.77221   0.10933   0.00000  Uiso   1.00
C254   C     0.47716   0.71621   0.39251   0.00000  Uiso   1.00
C255   C     0.46264   0.72798   0.10008   0.00000  Uiso   1.00
C256   C     0.52273   0.78380   0.39809   0.00000  Uiso   1.00
C257   C     0.46162   0.72787   0.04922   0.00000  Uiso   1.00
C258   C     0.52269   0.78466   0.44880   0.00000  Uiso   1.00
C259   C     0.49988   0.75002   0.02734   0.00000  Uiso   1.00
C260   C     0.49987   0.75002   0.47265   0.00000  Uiso   1.00
C261   C     0.40140   0.75104   0.23774   0.00000  Uiso   1.00
C262   C     0.59861   0.74891   0.26227   0.00000  Uiso   1.00
C263   C     0.34642   0.75610   0.23167   0.00000  Uiso   1.00
C264   C     0.65363   0.74384   0.26838   0.00000  Uiso   1.00
C265   C     0.46705   0.54880   0.28458   0.00000  Uiso   1.00
C266   C     0.46736   0.95108   0.20701   0.00000  Uiso   1.00
C267   C     0.47251   0.59473   0.28539   0.00000  Uiso   1.00
C268   C     0.47286   0.90519   0.20757   0.00000  Uiso   1.00
C269   C     0.49660   0.61665   0.25001   0.00000  Uiso   1.00
C270   C     0.49666   0.88334   0.24917   0.00000  Uiso   1.00
C271   C     0.51644   0.59239   0.21401   0.00000  Uiso   1.00
C272   C     0.51616   0.90767   0.29038   0.00000  Uiso   1.00
C273   C     0.51307   0.54648   0.21385   0.00000  Uiso   1.00
C274   C     0.51275   0.95356   0.28972   0.00000  Uiso   1.00
C275   C     0.48837   0.52429   0.24869   0.00000  Uiso   1.00
C276   C     0.48835   0.97566   0.24847   0.00000  Uiso   1.00
Cu277  Cu    0.50000   0.75000   0.29822   0.00000  Uiso   1.00
Cu278  Cu    0.50000   0.75001   0.20179   0.00000  Uiso   1.00
H279   H     0.53535   0.60888   0.18655   0.00000  Uiso   1.00
H280   H     0.53482   0.89124   0.32274   0.00000  Uiso   1.00
H281   H     0.53000   0.52808   0.18659   0.00000  Uiso   1.00
H282   H     0.52941   0.97203   0.32141   0.00000  Uiso   1.00
H283   H     0.56920   0.78926   0.04470   0.00000  Uiso   1.00
H284   H     0.45971   0.68731   0.45905   0.00000  Uiso   1.00
H285   H     0.56639   0.79001   0.13260   0.00000  Uiso   1.00
H286   H     0.45899   0.68952   0.37067   0.00000  Uiso   1.00
N287   N     0.50000   0.75001   0.12935   0.00000  Uiso   1.00
N288   N     0.50000   0.74999   0.37065   0.00000  Uiso   1.00
O289   O     0.50000   0.68573   0.29071   0.00000  Uiso   1.00
O290   O     0.50000   0.81428   0.20929   0.00000  Uiso   1.00
O291   O     0.50000   0.68573   0.20928   0.00000  Uiso   1.00
O292   O     0.50000   0.81427   0.29072   0.00000  Uiso   1.00
O293   O     0.42495   0.75000   0.28132   0.00000  Uiso   1.00
O294   O     0.57505   0.75001   0.21868   0.00000  Uiso   1.00
O295   O     0.42495   0.75000   0.19989   0.00000  Uiso   1.00
O296   O     0.57505   0.75000   0.30011   0.00000  Uiso   1.00
O297   O     0.65498   0.77571   0.18970   0.00000  Uiso   1.00
H298   H     0.34706   0.78581   0.16877   0.00000  Uiso   1.00
O299   O     0.34513   0.72431   0.31040   0.00000  Uiso   1.00
H300   H     0.65304   0.71420   0.33131   0.00000  Uiso   1.00
O301   O     0.44028   0.52967   0.31884   0.00000  Uiso   1.00
H302   H     0.43052   0.99904   0.30895   0.00000  Uiso   1.00
O303   O     0.44089   0.97010   0.16581   0.00000  Uiso   1.00
H304   H     0.43100   0.50066   0.17319   0.00000  Uiso   1.00
H305   H     0.45628   0.61344   0.31286   0.00000  Uiso   1.00
H306   H     0.45689   0.88643   0.17585   0.00000  Uiso   1.00
H307   H     0.43315   0.71051   0.11610   0.00000  Uiso   1.00
H308   H     0.54089   0.81052   0.38072   0.00000  Uiso   1.00
H309   H     0.43048   0.71094   0.02742   0.00000  Uiso   1.00
H310   H     0.53997   0.81277   0.46882   0.00000  Uiso   1.00
C311   C     0.83285   0.66491   0.25004   0.00000  Uiso   1.00
C312   C     0.83290   0.83509   0.24985   0.00000  Uiso   1.00
C313   C     0.87147   0.77225   0.05873   0.00000  Uiso   1.00
C314   C     0.81040   0.71538   0.44323   0.00000  Uiso   1.00
C315   C     0.87049   0.77221   0.10933   0.00000  Uiso   1.00
C316   C     0.81049   0.71621   0.39251   0.00000  Uiso   1.00
C317   C     0.79597   0.72798   0.10008   0.00000  Uiso   1.00
C318   C     0.85606   0.78380   0.39809   0.00000  Uiso   1.00
C319   C     0.79495   0.72787   0.04922   0.00000  Uiso   1.00
C320   C     0.85603   0.78466   0.44880   0.00000  Uiso   1.00
C321   C     0.83322   0.75002   0.02734   0.00000  Uiso   1.00
C322   C     0.83320   0.75002   0.47265   0.00000  Uiso   1.00
C323   C     0.73474   0.75104   0.23774   0.00000  Uiso   1.00
C324   C     0.93195   0.74891   0.26227   0.00000  Uiso   1.00
C325   C     0.67976   0.75610   0.23167   0.00000  Uiso   1.00
C326   C     0.98697   0.74384   0.26838   0.00000  Uiso   1.00
C327   C     0.80039   0.54880   0.28458   0.00000  Uiso   1.00
C328   C     0.80070   0.95108   0.20701   0.00000  Uiso   1.00
C329   C     0.80584   0.59473   0.28539   0.00000  Uiso   1.00
C330   C     0.80620   0.90519   0.20757   0.00000  Uiso   1.00
C331   C     0.82993   0.61665   0.25001   0.00000  Uiso   1.00
C332   C     0.82999   0.88334   0.24917   0.00000  Uiso   1.00
C333   C     0.84978   0.59239   0.21401   0.00000  Uiso   1.00
C334   C     0.84949   0.90767   0.29038   0.00000  Uiso   1.00
C335   C     0.84641   0.54648   0.21385   0.00000  Uiso   1.00
C336   C     0.84608   0.95356   0.28972   0.00000  Uiso   1.00
C337   C     0.82170   0.52429   0.24869   0.00000  Uiso   1.00
C338   C     0.82168   0.97566   0.24847   0.00000  Uiso   1.00
Cu339  Cu    0.83333   0.75000   0.29822   0.00000  Uiso   1.00
Cu340  Cu    0.83333   0.75001   0.20179   0.00000  Uiso   1.00
H341   H     0.86868   0.60888   0.18655   0.00000  Uiso   1.00
H342   H     0.86815   0.89124   0.32274   0.00000  Uiso   1.00
H343   H     0.86333   0.52808   0.18659   0.00000  Uiso   1.00
H344   H     0.86275   0.97203   0.32141   0.00000  Uiso   1.00
H345   H     0.90253   0.78926   0.04470   0.00000  Uiso   1.00
H346   H     0.79305   0.68731   0.45905   0.00000  Uiso   1.00
H347   H     0.89972   0.79001   0.13260   0.00000  Uiso   1.00
H348   H     0.79233   0.68952   0.37067   0.00000  Uiso   1.00
N349   N     0.83333   0.75001   0.12935   0.00000  Uiso   1.00
N350   N     0.83333   0.74999   0.37065   0.00000  Uiso   1.00
O351   O     0.83334   0.68573   0.29071   0.00000  Uiso   1.00
O352   O     0.83333   0.81428   0.20929   0.00000  Uiso   1.00
O353   O     0.83334   0.68573   0.20928   0.00000  Uiso   1.00
O354   O     0.83333   0.81427   0.29072   0.00000  Uiso   1.00
O355   O     0.75828   0.75000   0.28132   0.00000  Uiso   1.00
O356   O     0.90839   0.75001   0.21868   0.00000  Uiso   1.00
O357   O     0.75828   0.75000   0.19989   0.00000  Uiso   1.00
O358   O     0.90839   0.75000   0.30011   0.00000  Uiso   1.00
O359   O     0.98831   0.77571   0.18970   0.00000  Uiso   1.00
H360   H     0.68039   0.78581   0.16877   0.00000  Uiso   1.00
O361   O     0.67847   0.72431   0.31040   0.00000  Uiso   1.00
H362   H     0.98638   0.71420   0.33131   0.00000  Uiso   1.00
O363   O     0.77361   0.52967   0.31884   0.00000  Uiso   1.00
H364   H     0.76385   0.99904   0.30895   0.00000  Uiso   1.00
O365   O     0.77422   0.97010   0.16581   0.00000  Uiso   1.00
H366   H     0.76433   0.50066   0.17319   0.00000  Uiso   1.00
H367   H     0.78961   0.61344   0.31286   0.00000  Uiso   1.00
H368   H     0.79022   0.88643   0.17585   0.00000  Uiso   1.00
H369   H     0.76648   0.71051   0.11610   0.00000  Uiso   1.00
H370   H     0.87423   0.81052   0.38072   0.00000  Uiso   1.00
H371   H     0.76381   0.71094   0.02742   0.00000  Uiso   1.00
H372   H     0.87330   0.81277   0.46882   0.00000  Uiso   1.00
C373   C     0.16618   0.16491   0.75004   0.00000  Uiso   1.00
C374   C     0.16624   0.33509   0.74985   0.00000  Uiso   1.00
C375   C     0.20480   0.27225   0.55873   0.00000  Uiso   1.00
C376   C     0.14373   0.21538   0.94323   0.00000  Uiso   1.00
C377   C     0.20383   0.27221   0.60933   0.00000  Uiso   1.00
C378   C     0.14383   0.21621   0.89251   0.00000  Uiso   1.00
C379   C     0.12930   0.22798   0.60008   0.00000  Uiso   1.00
C380   C     0.18939   0.28380   0.89809   0.00000  Uiso   1.00
C381   C     0.12829   0.22787   0.54922   0.00000  Uiso   1.00
C382   C     0.18936   0.28466   0.94880   0.00000  Uiso   1.00
C383   C     0.16655   0.25002   0.52734   0.00000  Uiso   1.00
C384   C     0.16654   0.25002   0.97265   0.00000  Uiso   1.00
C385   C     0.06807   0.25104   0.73774   0.00000  Uiso   1.00
C386   C     0.26528   0.24891   0.76227   0.00000  Uiso   1.00
C387   C     0.01309   0.25610   0.73167   0.00000  Uiso   1.00
C388   C     0.32030   0.24384   0.76838   0.00000  Uiso   1.00
C389   C     0.13372   0.04880   0.78458   0.00000  Uiso   1.00
C390   C     0.13403   0.45108   0.70701   0.00000  Uiso   1.00
C391   C     0.13918   0.09473   0.78539   0.00000  Uiso   1.00
C392   C     0.13953   0.40519   0.70757   0.00000  Uiso   1.00
C393   C     0.16327   0.11665   0.75001   0.00000  Uiso   1.00
C394   C     0.16333   0.38334   0.74917   0.00000  Uiso   1.00
C395   C     0.18311   0.09239   0.71401   0.00000  Uiso   1.00
C396   C     0.18282   0.40767   0.79038   0.00000  Uiso   1.00
C397   C     0.17974   0.04648   0.71385   0.00000  Uiso   1.00
C398   C     0.17941   0.45356   0.78972   0.00000  Uiso   1.00
C399   C     0.15503   0.02429   0.74869   0.00000  Uiso   1.00
C400   C     0.15501   0.47566   0.74847   0.00000  Uiso   1.00
Cu401  Cu    0.16667   0.25000   0.79822   0.00000  Uiso   1.00
Cu402  Cu    0.16667   0.25001   0.70179   0.00000  Uiso   1.00
H403   H     0.20201   0.10888   0.68655   0.00000  Uiso   1.00
H404   H     0.20149   0.39124   0.82274   0.00000  Uiso   1.00
H405   H     0.19666   0.02808   0.68659   0.00000  Uiso   1.00
H406   H     0.19608   0.47203   0.82141   0.00000  Uiso   1.00
H407   H     0.23587   0.28926   0.54470   0.00000  Uiso   1.00
H408   H     0.12638   0.18731   0.95905   0.00000  Uiso   1.00
H409   H     0.23306   0.29001   0.63260   0.00000  Uiso   1.00
H410   H     0.12566   0.18952   0.87067   0.00000  Uiso   1.00
N411   N     0.16667   0.25001   0.62935   0.00000  Uiso   1.00
N412   N     0.16667   0.24999   0.87065   0.00000  Uiso   1.00
O413   O     0.16667   0.18573   0.79071   0.00000  Uiso   1.00
O414   O     0.16666   0.31428   0.70929   0.00000  Uiso   1.00
O415   O     0.16667   0.18573   0.70928   0.00000  Uiso   1.00
O416   O     0.16666   0.31427   0.79072   0.00000  Uiso   1.00
O417   O     0.09161   0.25000   0.78132   0.00000  Uiso   1.00
O418   O     0.24172   0.25001   0.71868   0.00000  Uiso   1.00
O419   O     0.09161   0.25000   0.69989   0.00000  Uiso   1.00
O420   O     0.24172   0.25000   0.80011   0.00000  Uiso   1.00
O421   O     0.32165   0.27571   0.68970   0.00000  Uiso   1.00
H422   H     0.01372   0.28581   0.66877   0.00000  Uiso   1.00
O423   O     0.01180   0.22431   0.81040   0.00000  Uiso   1.00
H424   H     0.31971   0.21420   0.83131   0.00000  Uiso   1.00
O425   O     0.10694   0.02967   0.81884   0.00000  Uiso   1.00
H426   H     0.09718   0.49904   0.80895   0.00000  Uiso   1.00
O427   O     0.10756   0.47010   0.66581   0.00000  Uiso   1.00
H428   H     0.09766   0.00066   0.67319   0.00000  Uiso   1.00
H429   H     0.12294   0.11344   0.81286   0.00000  Uiso   1.00
H430   H     0.12355   0.38643   0.67585   0.00000  Uiso   1.00
H431   H     0.09981   0.21051   0.61610   0.00000  Uiso   1.00
H432   H     0.20756   0.31052   0.88072   0.00000  Uiso   1.00
H433   H     0.09715   0.21094   0.52742   0.00000  Uiso   1.00
H434   H     0.20663   0.31277   0.96882   0.00000  Uiso   1.00
C435   C     0.49951   0.16491   0.75004   0.00000  Uiso   1.00
C436   C     0.49957   0.33509   0.74985   0.00000  Uiso   1.00
C437   C     0.53813   0.27225   0.55873   0.00000  Uiso   1.00
C438   C     0.47706   0.21538   0.94323   0.00000  Uiso   1.00
C439   C     0.53716   0.27221   0.60933   0.00000  Uiso   1.00
C440   C     0.47716   0.21621   0.89251   0.00000  Uiso   1.00
C441   C     0.46264   0.22798   0.60008   0.00000  Uiso   1.00
C442   C     0.52273   0.28380   0.89809   0.00000  Uiso   1.00
C443   C     0.46162   0.22787   0.54922   0.00000  Uiso   1.00
C444   C     0.52269   0.28466   0.94880   0.00000  Uiso   1.00
C445   C     0.49988   0.25002   0.52734   0.00000  Uiso   1.00
C446   C     0.49987   0.25002   0.97265   0.00000  Uiso   1.00
C447   C     0.40140   0.25104   0.73774   0.00000  Uiso   1.00
C448   C     0.59861   0.24891   0.76227   0.00000  Uiso   1.00
C449   C     0.34642   0.25610   0.73167   0.00000  Uiso   1.00
C450   C     0.65363   0.24384   0.76838   0.00000  Uiso   1.00
C451   C     0.46705   0.04880   0.78458   0.00000  Uiso   1.00
C452   C     0.46736   0.45108   0.70701   0.00000  Uiso   1.00
C453   C     0.47251   0.09473   0.78539   0.00000  Uiso   1.00
C454   C     0.47286   0.40519   0.70757   0.00000  Uiso   1.00
C455   C     0.49660   0.11665   0.75001   0.00000  Uiso   1.00
C456   C     0.49666   0.38334   0.74917   0.00000  Uiso   1.00
C457   C     0.51644   0.09239   0.71401   0.00000  Uiso   1.00
C458   C     0.51616   0.40767   0.79038   0.00000  Uiso   1.00
C459   C     0.51307   0.04648   0.71385   0.00000  Uiso   1.00
C460   C     0.51275   0.45356   0.78972   0.00000  Uiso   1.00
C461   C     0.48837   0.02429   0.74869   0.00000  Uiso   1.00
C462   C     0.48835   0.47566   0.74847   0.00000  Uiso   1.00
Cu463  Cu    0.50000   0.25000   0.79822   0.00000  Uiso   1.00
Cu464  Cu    0.50000   0.25001   0.70179   0.00000  Uiso   1.00
H465   H     0.53535   0.10888   0.68655   0.00000  Uiso   1.00
H466   H     0.53482   0.39124   0.82274   0.00000  Uiso   1.00
H467   H     0.53000   0.02808   0.68659   0.00000  Uiso   1.00
H468   H     0.52941   0.47203   0.82141   0.00000  Uiso   1.00
H469   H     0.56920   0.28926   0.54470   0.00000  Uiso   1.00
H470   H     0.45971   0.18731   0.95905   0.00000  Uiso   1.00
H471   H     0.56639   0.29001   0.63260   0.00000  Uiso   1.00
H472   H     0.45899   0.18952   0.87067   0.00000  Uiso   1.00
N473   N     0.50000   0.25001   0.62935   0.00000  Uiso   1.00
N474   N     0.50000   0.24999   0.87065   0.00000  Uiso   1.00
O475   O     0.50000   0.18573   0.79071   0.00000  Uiso   1.00
O476   O     0.50000   0.31428   0.70929   0.00000  Uiso   1.00
O477   O     0.50000   0.18573   0.70928   0.00000  Uiso   1.00
O478   O     0.50000   0.31427   0.79072   0.00000  Uiso   1.00
O479   O     0.42495   0.25000   0.78132   0.00000  Uiso   1.00
O480   O     0.57505   0.25001   0.71868   0.00000  Uiso   1.00
O481   O     0.42495   0.25000   0.69989   0.00000  Uiso   1.00
O482   O     0.57505   0.25000   0.80011   0.00000  Uiso   1.00
O483   O     0.65498   0.27571   0.68970   0.00000  Uiso   1.00
H484   H     0.34706   0.28581   0.66877   0.00000  Uiso   1.00
O485   O     0.34513   0.22431   0.81040   0.00000  Uiso   1.00
H486   H     0.65304   0.21420   0.83131   0.00000  Uiso   1.00
O487   O     0.44028   0.02967   0.81884   0.00000  Uiso   1.00
H488   H     0.43052   0.49904   0.80895   0.00000  Uiso   1.00
O489   O     0.44089   0.47010   0.66581   0.00000  Uiso   1.00
H490   H     0.43100   0.00066   0.67319   0.00000  Uiso   1.00
H491   H     0.45628   0.11344   0.81286   0.00000  Uiso   1.00
H492   H     0.45689   0.38643   0.67585   0.00000  Uiso   1.00
H493   H     0.43315   0.21051   0.61610   0.00000  Uiso   1.00
H494   H     0.54089   0.31052   0.88072   0.00000  Uiso   1.00
H495   H     0.43048   0.21094   0.52742   0.00000  Uiso   1.00
H496   H     0.53997   0.31277   0.96882   0.00000  Uiso   1.00
C497   C     0.83285   0.16491   0.75004   0.00000  Uiso   1.00
C498   C     0.83290   0.33509   0.74985   0.00000  Uiso   1.00
C499   C     0.87147   0.27225   0.55873   0.00000  Uiso   1.00
C500   C     0.81040   0.21538   0.94323   0.00000  Uiso   1.00
C501   C     0.87049   0.27221   0.60933   0.00000  Uiso   1.00
C502   C     0.81049   0.21621   0.89251   0.00000  Uiso   1.00
C503   C     0.79597   0.22798   0.60008   0.00000  Uiso   1.00
C504   C     0.85606   0.28380   0.89809   0.00000  Uiso   1.00
C505   C     0.79495   0.22787   0.54922   0.00000  Uiso   1.00
C506   C     0.85603   0.28466   0.94880   0.00000  Uiso   1.00
C507   C     0.83322   0.25002   0.52734   0.00000  Uiso   1.00
C508   C     0.83320   0.25002   0.97265   0.00000  Uiso   1.00
C509   C     0.73474   0.25104   0.73774   0.00000  Uiso   1.00
C510   C     0.93195   0.24891   0.76227   0.00000  Uiso   1.00
C511   C     0.67976   0.25610   0.73167   0.00000  Uiso   1.00
C512   C     0.98697   0.24384   0.76838   0.00000  Uiso   1.00
C513   C     0.80039   0.04880   0.78458   0.00000  Uiso   1.00
C514   C     0.80070   0.45108   0.70701   0.00000  Uiso   1.00
C515   C     0.80584   0.09473   0.78539   0.00000  Uiso   1.00
C516   C     0.80620   0.40519   0.70757   0.00000  Uiso   1.00
C517   C     0.82993   0.11665   0.75001   0.00000  Uiso   1.00
C518   C     0.82999   0.38334   0.74917   0.00000  Uiso   1.00
C519   C     0.84978   0.09239   0.71401   0.00000  Uiso   1.00
C520   C     0.84949   0.40767   0.79038   0.00000  Uiso   1.00
C521   C     0.84641   0.04648   0.71385   0.00000  Uiso   1.00
C522   C     0.84608   0.45356   0.78972   0.00000  Uiso   1.00
C523   C     0.82170   0.02429   0.74869   0.00000  Uiso   1.00
C524   C     0.82168   0.47566   0.74847   0.00000  Uiso   1.00
Cu525  Cu    0.83333   0.25000   0.79822   0.00000  Uiso   1.00
Cu526  Cu    0.83333   0.25001   0.70179   0.00000  Uiso   1.00
H527   H     0.86868   0.10888   0.68655   0.00000  Uiso   1.00
H528   H     0.86815   0.39124   0.82274   0.00000  Uiso   1.00
H529   H     0.86333   0.02808   0.68659   0.00000  Uiso   1.00
H530   H     0.86275   0.47203   0.82141   0.00000  Uiso   1.00
H531   H     0.90253   0.28926   0.54470   0.00000  Uiso   1.00
H532   H     0.79305   0.18731   0.95905   0.00000  Uiso   1.00
H533   H     0.89972   0.29001   0.63260   0.00000  Uiso   1.00
H534   H     0.79233   0.18952   0.87067   0.00000  Uiso   1.00
N535   N     0.83333   0.25001   0.62935   0.00000  Uiso   1.00
N536   N     0.83333   0.24999   0.87065   0.00000  Uiso   1.00
O537   O     0.83334   0.18573   0.79071   0.00000  Uiso   1.00
O538   O     0.83333   0.31428   0.70929   0.00000  Uiso   1.00
O539   O     0.83334   0.18573   0.70928   0.00000  Uiso   1.00
O540   O     0.83333   0.31427   0.79072   0.00000  Uiso   1.00
O541   O     0.75828   0.25000   0.78132   0.00000  Uiso   1.00
O542   O     0.90839   0.25001   0.71868   0.00000  Uiso   1.00
O543   O     0.75828   0.25000   0.69989   0.00000  Uiso   1.00
O544   O     0.90839   0.25000   0.80011   0.00000  Uiso   1.00
O545   O     0.98831   0.27571   0.68970   0.00000  Uiso   1.00
H546   H     0.68039   0.28581   0.66877   0.00000  Uiso   1.00
O547   O     0.67847   0.22431   0.81040   0.00000  Uiso   1.00
H548   H     0.98638   0.21420   0.83131   0.00000  Uiso   1.00
O549   O     0.77361   0.02967   0.81884   0.00000  Uiso   1.00
H550   H     0.76385   0.49904   0.80895   0.00000  Uiso   1.00
O551   O     0.77422   0.47010   0.66581   0.00000  Uiso   1.00
H552   H     0.76433   0.00066   0.67319   0.00000  Uiso   1.00
H553   H     0.78961   0.11344   0.81286   0.00000  Uiso   1.00
H554   H     0.79022   0.38643   0.67585   0.00000  Uiso   1.00
H555   H     0.76648   0.21051   0.61610   0.00000  Uiso   1.00
H556   H     0.87423   0.31052   0.88072   0.00000  Uiso   1.00
H557   H     0.76381   0.21094   0.52742   0.00000  Uiso   1.00
H558   H     0.87330   0.31277   0.96882   0.00000  Uiso   1.00
C559   C     0.16618   0.66491   0.75004   0.00000  Uiso   1.00
C560   C     0.16624   0.83509   0.74985   0.00000  Uiso   1.00
C561   C     0.20480   0.77225   0.55873   0.00000  Uiso   1.00
C562   C     0.14373   0.71538   0.94323   0.00000  Uiso   1.00
C563   C     0.20383   0.77221   0.60933   0.00000  Uiso   1.00
C564   C     0.14383   0.71621   0.89251   0.00000  Uiso   1.00
C565   C     0.12930   0.72798   0.60008   0.00000  Uiso   1.00
C566   C     0.18939   0.78380   0.89809   0.00000  Uiso   1.00
C567   C     0.12829   0.72787   0.54922   0.00000  Uiso   1.00
C568   C     0.18936   0.78466   0.94880   0.00000  Uiso   1.00
C569   C     0.16655   0.75002   0.52734   0.00000  Uiso   1.00
C570   C     0.16654   0.75002   0.97265   0.00000  Uiso   1.00
C571   C     0.06807   0.75104   0.73774   0.00000  Uiso   1.00
C572   C     0.26528   0.74891   0.76227   0.00000  Uiso   1.00
C573   C     0.01309   0.75610   0.73167   0.00000  Uiso   1.00
C574   C     0.32030   0.74384   0.76838   0.00000  Uiso   1.00
C575   C     0.13372   0.54880   0.78458   0.00000  Uiso   1.00
C576   C     0.13403   0.95108   0.70701   0.00000  Uiso   1.00
C577   C     0.13918   0.59473   0.78539   0.00000  Uiso   1.00
C578   C     0.13953   0.90519   0.70757   0.00000  Uiso   1.00
C579   C     0.16327   0.61665   0.75001   0.00000  Uiso   1.00
C580   C     0.16333   0.88334   0.74917   0.00000  Uiso   1.00
C581   C     0.18311   0.59239   0.71401   0.00000  Uiso   1.00
C582   C     0.18282   0.90767   0.79038   0.00000  Uiso   1.00
C583   C     0.17974   0.54648   0.71385   0.00000  Uiso   1.00
C584   C     0.17941   0.95356   0.78972   0.00000  Uiso   1.00
C585   C     0.15503   0.52429   0.74869   0.00000  Uiso   1.00
C586   C     0.15501   0.97566   0.74847   0.00000  Uiso   1.00
Cu587  Cu    0.16667   0.75000   0.79822   0.00000  Uiso   1.00
Cu588  Cu    0.16667   0.75001   0.70179   0.00000  Uiso   1.00
H589   H     0.20201   0.60888   0.68655   0.00000  Uiso   1.00
H590   H     0.20149   0.89124   0.82274   0.00000  Uiso   1.00
H591   H     0.19666   0.52808   0.68659   0.00000  Uiso   1.00
H592   H     0.19608   0.97203   0.82141   0.00000  Uiso   1.00
H593   H     0.23587   0.78926   0.54470   0.00000  Uiso   1.00
H594   H     0.12638   0.68731   0.95905   0.00000  Uiso   1.00
H595   H     0.23306   0.79001   0.63260   0.00000  Uiso   1.00
H596   H     0.12566   0.68952   0.87067   0.00000  Uiso   1.00
N597   N     0.16667   0.75001   0.62935   0.00000  Uiso   1.00
N598   N     0.16667   0.74999   0.87065   0.00000  Uiso   1.00
O599   O     0.16667   0.68573   0.79071   0.00000  Uiso   1.00
O600   O     0.16666   0.81428   0.70929   0.00000  Uiso   1.00
O601   O     0.16667   0.68573   0.70928   0.00000  Uiso   1.00
O602   O     0.16666   0.81427   0.79072   0.00000  Uiso   1.00
O603   O     0.09161   0.75000   0.78132   0.00000  Uiso   1.00
O604   O     0.24172   0.75001   0.71868   0.00000  Uiso   1.00
O605   O     0.09161   0.75000   0.69989   0.00000  Uiso   1.00
O606   O     0.24172   0.75000   0.80011   0.00000  Uiso   1.00
O607   O     0.32165   0.77571   0.68970   0.00000  Uiso   1.00
H608   H     0.01372   0.78581   0.66877   0.00000  Uiso   1.00
O609   O     0.01180   0.72431   0.81040   0.00000  Uiso   1.00
H610   H     0.31971   0.71420   0.83131   0.00000  Uiso   1.00
O611   O     0.10694   0.52967   0.81884   0.00000  Uiso   1.00
H612   H     0.09718   0.99904   0.80895   0.00000  Uiso   1.00
O613   O     0.10756   0.97010   0.66581   0.00000  Uiso   1.00
H614   H     0.09766   0.50066   0.67319   0.00000  Uiso   1.00
H615   H     0.12294   0.61344   0.81286   0.00000  Uiso   1.00
H616   H     0.12355   0.88643   0.67585   0.00000  Uiso   1.00
H617   H     0.09981   0.71051   0.61610   0.00000  Uiso   1.00
H618   H     0.20756   0.81052   0.88072   0.00000  Uiso   1.00
H619   H     0.09715   0.71094   0.52742   0.00000  Uiso   1.00
H620   H     0.20663   0.81277   0.96882   0.00000  Uiso   1.00
C621   C     0.49951   0.66491   0.75004   0.00000  Uiso   1.00
C622   C     0.49957   0.83509   0.74985   0.00000  Uiso   1.00
C623   C     0.53813   0.77225   0.55873   0.00000  Uiso   1.00
C624   C     0.47706   0.71538   0.94323   0.00000  Uiso   1.00
C625   C     0.53716   0.77221   0.60933   0.00000  Uiso   1.00
C626   C     0.47716   0.71621   0.89251   0.00000  Uiso   1.00
C627   C     0.46264   0.72798   0.60008   0.00000  Uiso   1.00
C628   C     0.52273   0.78380   0.89809   0.00000  Uiso   1.00
C629   C     0.46162   0.72787   0.54922   0.00000  Uiso   1.00
C630   C     0.52269   0.78466   0.94880   0.00000  Uiso   1.00
C631   C     0.49988   0.75002   0.52734   0.00000  Uiso   1.00
C632   C     0.49987   0.75002   0.97265   0.00000  Uiso   1.00
C633   C     0.40140   0.75104   0.73774   0.00000  Uiso   1.00
C634   C     0.59861   0.74891   0.76227   0.00000  Uiso   1.00
C635   C     0.34642   0.75610   0.73167   0.00000  Uiso   1.00
C636   C     0.65363   0.74384   0.76838   0.00000  Uiso   1.00
C637   C     0.46705   0.54880   0.78458   0.00000  Uiso   1.00
C638   C     0.46736   0.95108   0.70701   0.00000  Uiso   1.00
C639   C     0.47251   0.59473   0.78539   0.00000  Uiso   1.00
C640   C     0.47286   0.90519   0.70757   0.00000  Uiso   1.00
C641   C     0.49660   0.61665   0.75001   0.00000  Uiso   1.00
C642   C     0.49666   0.88334   0.74917   0.00000  Uiso   1.00
C643   C     0.51644   0.59239   0.71401   0.00000  Uiso   1.00
C644   C     0.51616   0.90767   0.79038   0.00000  Uiso   1.00
C645   C     0.51307   0.54648   0.71385   0.00000  Uiso   1.00
C646   C     0.51275   0.95356   0.78972   0.00000  Uiso   1.00
C647   C     0.48837   0.52429   0.74869   0.00000  Uiso   1.00
C648   C     0.48835   0.97566   0.74847   0.00000  Uiso   1.00
Cu649  Cu    0.50000   0.75000   0.79822   0.00000  Uiso   1.00
Cu650  Cu    0.50000   0.75001   0.70179   0.00000  Uiso   1.00
H651   H     0.53535   0.60888   0.68655   0.00000  Uiso   1.00
H652   H     0.53482   0.89124   0.82274   0.00000  Uiso   1.00
H653   H     0.53000   0.52808   0.68659   0.00000  Uiso   1.00
H654   H     0.52941   0.97203   0.82141   0.00000  Uiso   1.00
H655   H     0.56920   0.78926   0.54470   0.00000  Uiso   1.00
H656   H     0.45971   0.68731   0.95905   0.00000  Uiso   1.00
H657   H     0.56639   0.79001   0.63260   0.00000  Uiso   1.00
H658   H     0.45899   0.68952   0.87067   0.00000  Uiso   1.00
N659   N     0.50000   0.75001   0.62935   0.00000  Uiso   1.00
N660   N     0.50000   0.74999   0.87065   0.00000  Uiso   1.00
O661   O     0.50000   0.68573   0.79071   0.00000  Uiso   1.00
O662   O     0.50000   0.81428   0.70929   0.00000  Uiso   1.00
O663   O     0.50000   0.68573   0.70928   0.00000  Uiso   1.00
O664   O     0.50000   0.81427   0.79072   0.00000  Uiso   1.00
O665   O     0.42495   0.75000   0.78132   0.00000  Uiso   1.00
O666   O     0.57505   0.75001   0.71868   0.00000  Uiso   1.00
O667   O     0.42495   0.75000   0.69989   0.00000  Uiso   1.00
O668   O     0.57505   0.75000   0.80011   0.00000  Uiso   1.00
O669   O     0.65498   0.77571   0.68970   0.00000  Uiso   1.00
H670   H     0.34706   0.78581   0.66877   0.00000  Uiso   1.00
O671   O     0.34513   0.72431   0.81040   0.00000  Uiso   1.00
H672   H     0.65304   0.71420   0.83131   0.00000  Uiso   1.00
O673   O     0.44028   0.52967   0.81884   0.00000  Uiso   1.00
H674   H     0.43052   0.99904   0.80895   0.00000  Uiso   1.00
O675   O     0.44089   0.97010   0.66581   0.00000  Uiso   1.00
H676   H     0.43100   0.50066   0.67319   0.00000  Uiso   1.00
H677   H     0.45628   0.61344   0.81286   0.00000  Uiso   1.00
H678   H     0.45689   0.88643   0.67585   0.00000  Uiso   1.00
H679   H     0.43315   0.71051   0.61610   0.00000  Uiso   1.00
H680   H     0.54089   0.81052   0.88072   0.00000  Uiso   1.00
H681   H     0.43048   0.71094   0.52742   0.00000  Uiso   1.00
H682   H     0.53997   0.81277   0.96882   0.00000  Uiso   1.00
C683   C     0.83285   0.66491   0.75004   0.00000  Uiso   1.00
C684   C     0.83290   0.83509   0.74985   0.00000  Uiso   1.00
C685   C     0.87147   0.77225   0.55873   0.00000  Uiso   1.00
C686   C     0.81040   0.71538   0.94323   0.00000  Uiso   1.00
C687   C     0.87049   0.77221   0.60933   0.00000  Uiso   1.00
C688   C     0.81049   0.71621   0.89251   0.00000  Uiso   1.00
C689   C     0.79597   0.72798   0.60008   0.00000  Uiso   1.00
C690   C     0.85606   0.78380   0.89809   0.00000  Uiso   1.00
C691   C     0.79495   0.72787   0.54922   0.00000  Uiso   1.00
C692   C     0.85603   0.78466   0.94880   0.00000  Uiso   1.00
C693   C     0.83322   0.75002   0.52734   0.00000  Uiso   1.00
C694   C     0.83320   0.75002   0.97265   0.00000  Uiso   1.00
C695   C     0.73474   0.75104   0.73774   0.00000  Uiso   1.00
C696   C     0.93195   0.74891   0.76227   0.00000  Uiso   1.00
C697   C     0.67976   0.75610   0.73167   0.00000  Uiso   1.00
C698   C     0.98697   0.74384   0.76838   0.00000  Uiso   1.00
C699   C     0.80039   0.54880   0.78458   0.00000  Uiso   1.00
C700   C     0.80070   0.95108   0.70701   0.00000  Uiso   1.00
C701   C     0.80584   0.59473   0.78539   0.00000  Uiso   1.00
C702   C     0.80620   0.90519   0.70757   0.00000  Uiso   1.00
C703   C     0.82993   0.61665   0.75001   0.00000  Uiso   1.00
C704   C     0.82999   0.88334   0.74917   0.00000  Uiso   1.00
C705   C     0.84978   0.59239   0.71401   0.00000  Uiso   1.00
C706   C     0.84949   0.90767   0.79038   0.00000  Uiso   1.00
C707   C     0.84641   0.54648   0.71385   0.00000  Uiso   1.00
C708   C     0.84608   0.95356   0.78972   0.00000  Uiso   1.00
C709   C     0.82170   0.52429   0.74869   0.00000  Uiso   1.00
C710   C     0.82168   0.97566   0.74847   0.00000  Uiso   1.00
Cu711  Cu    0.83333   0.75000   0.79822   0.00000  Uiso   1.00
Cu712  Cu    0.83333   0.75001   0.70179   0.00000  Uiso   1.00
H713   H     0.86868   0.60888   0.68655   0.00000  Uiso   1.00
H714   H     0.86815   0.89124   0.82274   0.00000  Uiso   1.00
H715   H     0.86333   0.52808   0.68659   0.00000  Uiso   1.00
H716   H     0.86275   0.97203   0.82141   0.00000  Uiso   1.00
H717   H     0.90253   0.78926   0.54470   0.00000  Uiso   1.00
H718   H     0.79305   0.68731   0.95905   0.00000  Uiso   1.00
H719   H     0.89972   0.79001   0.63260   0.00000  Uiso   1.00
H720   H     0.79233   0.68952   0.87067   0.00000  Uiso   1.00
N721   N     0.83333   0.75001   0.62935   0.00000  Uiso   1.00
N722   N     0.83333   0.74999   0.87065   0.00000  Uiso   1.00
O723   O     0.83334   0.68573   0.79071   0.00000  Uiso   1.00
O724   O     0.83333   0.81428   0.70929   0.00000  Uiso   1.00
O725   O     0.83334   0.68573   0.70928   0.00000  Uiso   1.00
O726   O     0.83333   0.81427   0.79072   0.00000  Uiso   1.00
O727   O     0.75828   0.75000   0.78132   0.00000  Uiso   1.00
O728   O     0.90839   0.75001   0.71868   0.00000  Uiso   1.00
O729   O     0.75828   0.75000   0.69989   0.00000  Uiso   1.00
O730   O     0.90839   0.75000   0.80011   0.00000  Uiso   1.00
O731   O     0.98831   0.77571   0.68970   0.00000  Uiso   1.00
H732   H     0.68039   0.78581   0.66877   0.00000  Uiso   1.00
O733   O     0.67847   0.72431   0.81040   0.00000  Uiso   1.00
H734   H     0.98638   0.71420   0.83131   0.00000  Uiso   1.00
O735   O     0.77361   0.52967   0.81884   0.00000  Uiso   1.00
H736   H     0.76385   0.99904   0.80895   0.00000  Uiso   1.00
O737   O     0.77422   0.97010   0.66581   0.00000  Uiso   1.00
H738   H     0.76433   0.50066   0.67319   0.00000  Uiso   1.00
H739   H     0.78961   0.61344   0.81286   0.00000  Uiso   1.00
H740   H     0.79022   0.88643   0.67585   0.00000  Uiso   1.00
H741   H     0.76648   0.71051   0.61610   0.00000  Uiso   1.00
H742   H     0.87423   0.81052   0.88072   0.00000  Uiso   1.00
H743   H     0.76381   0.71094   0.52742   0.00000  Uiso   1.00
H744   H     0.87330   0.81277   0.96882   0.00000  Uiso   1.00
loop_
_geom_bond_atom_site_label_1
_geom_bond_atom_site_label_2
_geom_bond_distance
_geom_bond_site_symmetry_2
_ccdc_geom_bond_type
C1     O41     1.291   .     A
C1     C21     1.459   .     S
C1     O43     1.293   .     A
C2     C22     1.459   .     S
C2     O42     1.292   .     A
C2     O44     1.292   .     A
C3     H35     1.081   .     S
C3     C11     1.411   .     A
C3     C5      1.406   .     A
C4     H36     1.081   .     S
C4     C12     1.411   .     A
C4     C6      1.407   .     A
C5     H37     1.080   .     S
C5     N39     1.363   .     A
C6     N40     1.364   .     A
C6     H38     1.081   .     S
C7     H59     1.081   .     S
C7     C9      1.407   .     A
C7     N39     1.363   .     A
C8     H60     1.081   .     S
C8     N40     1.364   .     A
C8     C10     1.406   .     A
C9     C11     1.411   .     A
C9     H61     1.081   .     S
C10    H62     1.081   .     S
C10    C12     1.411   .     A
C11    C384    1.516   1_554 S
C12    C383    1.516   .     S
C13    O45     1.283   .     A
C13    C15     1.447   .     S
C13    O47     1.290   .     A
C14    O46     1.283   .     A
C14    C16     1.448   .     S
C14    O48     1.290   .     A
C15    C140    1.354   1_455 S
C15    O173    1.388   1_455 S
C16    C77     1.354   .     S
C16    O113    1.389   .     S
C17    C27     1.418   .     A
C17    O53     1.381   .     S
C17    C19     1.393   .     A
C18    O55     1.381   .     S
C18    C28     1.418   .     A
C18    C20     1.393   .     A
C19    C21     1.401   .     A
C19    H57     1.084   .     S
C20    C22     1.401   .     A
C20    H58     1.084   .     S
C21    C23     1.398   .     A
C22    C24     1.398   .     A
C23    C25     1.389   .     A
C23    H31     1.083   .     S
C24    H32     1.083   .     S
C24    C26     1.389   .     A
C25    C27     1.403   .     A
C25    H33     1.084   .     S
C26    C28     1.403   .     A
C26    H34     1.084   .     S
C27    C214    1.468   1_545 S
C28    C213    1.468   .     S
Cu29   Cu30    2.673   .     S
Cu29   O41     1.952   .     S
Cu29   N40     2.008   .     S
Cu29   O44     1.951   .     S
Cu29   O45     1.974   .     S
Cu29   O48     1.975   .     S
Cu30   O46     1.974   .     S
Cu30   N39     2.008   .     S
Cu30   O43     1.951   .     S
Cu30   O47     1.975   .     S
Cu30   O42     1.952   .     S
O49    C77     1.388   .     S
O49    H112    0.991   .     S
H50    O173    0.991   1_455 S
O51    C140    1.389   1_455 S
O51    H176    0.991   1_455 S
H52    O113    0.991   .     S
O53    H240    0.989   1_545 S
H54    O239    0.989   .     S
O55    H242    0.989   .     S
H56    O241    0.989   1_545 S
C63    O103    1.291   .     A
C63    C83     1.459   .     S
C63    O105    1.293   .     A
C64    C84     1.459   .     S
C64    O104    1.292   .     A
C64    O106    1.292   .     A
C65    H97     1.081   .     S
C65    C73     1.411   .     A
C65    C67     1.406   .     A
C66    H98     1.081   .     S
C66    C74     1.411   .     A
C66    C68     1.407   .     A
C67    H99     1.080   .     S
C67    N101    1.363   .     A
C68    N102    1.364   .     A
C68    H100    1.081   .     S
C69    H121    1.081   .     S
C69    C71     1.407   .     A
C69    N101    1.363   .     A
C70    H122    1.081   .     S
C70    N102    1.364   .     A
C70    C72     1.406   .     A
C71    C73     1.411   .     A
C71    H123    1.081   .     S
C72    H124    1.081   .     S
C72    C74     1.411   .     A
C73    C446    1.516   1_554 S
C74    C445    1.516   .     S
C75    O107    1.283   .     A
C75    C77     1.447   .     S
C75    O109    1.290   .     A
C76    O108    1.283   .     A
C76    C78     1.448   .     S
C76    O110    1.290   .     A
C78    C139    1.354   .     S
C78    O175    1.389   .     S
C79    C89     1.418   .     A
C79    O115    1.381   .     S
C79    C81     1.393   .     A
C80    O117    1.381   .     S
C80    C90     1.418   .     A
C80    C82     1.393   .     A
C81    C83     1.401   .     A
C81    H119    1.084   .     S
C82    C84     1.401   .     A
C82    H120    1.084   .     S
C83    C85     1.398   .     A
C84    C86     1.398   .     A
C85    C87     1.389   .     A
C85    H93     1.083   .     S
C86    H94     1.083   .     S
C86    C88     1.389   .     A
C87    C89     1.403   .     A
C87    H95     1.084   .     S
C88    C90     1.403   .     A
C88    H96     1.084   .     S
C89    C276    1.468   1_545 S
C90    C275    1.468   .     S
Cu91   Cu92    2.673   .     S
Cu91   O103    1.952   .     S
Cu91   N102    2.008   .     S
Cu91   O106    1.951   .     S
Cu91   O107    1.974   .     S
Cu91   O110    1.975   .     S
Cu92   O108    1.974   .     S
Cu92   N101    2.008   .     S
Cu92   O105    1.951   .     S
Cu92   O109    1.975   .     S
Cu92   O104    1.952   .     S
O111   C139    1.388   .     S
O111   H174    0.991   .     S
H114   O175    0.991   .     S
O115   H302    0.989   1_545 S
H116   O301    0.989   .     S
O117   H304    0.989   .     S
H118   O303    0.989   1_545 S
C125   O165    1.291   .     A
C125   C145    1.459   .     S
C125   O167    1.293   .     A
C126   C146    1.459   .     S
C126   O166    1.292   .     A
C126   O168    1.292   .     A
C127   H159    1.081   .     S
C127   C135    1.411   .     A
C127   C129    1.406   .     A
C128   H160    1.081   .     S
C128   C136    1.411   .     A
C128   C130    1.407   .     A
C129   H161    1.080   .     S
C129   N163    1.363   .     A
C130   N164    1.364   .     A
C130   H162    1.081   .     S
C131   H183    1.081   .     S
C131   C133    1.407   .     A
C131   N163    1.363   .     A
C132   H184    1.081   .     S
C132   N164    1.364   .     A
C132   C134    1.406   .     A
C133   C135    1.411   .     A
C133   H185    1.081   .     S
C134   H186    1.081   .     S
C134   C136    1.411   .     A
C135   C508    1.516   1_554 S
C136   C507    1.516   .     S
C137   O169    1.283   .     A
C137   C139    1.447   .     S
C137   O171    1.290   .     A
C138   O170    1.283   .     A
C138   C140    1.448   .     S
C138   O172    1.290   .     A
C140   C15     1.354   1_655 S
C140   O51     1.389   1_655 S
C141   C151    1.418   .     A
C141   O177    1.381   .     S
C141   C143    1.393   .     A
C142   O179    1.381   .     S
C142   C152    1.418   .     A
C142   C144    1.393   .     A
C143   C145    1.401   .     A
C143   H181    1.084   .     S
C144   C146    1.401   .     A
C144   H182    1.084   .     S
C145   C147    1.398   .     A
C146   C148    1.398   .     A
C147   C149    1.389   .     A
C147   H155    1.083   .     S
C148   H156    1.083   .     S
C148   C150    1.389   .     A
C149   C151    1.403   .     A
C149   H157    1.084   .     S
C150   C152    1.403   .     A
C150   H158    1.084   .     S
C151   C338    1.468   1_545 S
C152   C337    1.468   .     S
Cu153  Cu154   2.673   .     S
Cu153  O165    1.952   .     S
Cu153  N164    2.008   .     S
Cu153  O168    1.951   .     S
Cu153  O169    1.974   .     S
Cu153  O172    1.975   .     S
Cu154  O170    1.974   .     S
Cu154  N163    2.008   .     S
Cu154  O167    1.951   .     S
Cu154  O171    1.975   .     S
Cu154  O166    1.952   .     S
O173   C15     1.388   1_655 S
O173   H50     0.991   1_655 S
H176   O51     0.991   1_655 S
O177   H364    0.989   1_545 S
H178   O363    0.989   .     S
O179   H366    0.989   .     S
H180   O365    0.989   1_545 S
C187   O227    1.291   .     A
C187   C207    1.459   .     S
C187   O229    1.293   .     A
C188   C208    1.459   .     S
C188   O228    1.292   .     A
C188   O230    1.292   .     A
C189   H221    1.081   .     S
C189   C197    1.411   .     A
C189   C191    1.406   .     A
C190   H222    1.081   .     S
C190   C198    1.411   .     A
C190   C192    1.407   .     A
C191   H223    1.080   .     S
C191   N225    1.363   .     A
C192   N226    1.364   .     A
C192   H224    1.081   .     S
C193   H245    1.081   .     S
C193   C195    1.407   .     A
C193   N225    1.363   .     A
C194   H246    1.081   .     S
C194   N226    1.364   .     A
C194   C196    1.406   .     A
C195   C197    1.411   .     A
C195   H247    1.081   .     S
C196   H248    1.081   .     S
C196   C198    1.411   .     A
C197   C570    1.516   1_554 S
C198   C569    1.516   .     S
C199   O231    1.283   .     A
C199   C201    1.447   .     S
C199   O233    1.290   .     A
C200   O232    1.283   .     A
C200   C202    1.448   .     S
C200   O234    1.290   .     A
C201   C326    1.354   1_455 S
C201   O359    1.388   1_455 S
C202   C263    1.354   .     S
C202   O299    1.389   .     S
C203   C213    1.418   .     A
C203   O239    1.381   .     S
C203   C205    1.393   .     A
C204   O241    1.381   .     S
C204   C214    1.418   .     A
C204   C206    1.393   .     A
C205   C207    1.401   .     A
C205   H243    1.084   .     S
C206   C208    1.401   .     A
C206   H244    1.084   .     S
C207   C209    1.398   .     A
C208   C210    1.398   .     A
C209   C211    1.389   .     A
C209   H217    1.083   .     S
C210   H218    1.083   .     S
C210   C212    1.389   .     A
C211   C213    1.403   .     A
C211   H219    1.084   .     S
C212   C214    1.403   .     A
C212   H220    1.084   .     S
C214   C27     1.468   1_565 S
Cu215  Cu216   2.673   .     S
Cu215  O227    1.952   .     S
Cu215  N226    2.008   .     S
Cu215  O230    1.951   .     S
Cu215  O231    1.974   .     S
Cu215  O234    1.975   .     S
Cu216  O232    1.974   .     S
Cu216  N225    2.008   .     S
Cu216  O229    1.951   .     S
Cu216  O233    1.975   .     S
Cu216  O228    1.952   .     S
O235   C263    1.388   .     S
O235   H298    0.991   .     S
H236   O359    0.991   1_455 S
O237   C326    1.389   1_455 S
O237   H362    0.991   1_455 S
H238   O299    0.991   .     S
H240   O53     0.989   1_565 S
O241   H56     0.989   1_565 S
C249   O289    1.291   .     A
C249   C269    1.459   .     S
C249   O291    1.293   .     A
C250   C270    1.459   .     S
C250   O290    1.292   .     A
C250   O292    1.292   .     A
C251   H283    1.081   .     S
C251   C259    1.411   .     A
C251   C253    1.406   .     A
C252   H284    1.081   .     S
C252   C260    1.411   .     A
C252   C254    1.407   .     A
C253   H285    1.080   .     S
C253   N287    1.363   .     A
C254   N288    1.364   .     A
C254   H286    1.081   .     S
C255   H307    1.081   .     S
C255   C257    1.407   .     A
C255   N287    1.363   .     A
C256   H308    1.081   .     S
C256   N288    1.364   .     A
C256   C258    1.406   .     A
C257   C259    1.411   .     A
C257   H309    1.081   .     S
C258   H310    1.081   .     S
C258   C260    1.411   .     A
C259   C632    1.516   1_554 S
C260   C631    1.516   .     S
C261   O293    1.283   .     A
C261   C263    1.447   .     S
C261   O295    1.290   .     A
C262   O294    1.283   .     A
C262   C264    1.448   .     S
C262   O296    1.290   .     A
C264   C325    1.354   .     S
C264   O361    1.389   .     S
C265   C275    1.418   .     A
C265   O301    1.381   .     S
C265   C267    1.393   .     A
C266   O303    1.381   .     S
C266   C276    1.418   .     A
C266   C268    1.393   .     A
C267   C269    1.401   .     A
C267   H305    1.084   .     S
C268   C270    1.401   .     A
C268   H306    1.084   .     S
C269   C271    1.398   .     A
C270   C272    1.398   .     A
C271   C273    1.389   .     A
C271   H279    1.083   .     S
C272   H280    1.083   .     S
C272   C274    1.389   .     A
C273   C275    1.403   .     A
C273   H281    1.084   .     S
C274   C276    1.403   .     A
C274   H282    1.084   .     S
C276   C89     1.468   1_565 S
Cu277  Cu278   2.673   .     S
Cu277  O289    1.952   .     S
Cu277  N288    2.008   .     S
Cu277  O292    1.951   .     S
Cu277  O293    1.974   .     S
Cu277  O296    1.975   .     S
Cu278  O294    1.974   .     S
Cu278  N287    2.008   .     S
Cu278  O291    1.951   .     S
Cu278  O295    1.975   .     S
Cu278  O290    1.952   .     S
O297   C325    1.388   .     S
O297   H360    0.991   .     S
H300   O361    0.991   .     S
H302   O115    0.989   1_565 S
O303   H118    0.989   1_565 S
C311   O351    1.291   .     A
C311   C331    1.459   .     S
C311   O353    1.293   .     A
C312   C332    1.459   .     S
C312   O352    1.292   .     A
C312   O354    1.292   .     A
C313   H345    1.081   .     S
C313   C321    1.411   .     A
C313   C315    1.406   .     A
C314   H346    1.081   .     S
C314   C322    1.411   .     A
C314   C316    1.407   .     A
C315   H347    1.080   .     S
C315   N349    1.363   .     A
C316   N350    1.364   .     A
C316   H348    1.081   .     S
C317   H369    1.081   .     S
C317   C319    1.407   .     A
C317   N349    1.363   .     A
C318   H370    1.081   .     S
C318   N350    1.364   .     A
C318   C320    1.406   .     A
C319   C321    1.411   .     A
C319   H371    1.081   .     S
C320   H372    1.081   .     S
C320   C322    1.411   .     A
C321   C694    1.516   1_554 S
C322   C693    1.516   .     S
C323   O355    1.283   .     A
C323   C325    1.447   .     S
C323   O357    1.290   .     A
C324   O356    1.283   .     A
C324   C326    1.448   .     S
C324   O358    1.290   .     A
C326   C201    1.354   1_655 S
C326   O237    1.389   1_655 S
C327   C337    1.418   .     A
C327   O363    1.381   .     S
C327   C329    1.393   .     A
C328   O365    1.381   .     S
C328   C338    1.418   .     A
C328   C330    1.393   .     A
C329   C331    1.401   .     A
C329   H367    1.084   .     S
C330   C332    1.401   .     A
C330   H368    1.084   .     S
C331   C333    1.398   .     A
C332   C334    1.398   .     A
C333   C335    1.389   .     A
C333   H341    1.083   .     S
C334   H342    1.083   .     S
C334   C336    1.389   .     A
C335   C337    1.403   .     A
C335   H343    1.084   .     S
C336   C338    1.403   .     A
C336   H344    1.084   .     S
C338   C151    1.468   1_565 S
Cu339  Cu340   2.673   .     S
Cu339  O351    1.952   .     S
Cu339  N350    2.008   .     S
Cu339  O354    1.951   .     S
Cu339  O355    1.974   .     S
Cu339  O358    1.975   .     S
Cu340  O356    1.974   .     S
Cu340  N349    2.008   .     S
Cu340  O353    1.951   .     S
Cu340  O357    1.975   .     S
Cu340  O352    1.952   .     S
O359   C201    1.388   1_655 S
O359   H236    0.991   1_655 S
H362   O237    0.991   1_655 S
H364   O177    0.989   1_565 S
O365   H180    0.989   1_565 S
C373   O413    1.291   .     A
C373   C393    1.459   .     S
C373   O415    1.293   .     A
C374   C394    1.459   .     S
C374   O414    1.292   .     A
C374   O416    1.292   .     A
C375   H407    1.081   .     S
C375   C383    1.411   .     A
C375   C377    1.406   .     A
C376   H408    1.081   .     S
C376   C384    1.411   .     A
C376   C378    1.407   .     A
C377   H409    1.080   .     S
C377   N411    1.363   .     A
C378   N412    1.364   .     A
C378   H410    1.081   .     S
C379   H431    1.081   .     S
C379   C381    1.407   .     A
C379   N411    1.363   .     A
C380   H432    1.081   .     S
C380   N412    1.364   .     A
C380   C382    1.406   .     A
C381   C383    1.411   .     A
C381   H433    1.081   .     S
C382   H434    1.081   .     S
C382   C384    1.411   .     A
C384   C11     1.516   1_556 S
C385   O417    1.283   .     A
C385   C387    1.447   .     S
C385   O419    1.290   .     A
C386   O418    1.283   .     A
C386   C388    1.448   .     S
C386   O420    1.290   .     A
C387   C512    1.354   1_455 S
C387   O545    1.388   1_455 S
C388   C449    1.354   .     S
C388   O485    1.389   .     S
C389   C399    1.418   .     A
C389   O425    1.381   .     S
C389   C391    1.393   .     A
C390   O427    1.381   .     S
C390   C400    1.418   .     A
C390   C392    1.393   .     A
C391   C393    1.401   .     A
C391   H429    1.084   .     S
C392   C394    1.401   .     A
C392   H430    1.084   .     S
C393   C395    1.398   .     A
C394   C396    1.398   .     A
C395   C397    1.389   .     A
C395   H403    1.083   .     S
C396   H404    1.083   .     S
C396   C398    1.389   .     A
C397   C399    1.403   .     A
C397   H405    1.084   .     S
C398   C400    1.403   .     A
C398   H406    1.084   .     S
C399   C586    1.468   1_545 S
C400   C585    1.468   .     S
Cu401  Cu402   2.673   .     S
Cu401  O413    1.952   .     S
Cu401  N412    2.008   .     S
Cu401  O416    1.951   .     S
Cu401  O417    1.974   .     S
Cu401  O420    1.975   .     S
Cu402  O418    1.974   .     S
Cu402  N411    2.008   .     S
Cu402  O415    1.951   .     S
Cu402  O419    1.975   .     S
Cu402  O414    1.952   .     S
O421   C449    1.388   .     S
O421   H484    0.991   .     S
H422   O545    0.991   1_455 S
O423   C512    1.389   1_455 S
O423   H548    0.991   1_455 S
H424   O485    0.991   .     S
O425   H612    0.989   1_545 S
H426   O611    0.989   .     S
O427   H614    0.989   .     S
H428   O613    0.989   1_545 S
C435   O475    1.291   .     A
C435   C455    1.459   .     S
C435   O477    1.293   .     A
C436   C456    1.459   .     S
C436   O476    1.292   .     A
C436   O478    1.292   .     A
C437   H469    1.081   .     S
C437   C445    1.411   .     A
C437   C439    1.406   .     A
C438   H470    1.081   .     S
C438   C446    1.411   .     A
C438   C440    1.407   .     A
C439   H471    1.080   .     S
C439   N473    1.363   .     A
C440   N474    1.364   .     A
C440   H472    1.081   .     S
C441   H493    1.081   .     S
C441   C443    1.407   .     A
C441   N473    1.363   .     A
C442   H494    1.081   .     S
C442   N474    1.364   .     A
C442   C444    1.406   .     A
C443   C445    1.411   .     A
C443   H495    1.081   .     S
C444   H496    1.081   .     S
C444   C446    1.411   .     A
C446   C73     1.516   1_556 S
C447   O479    1.283   .     A
C447   C449    1.447   .     S
C447   O481    1.290   .     A
C448   O480    1.283   .     A
C448   C450    1.448   .     S
C448   O482    1.290   .     A
C450   C511    1.354   .     S
C450   O547    1.389   .     S
C451   C461    1.418   .     A
C451   O487    1.381   .     S
C451   C453    1.393   .     A
C452   O489    1.381   .     S
C452   C462    1.418   .     A
C452   C454    1.393   .     A
C453   C455    1.401   .     A
C453   H491    1.084   .     S
C454   C456    1.401   .     A
C454   H492    1.084   .     S
C455   C457    1.398   .     A
C456   C458    1.398   .     A
C457   C459    1.389   .     A
C457   H465    1.083   .     S
C458   H466    1.083   .     S
C458   C460    1.389   .     A
C459   C461    1.403   .     A
C459   H467    1.084   .     S
C460   C462    1.403   .     A
C460   H468    1.084   .     S
C461   C648    1.468   1_545 S
C462   C647    1.468   .     S
Cu463  Cu464   2.673   .     S
Cu463  O475    1.952   .     S
Cu463  N474    2.008   .     S
Cu463  O478    1.951   .     S
Cu463  O479    1.974   .     S
Cu463  O482    1.975   .     S
Cu464  O480    1.974   .     S
Cu464  N473    2.008   .     S
Cu464  O477    1.951   .     S
Cu464  O481    1.975   .     S
Cu464  O476    1.952   .     S
O483   C511    1.388   .     S
O483   H546    0.991   .     S
H486   O547    0.991   .     S
O487   H674    0.989   1_545 S
H488   O673    0.989   .     S
O489   H676    0.989   .     S
H490   O675    0.989   1_545 S
C497   O537    1.291   .     A
C497   C517    1.459   .     S
C497   O539    1.293   .     A
C498   C518    1.459   .     S
C498   O538    1.292   .     A
C498   O540    1.292   .     A
C499   H531    1.081   .     S
C499   C507    1.411   .     A
C499   C501    1.406   .     A
C500   H532    1.081   .     S
C500   C508    1.411   .     A
C500   C502    1.407   .     A
C501   H533    1.080   .     S
C501   N535    1.363   .     A
C502   N536    1.364   .     A
C502   H534    1.081   .     S
C503   H555    1.081   .     S
C503   C505    1.407   .     A
C503   N535    1.363   .     A
C504   H556    1.081   .     S
C504   N536    1.364   .     A
C504   C506    1.406   .     A
C505   C507    1.411   .     A
C505   H557    1.081   .     S
C506   H558    1.081   .     S
C506   C508    1.411   .     A
C508   C135    1.516   1_556 S
C509   O541    1.283   .     A
C509   C511    1.447   .     S
C509   O543    1.290   .     A
C510   O542    1.283   .     A
C510   C512    1.448   .     S
C510   O544    1.290   .     A
C512   C387    1.354   1_655 S
C512   O423    1.389   1_655 S
C513   C523    1.418   .     A
C513   O549    1.381   .     S
C513   C515    1.393   .     A
C514   O551    1.381   .     S
C514   C524    1.418   .     A
C514   C516    1.393   .     A
C515   C517    1.401   .     A
C515   H553    1.084   .     S
C516   C518    1.401   .     A
C516   H554    1.084   .     S
C517   C519    1.398   .     A
C518   C520    1.398   .     A
C519   C521    1.389   .     A
C519   H527    1.083   .     S
C520   H528    1.083   .     S
C520   C522    1.389   .     A
C521   C523    1.403   .     A
C521   H529    1.084   .     S
C522   C524    1.403   .     A
C522   H530    1.084   .     S
C523   C710    1.468   1_545 S
C524   C709    1.468   .     S
Cu525  Cu526   2.673   .     S
Cu525  O537    1.952   .     S
Cu525  N536    2.008   .     S
Cu525  O540    1.951   .     S
Cu525  O541    1.974   .     S
Cu525  O544    1.975   .     S
Cu526  O542    1.974   .     S
Cu526  N535    2.008   .     S
Cu526  O539    1.951   .     S
Cu526  O543    1.975   .     S
Cu526  O538    1.952   .     S
O545   C387    1.388   1_655 S
O545   H422    0.991   1_655 S
H548   O423    0.991   1_655 S
O549   H736    0.989   1_545 S
H550   O735    0.989   .     S
O551   H738    0.989   .     S
H552   O737    0.989   1_545 S
C559   O599    1.291   .     A
C559   C579    1.459   .     S
C559   O601    1.293   .     A
C560   C580    1.459   .     S
C560   O600    1.292   .     A
C560   O602    1.292   .     A
C561   H593    1.081   .     S
C561   C569    1.411   .     A
C561   C563    1.406   .     A
C562   H594    1.081   .     S
C562   C570    1.411   .     A
C562   C564    1.407   .     A
C563   H595    1.080   .     S
C563   N597    1.363   .     A
C564   N598    1.364   .     A
C564   H596    1.081   .     S
C565   H617    1.081   .     S
C565   C567    1.407   .     A
C565   N597    1.363   .     A
C566   H618    1.081   .     S
C566   N598    1.364   .     A
C566   C568    1.406   .     A
C567   C569    1.411   .     A
C567   H619    1.081   .     S
C568   H620    1.081   .     S
C568   C570    1.411   .     A
C570   C197    1.516   1_556 S
C571   O603    1.283   .     A
C571   C573    1.447   .     S
C571   O605    1.290   .     A
C572   O604    1.283   .     A
C572   C574    1.448   .     S
C572   O606    1.290   .     A
C573   C698    1.354   1_455 S
C573   O731    1.388   1_455 S
C574   C635    1.354   .     S
C574   O671    1.389   .     S
C575   C585    1.418   .     A
C575   O611    1.381   .     S
C575   C577    1.393   .     A
C576   O613    1.381   .     S
C576   C586    1.418   .     A
C576   C578    1.393   .     A
C577   C579    1.401   .     A
C577   H615    1.084   .     S
C578   C580    1.401   .     A
C578   H616    1.084   .     S
C579   C581    1.398   .     A
C580   C582    1.398   .     A
C581   C583    1.389   .     A
C581   H589    1.083   .     S
C582   H590    1.083   .     S
C582   C584    1.389   .     A
C583   C585    1.403   .     A
C583   H591    1.084   .     S
C584   C586    1.403   .     A
C584   H592    1.084   .     S
C586   C399    1.468   1_565 S
Cu587  Cu588   2.673   .     S
Cu587  O599    1.952   .     S
Cu587  N598    2.008   .     S
Cu587  O602    1.951   .     S
Cu587  O603    1.974   .     S
Cu587  O606    1.975   .     S
Cu588  O604    1.974   .     S
Cu588  N597    2.008   .     S
Cu588  O601    1.951   .     S
Cu588  O605    1.975   .     S
Cu588  O600    1.952   .     S
O607   C635    1.388   .     S
O607   H670    0.991   .     S
H608   O731    0.991   1_455 S
O609   C698    1.389   1_455 S
O609   H734    0.991   1_455 S
H610   O671    0.991   .     S
H612   O425    0.989   1_565 S
O613   H428    0.989   1_565 S
C621   O661    1.291   .     A
C621   C641    1.459   .     S
C621   O663    1.293   .     A
C622   C642    1.459   .     S
C622   O662    1.292   .     A
C622   O664    1.292   .     A
C623   H655    1.081   .     S
C623   C631    1.411   .     A
C623   C625    1.406   .     A
C624   H656    1.081   .     S
C624   C632    1.411   .     A
C624   C626    1.407   .     A
C625   H657    1.080   .     S
C625   N659    1.363   .     A
C626   N660    1.364   .     A
C626   H658    1.081   .     S
C627   H679    1.081   .     S
C627   C629    1.407   .     A
C627   N659    1.363   .     A
C628   H680    1.081   .     S
C628   N660    1.364   .     A
C628   C630    1.406   .     A
C629   C631    1.411   .     A
C629   H681    1.081   .     S
C630   H682    1.081   .     S
C630   C632    1.411   .     A
C632   C259    1.516   1_556 S
C633   O665    1.283   .     A
C633   C635    1.447   .     S
C633   O667    1.290   .     A
C634   O666    1.283   .     A
C634   C636    1.448   .     S
C634   O668    1.290   .     A
C636   C697    1.354   .     S
C636   O733    1.389   .     S
C637   C647    1.418   .     A
C637   O673    1.381   .     S
C637   C639    1.393   .     A
C638   O675    1.381   .     S
C638   C648    1.418   .     A
C638   C640    1.393   .     A
C639   C641    1.401   .     A
C639   H677    1.084   .     S
C640   C642    1.401   .     A
C640   H678    1.084   .     S
C641   C643    1.398   .     A
C642   C644    1.398   .     A
C643   C645    1.389   .     A
C643   H651    1.083   .     S
C644   H652    1.083   .     S
C644   C646    1.389   .     A
C645   C647    1.403   .     A
C645   H653    1.084   .     S
C646   C648    1.403   .     A
C646   H654    1.084   .     S
C648   C461    1.468   1_565 S
Cu649  Cu650   2.673   .     S
Cu649  O661    1.952   .     S
Cu649  N660    2.008   .     S
Cu649  O664    1.951   .     S
Cu649  O665    1.974   .     S
Cu649  O668    1.975   .     S
Cu650  O666    1.974   .     S
Cu650  N659    2.008   .     S
Cu650  O663    1.951   .     S
Cu650  O667    1.975   .     S
Cu650  O662    1.952   .     S
O669   C697    1.388   .     S
O669   H732    0.991   .     S
H672   O733    0.991   .     S
H674   O487    0.989   1_565 S
O675   H490    0.989   1_565 S
C683   O723    1.291   .     A
C683   C703    1.459   .     S
C683   O725    1.293   .     A
C684   C704    1.459   .     S
C684   O724    1.292   .     A
C684   O726    1.292   .     A
C685   H717    1.081   .     S
C685   C693    1.411   .     A
C685   C687    1.406   .     A
C686   H718    1.081   .     S
C686   C694    1.411   .     A
C686   C688    1.407   .     A
C687   H719    1.080   .     S
C687   N721    1.363   .     A
C688   N722    1.364   .     A
C688   H720    1.081   .     S
C689   H741    1.081   .     S
C689   C691    1.407   .     A
C689   N721    1.363   .     A
C690   H742    1.081   .     S
C690   N722    1.364   .     A
C690   C692    1.406   .     A
C691   C693    1.411   .     A
C691   H743    1.081   .     S
C692   H744    1.081   .     S
C692   C694    1.411   .     A
C694   C321    1.516   1_556 S
C695   O727    1.283   .     A
C695   C697    1.447   .     S
C695   O729    1.290   .     A
C696   O728    1.283   .     A
C696   C698    1.448   .     S
C696   O730    1.290   .     A
C698   C573    1.354   1_655 S
C698   O609    1.389   1_655 S
C699   C709    1.418   .     A
C699   O735    1.381   .     S
C699   C701    1.393   .     A
C700   O737    1.381   .     S
C700   C710    1.418   .     A
C700   C702    1.393   .     A
C701   C703    1.401   .     A
C701   H739    1.084   .     S
C702   C704    1.401   .     A
C702   H740    1.084   .     S
C703   C705    1.398   .     A
C704   C706    1.398   .     A
C705   C707    1.389   .     A
C705   H713    1.083   .     S
C706   H714    1.083   .     S
C706   C708    1.389   .     A
C707   C709    1.403   .     A
C707   H715    1.084   .     S
C708   C710    1.403   .     A
C708   H716    1.084   .     S
C710   C523    1.468   1_565 S
Cu711  Cu712   2.673   .     S
Cu711  O723    1.952   .     S
Cu711  N722    2.008   .     S
Cu711  O726    1.951   .     S
Cu711  O727    1.974   .     S
Cu711  O730    1.975   .     S
Cu712  O728    1.974   .     S
Cu712  N721    2.008   .     S
Cu712  O725    1.951   .     S
Cu712  O729    1.975   .     S
Cu712  O724    1.952   .     S
O731   C573    1.388   1_655 S
O731   H608    0.991   1_655 S
H734   O609    0.991   1_655 S
H736   O549    0.989   1_565 S
O737   H552    0.989   1_565 S
