data_str_m2_o1_o18_pcu_sym.4
_audit_creation_date              2020-01-03
_audit_creation_method            'Materials Studio'
_symmetry_space_group_name_H-M    'P1'
_symmetry_Int_Tables_number       1
_symmetry_cell_setting            triclinic
loop_
_symmetry_equiv_pos_as_xyz
  x,y,z
_cell_length_a                    28.5675
_cell_length_b                    32.3740
_cell_length_c                    30.8619
_cell_angle_alpha                 89.9259
_cell_angle_beta                  73.2607
_cell_angle_gamma                 90.1110
loop_
_atom_site_label
_atom_site_type_symbol
_atom_site_fract_x
_atom_site_fract_y
_atom_site_fract_z
_atom_site_U_iso_or_equiv
_atom_site_adp_type
_atom_site_occupancy
O1     O     0.03958   0.10655   0.25000   0.00000  Uiso   1.00
O2     O     0.29375   0.22678   0.25000   0.00000  Uiso   1.00
O3     O     0.29372   0.10654   0.25000   0.00000  Uiso   1.00
O4     O     0.03961   0.22679   0.25000   0.00000  Uiso   1.00
C5     C     0.00037   0.08747   0.24861   0.00000  Uiso   1.00
C6     C     0.33299   0.24588   0.25132   0.00000  Uiso   1.00
O7     O     0.01852   0.16668   0.31492   0.00000  Uiso   1.00
O8     O     0.31481   0.16666   0.18508   0.00000  Uiso   1.00
O9     O     0.27267   0.16667   0.31492   0.00000  Uiso   1.00
O10    O     0.06067   0.16667   0.18508   0.00000  Uiso   1.00
C11    C     0.30553   0.16828   0.33625   0.00000  Uiso   1.00
C12    C     0.02767   0.16587   0.16376   0.00000  Uiso   1.00
Cu13   Cu    0.04689   0.16667   0.25000   0.00000  Uiso   1.00
Cu14   Cu    0.28645   0.16666   0.25000   0.00000  Uiso   1.00
C15    C     0.28880   0.17870   0.38457   0.00000  Uiso   1.00
C16    C     0.04281   0.16379   0.11424   0.00000  Uiso   1.00
C17    C     0.29648   0.22060   0.44702   0.00000  Uiso   1.00
C18    C     0.02815   0.14080   0.04501   0.00000  Uiso   1.00
C19    C     0.31709   0.20356   0.40427   0.00000  Uiso   1.00
C20    C     0.01261   0.14491   0.09174   0.00000  Uiso   1.00
C21    C     0.24022   0.17052   0.40844   0.00000  Uiso   1.00
C22    C     0.08809   0.17962   0.08943   0.00000  Uiso   1.00
C23    C     0.21710   0.19137   0.44888   0.00000  Uiso   1.00
C24    C     0.10222   0.18030   0.04170   0.00000  Uiso   1.00
C25    C     0.24629   0.21518   0.46960   0.00000  Uiso   1.00
C26    C     0.07275   0.15837   0.01924   0.00000  Uiso   1.00
C27    C     0.16613   0.18704   0.47012   0.00000  Uiso   1.00
C28    C     0.14747   0.19819   0.01618   0.00000  Uiso   1.00
C29    C     0.17470   0.22701   0.03445   0.00000  Uiso   1.00
C30    C     0.13302   0.17232   0.44688   0.00000  Uiso   1.00
C31    C     0.22464   0.23412   0.01162   0.00000  Uiso   1.00
C32    C     0.08843   0.15424   0.47175   0.00000  Uiso   1.00
H33    H     0.11252   0.19032   0.10800   0.00000  Uiso   1.00
H34    H     0.22027   0.14853   0.39414   0.00000  Uiso   1.00
H35    H     0.31117   0.13160   0.11049   0.00000  Uiso   1.00
H36    H     0.02147   0.21046   0.38637   0.00000  Uiso   1.00
H37    H     0.31986   0.23891   0.46158   0.00000  Uiso   1.00
H38    H     0.00468   0.12358   0.02973   0.00000  Uiso   1.00
C39    C     0.31320   0.02040   0.21875   0.00000  Uiso   1.00
C40    C     0.02033   0.31298   0.28102   0.00000  Uiso   1.00
C41    C     0.31244   0.31079   0.22173   0.00000  Uiso   1.00
C42    C     0.02101   0.02258   0.27809   0.00000  Uiso   1.00
H43    H     0.29739   0.29277   0.19928   0.00000  Uiso   1.00
H44    H     0.03608   0.04060   0.30052   0.00000  Uiso   1.00
C45    C     0.33279   0.29052   0.25204   0.00000  Uiso   1.00
C46    C     0.00063   0.04284   0.24781   0.00000  Uiso   1.00
C47    C     0.18274   0.14071   0.27781   0.00000  Uiso   1.00
C48    C     0.15062   0.19256   0.22210   0.00000  Uiso   1.00
H49    H     0.19439   0.11997   0.30018   0.00000  Uiso   1.00
H50    H     0.13895   0.21332   0.19976   0.00000  Uiso   1.00
C51    C     0.13317   0.14066   0.27773   0.00000  Uiso   1.00
C52    C     0.20022   0.19253   0.22209   0.00000  Uiso   1.00
H53    H     0.10749   0.11986   0.30000   0.00000  Uiso   1.00
H54    H     0.22592   0.21325   0.19974   0.00000  Uiso   1.00
N55    N     0.11736   0.16668   0.24999   0.00000  Uiso   1.00
N56    N     0.21597   0.16666   0.25001   0.00000  Uiso   1.00
N57    N     0.25323   0.26116   0.03071   0.00000  Uiso   1.00
O58    O     0.26567   0.29756   0.01322   0.00000  Uiso   1.00
O59    O     0.27018   0.24805   0.06309   0.00000  Uiso   1.00
N60    N     0.06174   0.12870   0.44894   0.00000  Uiso   1.00
O61    O     0.01647   0.13669   0.45146   0.00000  Uiso   1.00
O62    O     0.08358   0.09805   0.42400   0.00000  Uiso   1.00
C63    C     0.14882   0.25522   0.07187   0.00000  Uiso   1.00
H64    H     0.11011   0.26116   0.07778   0.00000  Uiso   1.00
O65    O     0.16972   0.27169   0.09668   0.00000  Uiso   1.00
C66    C     0.14049   0.18389   0.39837   0.00000  Uiso   1.00
H67    H     0.17034   0.20421   0.38126   0.00000  Uiso   1.00
O68    O     0.11236   0.17286   0.37745   0.00000  Uiso   1.00
C69    C     0.29471   0.04090   0.18374   0.00000  Uiso   1.00
H70    H     0.30210   0.07328   0.17561   0.00000  Uiso   1.00
O71    O     0.27136   0.02160   0.16297   0.00000  Uiso   1.00
C72    C     0.03910   0.29252   0.31586   0.00000  Uiso   1.00
H73    H     0.03233   0.26004   0.32357   0.00000  Uiso   1.00
O74    O     0.06204   0.31194   0.33692   0.00000  Uiso   1.00
O75    O     0.37291   0.10655   0.25000   0.00000  Uiso   1.00
O76    O     0.62709   0.22678   0.25000   0.00000  Uiso   1.00
O77    O     0.62706   0.10654   0.25000   0.00000  Uiso   1.00
O78    O     0.37294   0.22679   0.25000   0.00000  Uiso   1.00
C79    C     0.33370   0.08747   0.24861   0.00000  Uiso   1.00
C80    C     0.66632   0.24588   0.25132   0.00000  Uiso   1.00
O81    O     0.35186   0.16668   0.31492   0.00000  Uiso   1.00
O82    O     0.64814   0.16666   0.18508   0.00000  Uiso   1.00
O83    O     0.60600   0.16667   0.31492   0.00000  Uiso   1.00
O84    O     0.39400   0.16667   0.18508   0.00000  Uiso   1.00
C85    C     0.63886   0.16828   0.33625   0.00000  Uiso   1.00
C86    C     0.36100   0.16587   0.16376   0.00000  Uiso   1.00
Cu87   Cu    0.38022   0.16667   0.25000   0.00000  Uiso   1.00
Cu88   Cu    0.61978   0.16666   0.25000   0.00000  Uiso   1.00
C89    C     0.62213   0.17870   0.38457   0.00000  Uiso   1.00
C90    C     0.37614   0.16379   0.11424   0.00000  Uiso   1.00
C91    C     0.62981   0.22060   0.44702   0.00000  Uiso   1.00
C92    C     0.36148   0.14080   0.04501   0.00000  Uiso   1.00
C93    C     0.65042   0.20356   0.40427   0.00000  Uiso   1.00
C94    C     0.34595   0.14491   0.09174   0.00000  Uiso   1.00
C95    C     0.57356   0.17052   0.40844   0.00000  Uiso   1.00
C96    C     0.42143   0.17962   0.08943   0.00000  Uiso   1.00
C97    C     0.55043   0.19137   0.44888   0.00000  Uiso   1.00
C98    C     0.43556   0.18030   0.04170   0.00000  Uiso   1.00
C99    C     0.57962   0.21518   0.46960   0.00000  Uiso   1.00
C100   C     0.40608   0.15837   0.01924   0.00000  Uiso   1.00
C101   C     0.49946   0.18704   0.47012   0.00000  Uiso   1.00
C102   C     0.48081   0.19819   0.01618   0.00000  Uiso   1.00
C103   C     0.50803   0.22701   0.03445   0.00000  Uiso   1.00
C104   C     0.46636   0.17232   0.44688   0.00000  Uiso   1.00
C105   C     0.55798   0.23412   0.01162   0.00000  Uiso   1.00
C106   C     0.42177   0.15424   0.47175   0.00000  Uiso   1.00
H107   H     0.44585   0.19032   0.10800   0.00000  Uiso   1.00
H108   H     0.55360   0.14853   0.39414   0.00000  Uiso   1.00
H109   H     0.64450   0.13160   0.11049   0.00000  Uiso   1.00
H110   H     0.35480   0.21046   0.38637   0.00000  Uiso   1.00
H111   H     0.65319   0.23891   0.46158   0.00000  Uiso   1.00
H112   H     0.33801   0.12358   0.02973   0.00000  Uiso   1.00
C113   C     0.64653   0.02040   0.21875   0.00000  Uiso   1.00
C114   C     0.35366   0.31298   0.28102   0.00000  Uiso   1.00
C115   C     0.64578   0.31079   0.22173   0.00000  Uiso   1.00
C116   C     0.35434   0.02258   0.27809   0.00000  Uiso   1.00
H117   H     0.63072   0.29277   0.19928   0.00000  Uiso   1.00
H118   H     0.36941   0.04060   0.30052   0.00000  Uiso   1.00
C119   C     0.66613   0.29052   0.25204   0.00000  Uiso   1.00
C120   C     0.33396   0.04284   0.24781   0.00000  Uiso   1.00
C121   C     0.51607   0.14071   0.27781   0.00000  Uiso   1.00
C122   C     0.48395   0.19256   0.22210   0.00000  Uiso   1.00
H123   H     0.52773   0.11997   0.30018   0.00000  Uiso   1.00
H124   H     0.47228   0.21332   0.19976   0.00000  Uiso   1.00
C125   C     0.46650   0.14066   0.27773   0.00000  Uiso   1.00
C126   C     0.53356   0.19253   0.22209   0.00000  Uiso   1.00
H127   H     0.44082   0.11986   0.30000   0.00000  Uiso   1.00
H128   H     0.55926   0.21325   0.19974   0.00000  Uiso   1.00
N129   N     0.45069   0.16668   0.24999   0.00000  Uiso   1.00
N130   N     0.54931   0.16666   0.25001   0.00000  Uiso   1.00
N131   N     0.58656   0.26116   0.03071   0.00000  Uiso   1.00
O132   O     0.59901   0.29756   0.01322   0.00000  Uiso   1.00
O133   O     0.60352   0.24805   0.06309   0.00000  Uiso   1.00
N134   N     0.39507   0.12870   0.44894   0.00000  Uiso   1.00
O135   O     0.34980   0.13669   0.45146   0.00000  Uiso   1.00
O136   O     0.41691   0.09805   0.42400   0.00000  Uiso   1.00
C137   C     0.48216   0.25522   0.07187   0.00000  Uiso   1.00
H138   H     0.44344   0.26116   0.07778   0.00000  Uiso   1.00
O139   O     0.50305   0.27169   0.09668   0.00000  Uiso   1.00
C140   C     0.47383   0.18389   0.39837   0.00000  Uiso   1.00
H141   H     0.50367   0.20421   0.38126   0.00000  Uiso   1.00
O142   O     0.44570   0.17286   0.37745   0.00000  Uiso   1.00
C143   C     0.62805   0.04090   0.18374   0.00000  Uiso   1.00
H144   H     0.63543   0.07328   0.17561   0.00000  Uiso   1.00
O145   O     0.60470   0.02160   0.16297   0.00000  Uiso   1.00
C146   C     0.37243   0.29252   0.31586   0.00000  Uiso   1.00
H147   H     0.36567   0.26004   0.32357   0.00000  Uiso   1.00
O148   O     0.39537   0.31194   0.33692   0.00000  Uiso   1.00
O149   O     0.70625   0.10655   0.25000   0.00000  Uiso   1.00
O150   O     0.96042   0.22678   0.25000   0.00000  Uiso   1.00
O151   O     0.96039   0.10654   0.25000   0.00000  Uiso   1.00
O152   O     0.70628   0.22679   0.25000   0.00000  Uiso   1.00
C153   C     0.66704   0.08747   0.24861   0.00000  Uiso   1.00
C154   C     0.99966   0.24588   0.25132   0.00000  Uiso   1.00
O155   O     0.68519   0.16668   0.31492   0.00000  Uiso   1.00
O156   O     0.98148   0.16666   0.18508   0.00000  Uiso   1.00
O157   O     0.93933   0.16667   0.31492   0.00000  Uiso   1.00
O158   O     0.72733   0.16667   0.18508   0.00000  Uiso   1.00
C159   C     0.97220   0.16828   0.33625   0.00000  Uiso   1.00
C160   C     0.69434   0.16587   0.16376   0.00000  Uiso   1.00
Cu161  Cu    0.71355   0.16667   0.25000   0.00000  Uiso   1.00
Cu162  Cu    0.95311   0.16666   0.25000   0.00000  Uiso   1.00
C163   C     0.95547   0.17870   0.38457   0.00000  Uiso   1.00
C164   C     0.70947   0.16379   0.11424   0.00000  Uiso   1.00
C165   C     0.96315   0.22060   0.44702   0.00000  Uiso   1.00
C166   C     0.69481   0.14080   0.04501   0.00000  Uiso   1.00
C167   C     0.98376   0.20356   0.40427   0.00000  Uiso   1.00
C168   C     0.67928   0.14491   0.09174   0.00000  Uiso   1.00
C169   C     0.90689   0.17052   0.40844   0.00000  Uiso   1.00
C170   C     0.75476   0.17962   0.08943   0.00000  Uiso   1.00
C171   C     0.88377   0.19137   0.44888   0.00000  Uiso   1.00
C172   C     0.76889   0.18030   0.04170   0.00000  Uiso   1.00
C173   C     0.91296   0.21518   0.46960   0.00000  Uiso   1.00
C174   C     0.73941   0.15837   0.01924   0.00000  Uiso   1.00
C175   C     0.83279   0.18704   0.47012   0.00000  Uiso   1.00
C176   C     0.81414   0.19819   0.01618   0.00000  Uiso   1.00
C177   C     0.84136   0.22701   0.03445   0.00000  Uiso   1.00
C178   C     0.79969   0.17232   0.44688   0.00000  Uiso   1.00
C179   C     0.89131   0.23412   0.01162   0.00000  Uiso   1.00
C180   C     0.75510   0.15424   0.47175   0.00000  Uiso   1.00
H181   H     0.77919   0.19032   0.10800   0.00000  Uiso   1.00
H182   H     0.88694   0.14853   0.39414   0.00000  Uiso   1.00
H183   H     0.97783   0.13160   0.11049   0.00000  Uiso   1.00
H184   H     0.68813   0.21046   0.38637   0.00000  Uiso   1.00
H185   H     0.98652   0.23891   0.46158   0.00000  Uiso   1.00
H186   H     0.67134   0.12358   0.02973   0.00000  Uiso   1.00
C187   C     0.97987   0.02040   0.21875   0.00000  Uiso   1.00
C188   C     0.68700   0.31298   0.28102   0.00000  Uiso   1.00
C189   C     0.97911   0.31079   0.22173   0.00000  Uiso   1.00
C190   C     0.68767   0.02258   0.27809   0.00000  Uiso   1.00
H191   H     0.96405   0.29277   0.19928   0.00000  Uiso   1.00
H192   H     0.70275   0.04060   0.30052   0.00000  Uiso   1.00
C193   C     0.99946   0.29052   0.25204   0.00000  Uiso   1.00
C194   C     0.66730   0.04284   0.24781   0.00000  Uiso   1.00
C195   C     0.84941   0.14071   0.27781   0.00000  Uiso   1.00
C196   C     0.81728   0.19256   0.22210   0.00000  Uiso   1.00
H197   H     0.86106   0.11997   0.30018   0.00000  Uiso   1.00
H198   H     0.80562   0.21332   0.19976   0.00000  Uiso   1.00
C199   C     0.79983   0.14066   0.27773   0.00000  Uiso   1.00
C200   C     0.86689   0.19253   0.22209   0.00000  Uiso   1.00
H201   H     0.77416   0.11986   0.30000   0.00000  Uiso   1.00
H202   H     0.89259   0.21325   0.19974   0.00000  Uiso   1.00
N203   N     0.78403   0.16668   0.24999   0.00000  Uiso   1.00
N204   N     0.88264   0.16666   0.25001   0.00000  Uiso   1.00
N205   N     0.91989   0.26116   0.03071   0.00000  Uiso   1.00
O206   O     0.93234   0.29756   0.01322   0.00000  Uiso   1.00
O207   O     0.93685   0.24805   0.06309   0.00000  Uiso   1.00
N208   N     0.72841   0.12870   0.44894   0.00000  Uiso   1.00
O209   O     0.68313   0.13669   0.45146   0.00000  Uiso   1.00
O210   O     0.75024   0.09805   0.42400   0.00000  Uiso   1.00
C211   C     0.81549   0.25522   0.07187   0.00000  Uiso   1.00
H212   H     0.77677   0.26116   0.07778   0.00000  Uiso   1.00
O213   O     0.83639   0.27169   0.09668   0.00000  Uiso   1.00
C214   C     0.80716   0.18389   0.39837   0.00000  Uiso   1.00
H215   H     0.83700   0.20421   0.38126   0.00000  Uiso   1.00
O216   O     0.77903   0.17286   0.37745   0.00000  Uiso   1.00
C217   C     0.96138   0.04090   0.18374   0.00000  Uiso   1.00
H218   H     0.96876   0.07328   0.17561   0.00000  Uiso   1.00
O219   O     0.93803   0.02160   0.16297   0.00000  Uiso   1.00
C220   C     0.70577   0.29252   0.31586   0.00000  Uiso   1.00
H221   H     0.69900   0.26004   0.32357   0.00000  Uiso   1.00
O222   O     0.72870   0.31194   0.33692   0.00000  Uiso   1.00
O223   O     0.03958   0.43989   0.25000   0.00000  Uiso   1.00
O224   O     0.29375   0.56011   0.25000   0.00000  Uiso   1.00
O225   O     0.29372   0.43988   0.25000   0.00000  Uiso   1.00
O226   O     0.03961   0.56012   0.25000   0.00000  Uiso   1.00
C227   C     0.00037   0.42080   0.24861   0.00000  Uiso   1.00
C228   C     0.33299   0.57921   0.25132   0.00000  Uiso   1.00
O229   O     0.01852   0.50001   0.31492   0.00000  Uiso   1.00
O230   O     0.31481   0.49999   0.18508   0.00000  Uiso   1.00
O231   O     0.27267   0.50000   0.31492   0.00000  Uiso   1.00
O232   O     0.06067   0.50000   0.18508   0.00000  Uiso   1.00
C233   C     0.30553   0.50161   0.33625   0.00000  Uiso   1.00
C234   C     0.02767   0.49921   0.16376   0.00000  Uiso   1.00
Cu235  Cu    0.04689   0.50001   0.25000   0.00000  Uiso   1.00
Cu236  Cu    0.28645   0.49999   0.25000   0.00000  Uiso   1.00
C237   C     0.28880   0.51203   0.38457   0.00000  Uiso   1.00
C238   C     0.04281   0.49713   0.11424   0.00000  Uiso   1.00
C239   C     0.29648   0.55393   0.44702   0.00000  Uiso   1.00
C240   C     0.02815   0.47413   0.04501   0.00000  Uiso   1.00
C241   C     0.31709   0.53690   0.40427   0.00000  Uiso   1.00
C242   C     0.01261   0.47824   0.09174   0.00000  Uiso   1.00
C243   C     0.24022   0.50385   0.40844   0.00000  Uiso   1.00
C244   C     0.08809   0.51296   0.08943   0.00000  Uiso   1.00
C245   C     0.21710   0.52471   0.44888   0.00000  Uiso   1.00
C246   C     0.10222   0.51363   0.04170   0.00000  Uiso   1.00
C247   C     0.24629   0.54852   0.46960   0.00000  Uiso   1.00
C248   C     0.07275   0.49170   0.01924   0.00000  Uiso   1.00
C249   C     0.16613   0.52037   0.47012   0.00000  Uiso   1.00
C250   C     0.14747   0.53152   0.01618   0.00000  Uiso   1.00
C251   C     0.17470   0.56034   0.03445   0.00000  Uiso   1.00
C252   C     0.13302   0.50565   0.44688   0.00000  Uiso   1.00
C253   C     0.22464   0.56746   0.01162   0.00000  Uiso   1.00
C254   C     0.08843   0.48757   0.47175   0.00000  Uiso   1.00
H255   H     0.11252   0.52365   0.10800   0.00000  Uiso   1.00
H256   H     0.22027   0.48187   0.39414   0.00000  Uiso   1.00
H257   H     0.31117   0.46494   0.11049   0.00000  Uiso   1.00
H258   H     0.02147   0.54379   0.38637   0.00000  Uiso   1.00
H259   H     0.31986   0.57224   0.46158   0.00000  Uiso   1.00
H260   H     0.00468   0.45691   0.02973   0.00000  Uiso   1.00
C261   C     0.31320   0.35373   0.21875   0.00000  Uiso   1.00
C262   C     0.02033   0.64632   0.28102   0.00000  Uiso   1.00
C263   C     0.31244   0.64412   0.22173   0.00000  Uiso   1.00
C264   C     0.02101   0.35591   0.27809   0.00000  Uiso   1.00
H265   H     0.29739   0.62611   0.19928   0.00000  Uiso   1.00
H266   H     0.03608   0.37394   0.30052   0.00000  Uiso   1.00
C267   C     0.33279   0.62386   0.25204   0.00000  Uiso   1.00
C268   C     0.00063   0.37617   0.24781   0.00000  Uiso   1.00
C269   C     0.18274   0.47404   0.27781   0.00000  Uiso   1.00
C270   C     0.15062   0.52589   0.22210   0.00000  Uiso   1.00
H271   H     0.19439   0.45330   0.30018   0.00000  Uiso   1.00
H272   H     0.13895   0.54665   0.19976   0.00000  Uiso   1.00
C273   C     0.13317   0.47399   0.27773   0.00000  Uiso   1.00
C274   C     0.20022   0.52586   0.22209   0.00000  Uiso   1.00
H275   H     0.10749   0.45320   0.30000   0.00000  Uiso   1.00
H276   H     0.22592   0.54659   0.19974   0.00000  Uiso   1.00
N277   N     0.11736   0.50001   0.24999   0.00000  Uiso   1.00
N278   N     0.21597   0.49999   0.25001   0.00000  Uiso   1.00
N279   N     0.25323   0.59450   0.03071   0.00000  Uiso   1.00
O280   O     0.26567   0.63090   0.01322   0.00000  Uiso   1.00
O281   O     0.27018   0.58138   0.06309   0.00000  Uiso   1.00
N282   N     0.06174   0.46203   0.44894   0.00000  Uiso   1.00
O283   O     0.01647   0.47002   0.45146   0.00000  Uiso   1.00
O284   O     0.08358   0.43138   0.42400   0.00000  Uiso   1.00
C285   C     0.14882   0.58855   0.07187   0.00000  Uiso   1.00
H286   H     0.11011   0.59449   0.07778   0.00000  Uiso   1.00
O287   O     0.16972   0.60502   0.09668   0.00000  Uiso   1.00
C288   C     0.14049   0.51722   0.39837   0.00000  Uiso   1.00
H289   H     0.17034   0.53755   0.38126   0.00000  Uiso   1.00
O290   O     0.11236   0.50619   0.37745   0.00000  Uiso   1.00
C291   C     0.29471   0.37423   0.18374   0.00000  Uiso   1.00
H292   H     0.30210   0.40661   0.17561   0.00000  Uiso   1.00
O293   O     0.27136   0.35494   0.16297   0.00000  Uiso   1.00
C294   C     0.03910   0.62585   0.31586   0.00000  Uiso   1.00
H295   H     0.03233   0.59338   0.32357   0.00000  Uiso   1.00
O296   O     0.06204   0.64527   0.33692   0.00000  Uiso   1.00
O297   O     0.37291   0.43989   0.25000   0.00000  Uiso   1.00
O298   O     0.62709   0.56011   0.25000   0.00000  Uiso   1.00
O299   O     0.62706   0.43988   0.25000   0.00000  Uiso   1.00
O300   O     0.37294   0.56012   0.25000   0.00000  Uiso   1.00
C301   C     0.33370   0.42080   0.24861   0.00000  Uiso   1.00
C302   C     0.66632   0.57921   0.25132   0.00000  Uiso   1.00
O303   O     0.35186   0.50001   0.31492   0.00000  Uiso   1.00
O304   O     0.64814   0.49999   0.18508   0.00000  Uiso   1.00
O305   O     0.60600   0.50000   0.31492   0.00000  Uiso   1.00
O306   O     0.39400   0.50000   0.18508   0.00000  Uiso   1.00
C307   C     0.63886   0.50161   0.33625   0.00000  Uiso   1.00
C308   C     0.36100   0.49921   0.16376   0.00000  Uiso   1.00
Cu309  Cu    0.38022   0.50001   0.25000   0.00000  Uiso   1.00
Cu310  Cu    0.61978   0.49999   0.25000   0.00000  Uiso   1.00
C311   C     0.62213   0.51203   0.38457   0.00000  Uiso   1.00
C312   C     0.37614   0.49713   0.11424   0.00000  Uiso   1.00
C313   C     0.62981   0.55393   0.44702   0.00000  Uiso   1.00
C314   C     0.36148   0.47413   0.04501   0.00000  Uiso   1.00
C315   C     0.65042   0.53690   0.40427   0.00000  Uiso   1.00
C316   C     0.34595   0.47824   0.09174   0.00000  Uiso   1.00
C317   C     0.57356   0.50385   0.40844   0.00000  Uiso   1.00
C318   C     0.42143   0.51296   0.08943   0.00000  Uiso   1.00
C319   C     0.55043   0.52471   0.44888   0.00000  Uiso   1.00
C320   C     0.43556   0.51363   0.04170   0.00000  Uiso   1.00
C321   C     0.57962   0.54852   0.46960   0.00000  Uiso   1.00
C322   C     0.40608   0.49170   0.01924   0.00000  Uiso   1.00
C323   C     0.49946   0.52037   0.47012   0.00000  Uiso   1.00
C324   C     0.48081   0.53152   0.01618   0.00000  Uiso   1.00
C325   C     0.50803   0.56034   0.03445   0.00000  Uiso   1.00
C326   C     0.46636   0.50565   0.44688   0.00000  Uiso   1.00
C327   C     0.55798   0.56746   0.01162   0.00000  Uiso   1.00
C328   C     0.42177   0.48757   0.47175   0.00000  Uiso   1.00
H329   H     0.44585   0.52365   0.10800   0.00000  Uiso   1.00
H330   H     0.55360   0.48187   0.39414   0.00000  Uiso   1.00
H331   H     0.64450   0.46494   0.11049   0.00000  Uiso   1.00
H332   H     0.35480   0.54379   0.38637   0.00000  Uiso   1.00
H333   H     0.65319   0.57224   0.46158   0.00000  Uiso   1.00
H334   H     0.33801   0.45691   0.02973   0.00000  Uiso   1.00
C335   C     0.64653   0.35373   0.21875   0.00000  Uiso   1.00
C336   C     0.35366   0.64632   0.28102   0.00000  Uiso   1.00
C337   C     0.64578   0.64412   0.22173   0.00000  Uiso   1.00
C338   C     0.35434   0.35591   0.27809   0.00000  Uiso   1.00
H339   H     0.63072   0.62611   0.19928   0.00000  Uiso   1.00
H340   H     0.36941   0.37394   0.30052   0.00000  Uiso   1.00
C341   C     0.66613   0.62386   0.25204   0.00000  Uiso   1.00
C342   C     0.33396   0.37617   0.24781   0.00000  Uiso   1.00
C343   C     0.51607   0.47404   0.27781   0.00000  Uiso   1.00
C344   C     0.48395   0.52589   0.22210   0.00000  Uiso   1.00
H345   H     0.52773   0.45330   0.30018   0.00000  Uiso   1.00
H346   H     0.47228   0.54665   0.19976   0.00000  Uiso   1.00
C347   C     0.46650   0.47399   0.27773   0.00000  Uiso   1.00
C348   C     0.53356   0.52586   0.22209   0.00000  Uiso   1.00
H349   H     0.44082   0.45320   0.30000   0.00000  Uiso   1.00
H350   H     0.55926   0.54659   0.19974   0.00000  Uiso   1.00
N351   N     0.45069   0.50001   0.24999   0.00000  Uiso   1.00
N352   N     0.54931   0.49999   0.25001   0.00000  Uiso   1.00
N353   N     0.58656   0.59450   0.03071   0.00000  Uiso   1.00
O354   O     0.59901   0.63090   0.01322   0.00000  Uiso   1.00
O355   O     0.60352   0.58138   0.06309   0.00000  Uiso   1.00
N356   N     0.39507   0.46203   0.44894   0.00000  Uiso   1.00
O357   O     0.34980   0.47002   0.45146   0.00000  Uiso   1.00
O358   O     0.41691   0.43138   0.42400   0.00000  Uiso   1.00
C359   C     0.48216   0.58855   0.07187   0.00000  Uiso   1.00
H360   H     0.44344   0.59449   0.07778   0.00000  Uiso   1.00
O361   O     0.50305   0.60502   0.09668   0.00000  Uiso   1.00
C362   C     0.47383   0.51722   0.39837   0.00000  Uiso   1.00
H363   H     0.50367   0.53755   0.38126   0.00000  Uiso   1.00
O364   O     0.44570   0.50619   0.37745   0.00000  Uiso   1.00
C365   C     0.62805   0.37423   0.18374   0.00000  Uiso   1.00
H366   H     0.63543   0.40661   0.17561   0.00000  Uiso   1.00
O367   O     0.60470   0.35494   0.16297   0.00000  Uiso   1.00
C368   C     0.37243   0.62585   0.31586   0.00000  Uiso   1.00
H369   H     0.36567   0.59338   0.32357   0.00000  Uiso   1.00
O370   O     0.39537   0.64527   0.33692   0.00000  Uiso   1.00
O371   O     0.70625   0.43989   0.25000   0.00000  Uiso   1.00
O372   O     0.96042   0.56011   0.25000   0.00000  Uiso   1.00
O373   O     0.96039   0.43988   0.25000   0.00000  Uiso   1.00
O374   O     0.70628   0.56012   0.25000   0.00000  Uiso   1.00
C375   C     0.66704   0.42080   0.24861   0.00000  Uiso   1.00
C376   C     0.99966   0.57921   0.25132   0.00000  Uiso   1.00
O377   O     0.68519   0.50001   0.31492   0.00000  Uiso   1.00
O378   O     0.98148   0.49999   0.18508   0.00000  Uiso   1.00
O379   O     0.93933   0.50000   0.31492   0.00000  Uiso   1.00
O380   O     0.72733   0.50000   0.18508   0.00000  Uiso   1.00
C381   C     0.97220   0.50161   0.33625   0.00000  Uiso   1.00
C382   C     0.69434   0.49921   0.16376   0.00000  Uiso   1.00
Cu383  Cu    0.71355   0.50001   0.25000   0.00000  Uiso   1.00
Cu384  Cu    0.95311   0.49999   0.25000   0.00000  Uiso   1.00
C385   C     0.95547   0.51203   0.38457   0.00000  Uiso   1.00
C386   C     0.70947   0.49713   0.11424   0.00000  Uiso   1.00
C387   C     0.96315   0.55393   0.44702   0.00000  Uiso   1.00
C388   C     0.69481   0.47413   0.04501   0.00000  Uiso   1.00
C389   C     0.98376   0.53690   0.40427   0.00000  Uiso   1.00
C390   C     0.67928   0.47824   0.09174   0.00000  Uiso   1.00
C391   C     0.90689   0.50385   0.40844   0.00000  Uiso   1.00
C392   C     0.75476   0.51296   0.08943   0.00000  Uiso   1.00
C393   C     0.88377   0.52471   0.44888   0.00000  Uiso   1.00
C394   C     0.76889   0.51363   0.04170   0.00000  Uiso   1.00
C395   C     0.91296   0.54852   0.46960   0.00000  Uiso   1.00
C396   C     0.73941   0.49170   0.01924   0.00000  Uiso   1.00
C397   C     0.83279   0.52037   0.47012   0.00000  Uiso   1.00
C398   C     0.81414   0.53152   0.01618   0.00000  Uiso   1.00
C399   C     0.84136   0.56034   0.03445   0.00000  Uiso   1.00
C400   C     0.79969   0.50565   0.44688   0.00000  Uiso   1.00
C401   C     0.89131   0.56746   0.01162   0.00000  Uiso   1.00
C402   C     0.75510   0.48757   0.47175   0.00000  Uiso   1.00
H403   H     0.77919   0.52365   0.10800   0.00000  Uiso   1.00
H404   H     0.88694   0.48187   0.39414   0.00000  Uiso   1.00
H405   H     0.97783   0.46494   0.11049   0.00000  Uiso   1.00
H406   H     0.68813   0.54379   0.38637   0.00000  Uiso   1.00
H407   H     0.98652   0.57224   0.46158   0.00000  Uiso   1.00
H408   H     0.67134   0.45691   0.02973   0.00000  Uiso   1.00
C409   C     0.97987   0.35373   0.21875   0.00000  Uiso   1.00
C410   C     0.68700   0.64632   0.28102   0.00000  Uiso   1.00
C411   C     0.97911   0.64412   0.22173   0.00000  Uiso   1.00
C412   C     0.68767   0.35591   0.27809   0.00000  Uiso   1.00
H413   H     0.96405   0.62611   0.19928   0.00000  Uiso   1.00
H414   H     0.70275   0.37394   0.30052   0.00000  Uiso   1.00
C415   C     0.99946   0.62386   0.25204   0.00000  Uiso   1.00
C416   C     0.66730   0.37617   0.24781   0.00000  Uiso   1.00
C417   C     0.84941   0.47404   0.27781   0.00000  Uiso   1.00
C418   C     0.81728   0.52589   0.22210   0.00000  Uiso   1.00
H419   H     0.86106   0.45330   0.30018   0.00000  Uiso   1.00
H420   H     0.80562   0.54665   0.19976   0.00000  Uiso   1.00
C421   C     0.79983   0.47399   0.27773   0.00000  Uiso   1.00
C422   C     0.86689   0.52586   0.22209   0.00000  Uiso   1.00
H423   H     0.77416   0.45320   0.30000   0.00000  Uiso   1.00
H424   H     0.89259   0.54659   0.19974   0.00000  Uiso   1.00
N425   N     0.78403   0.50001   0.24999   0.00000  Uiso   1.00
N426   N     0.88264   0.49999   0.25001   0.00000  Uiso   1.00
N427   N     0.91989   0.59450   0.03071   0.00000  Uiso   1.00
O428   O     0.93234   0.63090   0.01322   0.00000  Uiso   1.00
O429   O     0.93685   0.58138   0.06309   0.00000  Uiso   1.00
N430   N     0.72841   0.46203   0.44894   0.00000  Uiso   1.00
O431   O     0.68313   0.47002   0.45146   0.00000  Uiso   1.00
O432   O     0.75024   0.43138   0.42400   0.00000  Uiso   1.00
C433   C     0.81549   0.58855   0.07187   0.00000  Uiso   1.00
H434   H     0.77677   0.59449   0.07778   0.00000  Uiso   1.00
O435   O     0.83639   0.60502   0.09668   0.00000  Uiso   1.00
C436   C     0.80716   0.51722   0.39837   0.00000  Uiso   1.00
H437   H     0.83700   0.53755   0.38126   0.00000  Uiso   1.00
O438   O     0.77903   0.50619   0.37745   0.00000  Uiso   1.00
C439   C     0.96138   0.37423   0.18374   0.00000  Uiso   1.00
H440   H     0.96876   0.40661   0.17561   0.00000  Uiso   1.00
O441   O     0.93803   0.35494   0.16297   0.00000  Uiso   1.00
C442   C     0.70577   0.62585   0.31586   0.00000  Uiso   1.00
H443   H     0.69900   0.59338   0.32357   0.00000  Uiso   1.00
O444   O     0.72870   0.64527   0.33692   0.00000  Uiso   1.00
O445   O     0.03958   0.77322   0.25000   0.00000  Uiso   1.00
O446   O     0.29375   0.89345   0.25000   0.00000  Uiso   1.00
O447   O     0.29372   0.77321   0.25000   0.00000  Uiso   1.00
O448   O     0.03961   0.89346   0.25000   0.00000  Uiso   1.00
C449   C     0.00037   0.75413   0.24861   0.00000  Uiso   1.00
C450   C     0.33299   0.91254   0.25132   0.00000  Uiso   1.00
O451   O     0.01852   0.83334   0.31492   0.00000  Uiso   1.00
O452   O     0.31481   0.83332   0.18508   0.00000  Uiso   1.00
O453   O     0.27267   0.83333   0.31492   0.00000  Uiso   1.00
O454   O     0.06067   0.83333   0.18508   0.00000  Uiso   1.00
C455   C     0.30553   0.83495   0.33625   0.00000  Uiso   1.00
C456   C     0.02767   0.83254   0.16376   0.00000  Uiso   1.00
Cu457  Cu    0.04689   0.83334   0.25000   0.00000  Uiso   1.00
Cu458  Cu    0.28645   0.83333   0.25000   0.00000  Uiso   1.00
C459   C     0.28880   0.84536   0.38457   0.00000  Uiso   1.00
C460   C     0.04281   0.83046   0.11424   0.00000  Uiso   1.00
C461   C     0.29648   0.88726   0.44702   0.00000  Uiso   1.00
C462   C     0.02815   0.80747   0.04501   0.00000  Uiso   1.00
C463   C     0.31709   0.87023   0.40427   0.00000  Uiso   1.00
C464   C     0.01261   0.81157   0.09174   0.00000  Uiso   1.00
C465   C     0.24022   0.83719   0.40844   0.00000  Uiso   1.00
C466   C     0.08809   0.84629   0.08943   0.00000  Uiso   1.00
C467   C     0.21710   0.85804   0.44888   0.00000  Uiso   1.00
C468   C     0.10222   0.84697   0.04170   0.00000  Uiso   1.00
C469   C     0.24629   0.88185   0.46960   0.00000  Uiso   1.00
C470   C     0.07275   0.82504   0.01924   0.00000  Uiso   1.00
C471   C     0.16613   0.85371   0.47012   0.00000  Uiso   1.00
C472   C     0.14747   0.86485   0.01618   0.00000  Uiso   1.00
C473   C     0.17470   0.89367   0.03445   0.00000  Uiso   1.00
C474   C     0.13302   0.83898   0.44688   0.00000  Uiso   1.00
C475   C     0.22464   0.90079   0.01162   0.00000  Uiso   1.00
C476   C     0.08843   0.82091   0.47175   0.00000  Uiso   1.00
H477   H     0.11252   0.85699   0.10800   0.00000  Uiso   1.00
H478   H     0.22027   0.81520   0.39414   0.00000  Uiso   1.00
H479   H     0.31117   0.79827   0.11049   0.00000  Uiso   1.00
H480   H     0.02147   0.87713   0.38637   0.00000  Uiso   1.00
H481   H     0.31986   0.90557   0.46158   0.00000  Uiso   1.00
H482   H     0.00468   0.79025   0.02973   0.00000  Uiso   1.00
C483   C     0.31320   0.68706   0.21875   0.00000  Uiso   1.00
C484   C     0.02033   0.97965   0.28102   0.00000  Uiso   1.00
C485   C     0.31244   0.97746   0.22173   0.00000  Uiso   1.00
C486   C     0.02101   0.68925   0.27809   0.00000  Uiso   1.00
H487   H     0.29739   0.95944   0.19928   0.00000  Uiso   1.00
H488   H     0.03608   0.70727   0.30052   0.00000  Uiso   1.00
C489   C     0.33279   0.95719   0.25204   0.00000  Uiso   1.00
C490   C     0.00063   0.70950   0.24781   0.00000  Uiso   1.00
C491   C     0.18274   0.80737   0.27781   0.00000  Uiso   1.00
C492   C     0.15062   0.85923   0.22210   0.00000  Uiso   1.00
H493   H     0.19439   0.78663   0.30018   0.00000  Uiso   1.00
H494   H     0.13895   0.87998   0.19976   0.00000  Uiso   1.00
C495   C     0.13317   0.80733   0.27773   0.00000  Uiso   1.00
C496   C     0.20022   0.85919   0.22209   0.00000  Uiso   1.00
H497   H     0.10749   0.78653   0.30000   0.00000  Uiso   1.00
H498   H     0.22592   0.87992   0.19974   0.00000  Uiso   1.00
N499   N     0.11736   0.83334   0.24999   0.00000  Uiso   1.00
N500   N     0.21597   0.83332   0.25001   0.00000  Uiso   1.00
N501   N     0.25323   0.92783   0.03071   0.00000  Uiso   1.00
O502   O     0.26567   0.96423   0.01322   0.00000  Uiso   1.00
O503   O     0.27018   0.91471   0.06309   0.00000  Uiso   1.00
N504   N     0.06174   0.79537   0.44894   0.00000  Uiso   1.00
O505   O     0.01647   0.80336   0.45146   0.00000  Uiso   1.00
O506   O     0.08358   0.76471   0.42400   0.00000  Uiso   1.00
C507   C     0.14882   0.92189   0.07187   0.00000  Uiso   1.00
H508   H     0.11011   0.92782   0.07778   0.00000  Uiso   1.00
O509   O     0.16972   0.93836   0.09668   0.00000  Uiso   1.00
C510   C     0.14049   0.85055   0.39837   0.00000  Uiso   1.00
H511   H     0.17034   0.87088   0.38126   0.00000  Uiso   1.00
O512   O     0.11236   0.83952   0.37745   0.00000  Uiso   1.00
C513   C     0.29471   0.70756   0.18374   0.00000  Uiso   1.00
H514   H     0.30210   0.73995   0.17561   0.00000  Uiso   1.00
O515   O     0.27136   0.68827   0.16297   0.00000  Uiso   1.00
C516   C     0.03910   0.95919   0.31586   0.00000  Uiso   1.00
H517   H     0.03233   0.92671   0.32357   0.00000  Uiso   1.00
O518   O     0.06204   0.97861   0.33692   0.00000  Uiso   1.00
O519   O     0.37291   0.77322   0.25000   0.00000  Uiso   1.00
O520   O     0.62709   0.89345   0.25000   0.00000  Uiso   1.00
O521   O     0.62706   0.77321   0.25000   0.00000  Uiso   1.00
O522   O     0.37294   0.89346   0.25000   0.00000  Uiso   1.00
C523   C     0.33370   0.75413   0.24861   0.00000  Uiso   1.00
C524   C     0.66632   0.91254   0.25132   0.00000  Uiso   1.00
O525   O     0.35186   0.83334   0.31492   0.00000  Uiso   1.00
O526   O     0.64814   0.83332   0.18508   0.00000  Uiso   1.00
O527   O     0.60600   0.83333   0.31492   0.00000  Uiso   1.00
O528   O     0.39400   0.83333   0.18508   0.00000  Uiso   1.00
C529   C     0.63886   0.83495   0.33625   0.00000  Uiso   1.00
C530   C     0.36100   0.83254   0.16376   0.00000  Uiso   1.00
Cu531  Cu    0.38022   0.83334   0.25000   0.00000  Uiso   1.00
Cu532  Cu    0.61978   0.83333   0.25000   0.00000  Uiso   1.00
C533   C     0.62213   0.84536   0.38457   0.00000  Uiso   1.00
C534   C     0.37614   0.83046   0.11424   0.00000  Uiso   1.00
C535   C     0.62981   0.88726   0.44702   0.00000  Uiso   1.00
C536   C     0.36148   0.80747   0.04501   0.00000  Uiso   1.00
C537   C     0.65042   0.87023   0.40427   0.00000  Uiso   1.00
C538   C     0.34595   0.81157   0.09174   0.00000  Uiso   1.00
C539   C     0.57356   0.83719   0.40844   0.00000  Uiso   1.00
C540   C     0.42143   0.84629   0.08943   0.00000  Uiso   1.00
C541   C     0.55043   0.85804   0.44888   0.00000  Uiso   1.00
C542   C     0.43556   0.84697   0.04170   0.00000  Uiso   1.00
C543   C     0.57962   0.88185   0.46960   0.00000  Uiso   1.00
C544   C     0.40608   0.82504   0.01924   0.00000  Uiso   1.00
C545   C     0.49946   0.85371   0.47012   0.00000  Uiso   1.00
C546   C     0.48081   0.86485   0.01618   0.00000  Uiso   1.00
C547   C     0.50803   0.89367   0.03445   0.00000  Uiso   1.00
C548   C     0.46636   0.83898   0.44688   0.00000  Uiso   1.00
C549   C     0.55798   0.90079   0.01162   0.00000  Uiso   1.00
C550   C     0.42177   0.82091   0.47175   0.00000  Uiso   1.00
H551   H     0.44585   0.85699   0.10800   0.00000  Uiso   1.00
H552   H     0.55360   0.81520   0.39414   0.00000  Uiso   1.00
H553   H     0.64450   0.79827   0.11049   0.00000  Uiso   1.00
H554   H     0.35480   0.87713   0.38637   0.00000  Uiso   1.00
H555   H     0.65319   0.90557   0.46158   0.00000  Uiso   1.00
H556   H     0.33801   0.79025   0.02973   0.00000  Uiso   1.00
C557   C     0.64653   0.68706   0.21875   0.00000  Uiso   1.00
C558   C     0.35366   0.97965   0.28102   0.00000  Uiso   1.00
C559   C     0.64578   0.97746   0.22173   0.00000  Uiso   1.00
C560   C     0.35434   0.68925   0.27809   0.00000  Uiso   1.00
H561   H     0.63072   0.95944   0.19928   0.00000  Uiso   1.00
H562   H     0.36941   0.70727   0.30052   0.00000  Uiso   1.00
C563   C     0.66613   0.95719   0.25204   0.00000  Uiso   1.00
C564   C     0.33396   0.70950   0.24781   0.00000  Uiso   1.00
C565   C     0.51607   0.80737   0.27781   0.00000  Uiso   1.00
C566   C     0.48395   0.85923   0.22210   0.00000  Uiso   1.00
H567   H     0.52773   0.78663   0.30018   0.00000  Uiso   1.00
H568   H     0.47228   0.87998   0.19976   0.00000  Uiso   1.00
C569   C     0.46650   0.80733   0.27773   0.00000  Uiso   1.00
C570   C     0.53356   0.85919   0.22209   0.00000  Uiso   1.00
H571   H     0.44082   0.78653   0.30000   0.00000  Uiso   1.00
H572   H     0.55926   0.87992   0.19974   0.00000  Uiso   1.00
N573   N     0.45069   0.83334   0.24999   0.00000  Uiso   1.00
N574   N     0.54931   0.83332   0.25001   0.00000  Uiso   1.00
N575   N     0.58656   0.92783   0.03071   0.00000  Uiso   1.00
O576   O     0.59901   0.96423   0.01322   0.00000  Uiso   1.00
O577   O     0.60352   0.91471   0.06309   0.00000  Uiso   1.00
N578   N     0.39507   0.79537   0.44894   0.00000  Uiso   1.00
O579   O     0.34980   0.80336   0.45146   0.00000  Uiso   1.00
O580   O     0.41691   0.76471   0.42400   0.00000  Uiso   1.00
C581   C     0.48216   0.92189   0.07187   0.00000  Uiso   1.00
H582   H     0.44344   0.92782   0.07778   0.00000  Uiso   1.00
O583   O     0.50305   0.93836   0.09668   0.00000  Uiso   1.00
C584   C     0.47383   0.85055   0.39837   0.00000  Uiso   1.00
H585   H     0.50367   0.87088   0.38126   0.00000  Uiso   1.00
O586   O     0.44570   0.83952   0.37745   0.00000  Uiso   1.00
C587   C     0.62805   0.70756   0.18374   0.00000  Uiso   1.00
H588   H     0.63543   0.73995   0.17561   0.00000  Uiso   1.00
O589   O     0.60470   0.68827   0.16297   0.00000  Uiso   1.00
C590   C     0.37243   0.95919   0.31586   0.00000  Uiso   1.00
H591   H     0.36567   0.92671   0.32357   0.00000  Uiso   1.00
O592   O     0.39537   0.97861   0.33692   0.00000  Uiso   1.00
O593   O     0.70625   0.77322   0.25000   0.00000  Uiso   1.00
O594   O     0.96042   0.89345   0.25000   0.00000  Uiso   1.00
O595   O     0.96039   0.77321   0.25000   0.00000  Uiso   1.00
O596   O     0.70628   0.89346   0.25000   0.00000  Uiso   1.00
C597   C     0.66704   0.75413   0.24861   0.00000  Uiso   1.00
C598   C     0.99966   0.91254   0.25132   0.00000  Uiso   1.00
O599   O     0.68519   0.83334   0.31492   0.00000  Uiso   1.00
O600   O     0.98148   0.83332   0.18508   0.00000  Uiso   1.00
O601   O     0.93933   0.83333   0.31492   0.00000  Uiso   1.00
O602   O     0.72733   0.83333   0.18508   0.00000  Uiso   1.00
C603   C     0.97220   0.83495   0.33625   0.00000  Uiso   1.00
C604   C     0.69434   0.83254   0.16376   0.00000  Uiso   1.00
Cu605  Cu    0.71355   0.83334   0.25000   0.00000  Uiso   1.00
Cu606  Cu    0.95311   0.83333   0.25000   0.00000  Uiso   1.00
C607   C     0.95547   0.84536   0.38457   0.00000  Uiso   1.00
C608   C     0.70947   0.83046   0.11424   0.00000  Uiso   1.00
C609   C     0.96315   0.88726   0.44702   0.00000  Uiso   1.00
C610   C     0.69481   0.80747   0.04501   0.00000  Uiso   1.00
C611   C     0.98376   0.87023   0.40427   0.00000  Uiso   1.00
C612   C     0.67928   0.81157   0.09174   0.00000  Uiso   1.00
C613   C     0.90689   0.83719   0.40844   0.00000  Uiso   1.00
C614   C     0.75476   0.84629   0.08943   0.00000  Uiso   1.00
C615   C     0.88377   0.85804   0.44888   0.00000  Uiso   1.00
C616   C     0.76889   0.84697   0.04170   0.00000  Uiso   1.00
C617   C     0.91296   0.88185   0.46960   0.00000  Uiso   1.00
C618   C     0.73941   0.82504   0.01924   0.00000  Uiso   1.00
C619   C     0.83279   0.85371   0.47012   0.00000  Uiso   1.00
C620   C     0.81414   0.86485   0.01618   0.00000  Uiso   1.00
C621   C     0.84136   0.89367   0.03445   0.00000  Uiso   1.00
C622   C     0.79969   0.83898   0.44688   0.00000  Uiso   1.00
C623   C     0.89131   0.90079   0.01162   0.00000  Uiso   1.00
C624   C     0.75510   0.82091   0.47175   0.00000  Uiso   1.00
H625   H     0.77919   0.85699   0.10800   0.00000  Uiso   1.00
H626   H     0.88694   0.81520   0.39414   0.00000  Uiso   1.00
H627   H     0.97783   0.79827   0.11049   0.00000  Uiso   1.00
H628   H     0.68813   0.87713   0.38637   0.00000  Uiso   1.00
H629   H     0.98652   0.90557   0.46158   0.00000  Uiso   1.00
H630   H     0.67134   0.79025   0.02973   0.00000  Uiso   1.00
C631   C     0.97987   0.68706   0.21875   0.00000  Uiso   1.00
C632   C     0.68700   0.97965   0.28102   0.00000  Uiso   1.00
C633   C     0.97911   0.97746   0.22173   0.00000  Uiso   1.00
C634   C     0.68767   0.68925   0.27809   0.00000  Uiso   1.00
H635   H     0.96405   0.95944   0.19928   0.00000  Uiso   1.00
H636   H     0.70275   0.70727   0.30052   0.00000  Uiso   1.00
C637   C     0.99946   0.95719   0.25204   0.00000  Uiso   1.00
C638   C     0.66730   0.70950   0.24781   0.00000  Uiso   1.00
C639   C     0.84941   0.80737   0.27781   0.00000  Uiso   1.00
C640   C     0.81728   0.85923   0.22210   0.00000  Uiso   1.00
H641   H     0.86106   0.78663   0.30018   0.00000  Uiso   1.00
H642   H     0.80562   0.87998   0.19976   0.00000  Uiso   1.00
C643   C     0.79983   0.80733   0.27773   0.00000  Uiso   1.00
C644   C     0.86689   0.85919   0.22209   0.00000  Uiso   1.00
H645   H     0.77416   0.78653   0.30000   0.00000  Uiso   1.00
H646   H     0.89259   0.87992   0.19974   0.00000  Uiso   1.00
N647   N     0.78403   0.83334   0.24999   0.00000  Uiso   1.00
N648   N     0.88264   0.83332   0.25001   0.00000  Uiso   1.00
N649   N     0.91989   0.92783   0.03071   0.00000  Uiso   1.00
O650   O     0.93234   0.96423   0.01322   0.00000  Uiso   1.00
O651   O     0.93685   0.91471   0.06309   0.00000  Uiso   1.00
N652   N     0.72841   0.79537   0.44894   0.00000  Uiso   1.00
O653   O     0.68313   0.80336   0.45146   0.00000  Uiso   1.00
O654   O     0.75024   0.76471   0.42400   0.00000  Uiso   1.00
C655   C     0.81549   0.92189   0.07187   0.00000  Uiso   1.00
H656   H     0.77677   0.92782   0.07778   0.00000  Uiso   1.00
O657   O     0.83639   0.93836   0.09668   0.00000  Uiso   1.00
C658   C     0.80716   0.85055   0.39837   0.00000  Uiso   1.00
H659   H     0.83700   0.87088   0.38126   0.00000  Uiso   1.00
O660   O     0.77903   0.83952   0.37745   0.00000  Uiso   1.00
C661   C     0.96138   0.70756   0.18374   0.00000  Uiso   1.00
H662   H     0.96876   0.73995   0.17561   0.00000  Uiso   1.00
O663   O     0.93803   0.68827   0.16297   0.00000  Uiso   1.00
C664   C     0.70577   0.95919   0.31586   0.00000  Uiso   1.00
H665   H     0.69900   0.92671   0.32357   0.00000  Uiso   1.00
O666   O     0.72870   0.97861   0.33692   0.00000  Uiso   1.00
O667   O     0.03958   0.10655   0.75000   0.00000  Uiso   1.00
O668   O     0.29375   0.22678   0.75000   0.00000  Uiso   1.00
O669   O     0.29372   0.10654   0.75000   0.00000  Uiso   1.00
O670   O     0.03961   0.22679   0.75000   0.00000  Uiso   1.00
C671   C     0.00037   0.08747   0.74861   0.00000  Uiso   1.00
C672   C     0.33299   0.24588   0.75132   0.00000  Uiso   1.00
O673   O     0.01852   0.16668   0.81492   0.00000  Uiso   1.00
O674   O     0.31481   0.16666   0.68508   0.00000  Uiso   1.00
O675   O     0.27267   0.16667   0.81492   0.00000  Uiso   1.00
O676   O     0.06067   0.16667   0.68508   0.00000  Uiso   1.00
C677   C     0.30553   0.16828   0.83625   0.00000  Uiso   1.00
C678   C     0.02767   0.16587   0.66376   0.00000  Uiso   1.00
Cu679  Cu    0.04689   0.16667   0.75000   0.00000  Uiso   1.00
Cu680  Cu    0.28645   0.16666   0.75000   0.00000  Uiso   1.00
C681   C     0.28880   0.17870   0.88457   0.00000  Uiso   1.00
C682   C     0.04281   0.16379   0.61424   0.00000  Uiso   1.00
C683   C     0.29648   0.22060   0.94702   0.00000  Uiso   1.00
C684   C     0.02815   0.14080   0.54501   0.00000  Uiso   1.00
C685   C     0.31709   0.20356   0.90427   0.00000  Uiso   1.00
C686   C     0.01261   0.14491   0.59174   0.00000  Uiso   1.00
C687   C     0.24022   0.17052   0.90844   0.00000  Uiso   1.00
C688   C     0.08809   0.17962   0.58943   0.00000  Uiso   1.00
C689   C     0.21710   0.19137   0.94888   0.00000  Uiso   1.00
C690   C     0.10222   0.18030   0.54170   0.00000  Uiso   1.00
C691   C     0.24629   0.21518   0.96960   0.00000  Uiso   1.00
C692   C     0.07275   0.15837   0.51924   0.00000  Uiso   1.00
C693   C     0.16613   0.18704   0.97012   0.00000  Uiso   1.00
C694   C     0.14747   0.19819   0.51618   0.00000  Uiso   1.00
C695   C     0.17470   0.22701   0.53445   0.00000  Uiso   1.00
C696   C     0.13302   0.17232   0.94688   0.00000  Uiso   1.00
C697   C     0.22464   0.23412   0.51162   0.00000  Uiso   1.00
C698   C     0.08843   0.15424   0.97175   0.00000  Uiso   1.00
H699   H     0.11252   0.19032   0.60800   0.00000  Uiso   1.00
H700   H     0.22027   0.14853   0.89414   0.00000  Uiso   1.00
H701   H     0.31117   0.13160   0.61049   0.00000  Uiso   1.00
H702   H     0.02147   0.21046   0.88637   0.00000  Uiso   1.00
H703   H     0.31986   0.23891   0.96158   0.00000  Uiso   1.00
H704   H     0.00468   0.12358   0.52973   0.00000  Uiso   1.00
C705   C     0.31320   0.02040   0.71875   0.00000  Uiso   1.00
C706   C     0.02033   0.31298   0.78102   0.00000  Uiso   1.00
C707   C     0.31244   0.31079   0.72173   0.00000  Uiso   1.00
C708   C     0.02101   0.02258   0.77809   0.00000  Uiso   1.00
H709   H     0.29739   0.29277   0.69928   0.00000  Uiso   1.00
H710   H     0.03608   0.04060   0.80052   0.00000  Uiso   1.00
C711   C     0.33279   0.29052   0.75204   0.00000  Uiso   1.00
C712   C     0.00063   0.04284   0.74781   0.00000  Uiso   1.00
C713   C     0.18274   0.14071   0.77781   0.00000  Uiso   1.00
C714   C     0.15062   0.19256   0.72210   0.00000  Uiso   1.00
H715   H     0.19439   0.11997   0.80018   0.00000  Uiso   1.00
H716   H     0.13895   0.21332   0.69976   0.00000  Uiso   1.00
C717   C     0.13317   0.14066   0.77773   0.00000  Uiso   1.00
C718   C     0.20022   0.19253   0.72209   0.00000  Uiso   1.00
H719   H     0.10749   0.11986   0.80000   0.00000  Uiso   1.00
H720   H     0.22592   0.21325   0.69974   0.00000  Uiso   1.00
N721   N     0.11736   0.16668   0.74999   0.00000  Uiso   1.00
N722   N     0.21597   0.16666   0.75001   0.00000  Uiso   1.00
N723   N     0.25323   0.26116   0.53071   0.00000  Uiso   1.00
O724   O     0.26567   0.29756   0.51322   0.00000  Uiso   1.00
O725   O     0.27018   0.24805   0.56309   0.00000  Uiso   1.00
N726   N     0.06174   0.12870   0.94894   0.00000  Uiso   1.00
O727   O     0.01647   0.13669   0.95146   0.00000  Uiso   1.00
O728   O     0.08358   0.09805   0.92400   0.00000  Uiso   1.00
C729   C     0.14882   0.25522   0.57187   0.00000  Uiso   1.00
H730   H     0.11011   0.26116   0.57778   0.00000  Uiso   1.00
O731   O     0.16972   0.27169   0.59668   0.00000  Uiso   1.00
C732   C     0.14049   0.18389   0.89837   0.00000  Uiso   1.00
H733   H     0.17034   0.20421   0.88126   0.00000  Uiso   1.00
O734   O     0.11236   0.17286   0.87745   0.00000  Uiso   1.00
C735   C     0.29471   0.04090   0.68374   0.00000  Uiso   1.00
H736   H     0.30210   0.07328   0.67561   0.00000  Uiso   1.00
O737   O     0.27136   0.02160   0.66297   0.00000  Uiso   1.00
C738   C     0.03910   0.29252   0.81586   0.00000  Uiso   1.00
H739   H     0.03233   0.26004   0.82357   0.00000  Uiso   1.00
O740   O     0.06204   0.31194   0.83692   0.00000  Uiso   1.00
O741   O     0.37291   0.10655   0.75000   0.00000  Uiso   1.00
O742   O     0.62709   0.22678   0.75000   0.00000  Uiso   1.00
O743   O     0.62706   0.10654   0.75000   0.00000  Uiso   1.00
O744   O     0.37294   0.22679   0.75000   0.00000  Uiso   1.00
C745   C     0.33370   0.08747   0.74861   0.00000  Uiso   1.00
C746   C     0.66632   0.24588   0.75132   0.00000  Uiso   1.00
O747   O     0.35186   0.16668   0.81492   0.00000  Uiso   1.00
O748   O     0.64814   0.16666   0.68508   0.00000  Uiso   1.00
O749   O     0.60600   0.16667   0.81492   0.00000  Uiso   1.00
O750   O     0.39400   0.16667   0.68508   0.00000  Uiso   1.00
C751   C     0.63886   0.16828   0.83625   0.00000  Uiso   1.00
C752   C     0.36100   0.16587   0.66376   0.00000  Uiso   1.00
Cu753  Cu    0.38022   0.16667   0.75000   0.00000  Uiso   1.00
Cu754  Cu    0.61978   0.16666   0.75000   0.00000  Uiso   1.00
C755   C     0.62213   0.17870   0.88457   0.00000  Uiso   1.00
C756   C     0.37614   0.16379   0.61424   0.00000  Uiso   1.00
C757   C     0.62981   0.22060   0.94702   0.00000  Uiso   1.00
C758   C     0.36148   0.14080   0.54501   0.00000  Uiso   1.00
C759   C     0.65042   0.20356   0.90427   0.00000  Uiso   1.00
C760   C     0.34595   0.14491   0.59174   0.00000  Uiso   1.00
C761   C     0.57356   0.17052   0.90844   0.00000  Uiso   1.00
C762   C     0.42143   0.17962   0.58943   0.00000  Uiso   1.00
C763   C     0.55043   0.19137   0.94888   0.00000  Uiso   1.00
C764   C     0.43556   0.18030   0.54170   0.00000  Uiso   1.00
C765   C     0.57962   0.21518   0.96960   0.00000  Uiso   1.00
C766   C     0.40608   0.15837   0.51924   0.00000  Uiso   1.00
C767   C     0.49946   0.18704   0.97012   0.00000  Uiso   1.00
C768   C     0.48081   0.19819   0.51618   0.00000  Uiso   1.00
C769   C     0.50803   0.22701   0.53445   0.00000  Uiso   1.00
C770   C     0.46636   0.17232   0.94688   0.00000  Uiso   1.00
C771   C     0.55798   0.23412   0.51162   0.00000  Uiso   1.00
C772   C     0.42177   0.15424   0.97175   0.00000  Uiso   1.00
H773   H     0.44585   0.19032   0.60800   0.00000  Uiso   1.00
H774   H     0.55360   0.14853   0.89414   0.00000  Uiso   1.00
H775   H     0.64450   0.13160   0.61049   0.00000  Uiso   1.00
H776   H     0.35480   0.21046   0.88637   0.00000  Uiso   1.00
H777   H     0.65319   0.23891   0.96158   0.00000  Uiso   1.00
H778   H     0.33801   0.12358   0.52973   0.00000  Uiso   1.00
C779   C     0.64653   0.02040   0.71875   0.00000  Uiso   1.00
C780   C     0.35366   0.31298   0.78102   0.00000  Uiso   1.00
C781   C     0.64578   0.31079   0.72173   0.00000  Uiso   1.00
C782   C     0.35434   0.02258   0.77809   0.00000  Uiso   1.00
H783   H     0.63072   0.29277   0.69928   0.00000  Uiso   1.00
H784   H     0.36941   0.04060   0.80052   0.00000  Uiso   1.00
C785   C     0.66613   0.29052   0.75204   0.00000  Uiso   1.00
C786   C     0.33396   0.04284   0.74781   0.00000  Uiso   1.00
C787   C     0.51607   0.14071   0.77781   0.00000  Uiso   1.00
C788   C     0.48395   0.19256   0.72210   0.00000  Uiso   1.00
H789   H     0.52773   0.11997   0.80018   0.00000  Uiso   1.00
H790   H     0.47228   0.21332   0.69976   0.00000  Uiso   1.00
C791   C     0.46650   0.14066   0.77773   0.00000  Uiso   1.00
C792   C     0.53356   0.19253   0.72209   0.00000  Uiso   1.00
H793   H     0.44082   0.11986   0.80000   0.00000  Uiso   1.00
H794   H     0.55926   0.21325   0.69974   0.00000  Uiso   1.00
N795   N     0.45069   0.16668   0.74999   0.00000  Uiso   1.00
N796   N     0.54931   0.16666   0.75001   0.00000  Uiso   1.00
N797   N     0.58656   0.26116   0.53071   0.00000  Uiso   1.00
O798   O     0.59901   0.29756   0.51322   0.00000  Uiso   1.00
O799   O     0.60352   0.24805   0.56309   0.00000  Uiso   1.00
N800   N     0.39507   0.12870   0.94894   0.00000  Uiso   1.00
O801   O     0.34980   0.13669   0.95146   0.00000  Uiso   1.00
O802   O     0.41691   0.09805   0.92400   0.00000  Uiso   1.00
C803   C     0.48216   0.25522   0.57187   0.00000  Uiso   1.00
H804   H     0.44344   0.26116   0.57778   0.00000  Uiso   1.00
O805   O     0.50305   0.27169   0.59668   0.00000  Uiso   1.00
C806   C     0.47383   0.18389   0.89837   0.00000  Uiso   1.00
H807   H     0.50367   0.20421   0.88126   0.00000  Uiso   1.00
O808   O     0.44570   0.17286   0.87745   0.00000  Uiso   1.00
C809   C     0.62805   0.04090   0.68374   0.00000  Uiso   1.00
H810   H     0.63543   0.07328   0.67561   0.00000  Uiso   1.00
O811   O     0.60470   0.02160   0.66297   0.00000  Uiso   1.00
C812   C     0.37243   0.29252   0.81586   0.00000  Uiso   1.00
H813   H     0.36567   0.26004   0.82357   0.00000  Uiso   1.00
O814   O     0.39537   0.31194   0.83692   0.00000  Uiso   1.00
O815   O     0.70625   0.10655   0.75000   0.00000  Uiso   1.00
O816   O     0.96042   0.22678   0.75000   0.00000  Uiso   1.00
O817   O     0.96039   0.10654   0.75000   0.00000  Uiso   1.00
O818   O     0.70628   0.22679   0.75000   0.00000  Uiso   1.00
C819   C     0.66704   0.08747   0.74861   0.00000  Uiso   1.00
C820   C     0.99966   0.24588   0.75132   0.00000  Uiso   1.00
O821   O     0.68519   0.16668   0.81492   0.00000  Uiso   1.00
O822   O     0.98148   0.16666   0.68508   0.00000  Uiso   1.00
O823   O     0.93933   0.16667   0.81492   0.00000  Uiso   1.00
O824   O     0.72733   0.16667   0.68508   0.00000  Uiso   1.00
C825   C     0.97220   0.16828   0.83625   0.00000  Uiso   1.00
C826   C     0.69434   0.16587   0.66376   0.00000  Uiso   1.00
Cu827  Cu    0.71355   0.16667   0.75000   0.00000  Uiso   1.00
Cu828  Cu    0.95311   0.16666   0.75000   0.00000  Uiso   1.00
C829   C     0.95547   0.17870   0.88457   0.00000  Uiso   1.00
C830   C     0.70947   0.16379   0.61424   0.00000  Uiso   1.00
C831   C     0.96315   0.22060   0.94702   0.00000  Uiso   1.00
C832   C     0.69481   0.14080   0.54501   0.00000  Uiso   1.00
C833   C     0.98376   0.20356   0.90427   0.00000  Uiso   1.00
C834   C     0.67928   0.14491   0.59174   0.00000  Uiso   1.00
C835   C     0.90689   0.17052   0.90844   0.00000  Uiso   1.00
C836   C     0.75476   0.17962   0.58943   0.00000  Uiso   1.00
C837   C     0.88377   0.19137   0.94888   0.00000  Uiso   1.00
C838   C     0.76889   0.18030   0.54170   0.00000  Uiso   1.00
C839   C     0.91296   0.21518   0.96960   0.00000  Uiso   1.00
C840   C     0.73941   0.15837   0.51924   0.00000  Uiso   1.00
C841   C     0.83279   0.18704   0.97012   0.00000  Uiso   1.00
C842   C     0.81414   0.19819   0.51618   0.00000  Uiso   1.00
C843   C     0.84136   0.22701   0.53445   0.00000  Uiso   1.00
C844   C     0.79969   0.17232   0.94688   0.00000  Uiso   1.00
C845   C     0.89131   0.23412   0.51162   0.00000  Uiso   1.00
C846   C     0.75510   0.15424   0.97175   0.00000  Uiso   1.00
H847   H     0.77919   0.19032   0.60800   0.00000  Uiso   1.00
H848   H     0.88694   0.14853   0.89414   0.00000  Uiso   1.00
H849   H     0.97783   0.13160   0.61049   0.00000  Uiso   1.00
H850   H     0.68813   0.21046   0.88637   0.00000  Uiso   1.00
H851   H     0.98652   0.23891   0.96158   0.00000  Uiso   1.00
H852   H     0.67134   0.12358   0.52973   0.00000  Uiso   1.00
C853   C     0.97987   0.02040   0.71875   0.00000  Uiso   1.00
C854   C     0.68700   0.31298   0.78102   0.00000  Uiso   1.00
C855   C     0.97911   0.31079   0.72173   0.00000  Uiso   1.00
C856   C     0.68767   0.02258   0.77809   0.00000  Uiso   1.00
H857   H     0.96405   0.29277   0.69928   0.00000  Uiso   1.00
H858   H     0.70275   0.04060   0.80052   0.00000  Uiso   1.00
C859   C     0.99946   0.29052   0.75204   0.00000  Uiso   1.00
C860   C     0.66730   0.04284   0.74781   0.00000  Uiso   1.00
C861   C     0.84941   0.14071   0.77781   0.00000  Uiso   1.00
C862   C     0.81728   0.19256   0.72210   0.00000  Uiso   1.00
H863   H     0.86106   0.11997   0.80018   0.00000  Uiso   1.00
H864   H     0.80562   0.21332   0.69976   0.00000  Uiso   1.00
C865   C     0.79983   0.14066   0.77773   0.00000  Uiso   1.00
C866   C     0.86689   0.19253   0.72209   0.00000  Uiso   1.00
H867   H     0.77416   0.11986   0.80000   0.00000  Uiso   1.00
H868   H     0.89259   0.21325   0.69974   0.00000  Uiso   1.00
N869   N     0.78403   0.16668   0.74999   0.00000  Uiso   1.00
N870   N     0.88264   0.16666   0.75001   0.00000  Uiso   1.00
N871   N     0.91989   0.26116   0.53071   0.00000  Uiso   1.00
O872   O     0.93234   0.29756   0.51322   0.00000  Uiso   1.00
O873   O     0.93685   0.24805   0.56309   0.00000  Uiso   1.00
N874   N     0.72841   0.12870   0.94894   0.00000  Uiso   1.00
O875   O     0.68313   0.13669   0.95146   0.00000  Uiso   1.00
O876   O     0.75024   0.09805   0.92400   0.00000  Uiso   1.00
C877   C     0.81549   0.25522   0.57187   0.00000  Uiso   1.00
H878   H     0.77677   0.26116   0.57778   0.00000  Uiso   1.00
O879   O     0.83639   0.27169   0.59668   0.00000  Uiso   1.00
C880   C     0.80716   0.18389   0.89837   0.00000  Uiso   1.00
H881   H     0.83700   0.20421   0.88126   0.00000  Uiso   1.00
O882   O     0.77903   0.17286   0.87745   0.00000  Uiso   1.00
C883   C     0.96138   0.04090   0.68374   0.00000  Uiso   1.00
H884   H     0.96876   0.07328   0.67561   0.00000  Uiso   1.00
O885   O     0.93803   0.02160   0.66297   0.00000  Uiso   1.00
C886   C     0.70577   0.29252   0.81586   0.00000  Uiso   1.00
H887   H     0.69900   0.26004   0.82357   0.00000  Uiso   1.00
O888   O     0.72870   0.31194   0.83692   0.00000  Uiso   1.00
O889   O     0.03958   0.43989   0.75000   0.00000  Uiso   1.00
O890   O     0.29375   0.56011   0.75000   0.00000  Uiso   1.00
O891   O     0.29372   0.43988   0.75000   0.00000  Uiso   1.00
O892   O     0.03961   0.56012   0.75000   0.00000  Uiso   1.00
C893   C     0.00037   0.42080   0.74861   0.00000  Uiso   1.00
C894   C     0.33299   0.57921   0.75132   0.00000  Uiso   1.00
O895   O     0.01852   0.50001   0.81492   0.00000  Uiso   1.00
O896   O     0.31481   0.49999   0.68508   0.00000  Uiso   1.00
O897   O     0.27267   0.50000   0.81492   0.00000  Uiso   1.00
O898   O     0.06067   0.50000   0.68508   0.00000  Uiso   1.00
C899   C     0.30553   0.50161   0.83625   0.00000  Uiso   1.00
C900   C     0.02767   0.49921   0.66376   0.00000  Uiso   1.00
Cu901  Cu    0.04689   0.50001   0.75000   0.00000  Uiso   1.00
Cu902  Cu    0.28645   0.49999   0.75000   0.00000  Uiso   1.00
C903   C     0.28880   0.51203   0.88457   0.00000  Uiso   1.00
C904   C     0.04281   0.49713   0.61424   0.00000  Uiso   1.00
C905   C     0.29648   0.55393   0.94702   0.00000  Uiso   1.00
C906   C     0.02815   0.47413   0.54501   0.00000  Uiso   1.00
C907   C     0.31709   0.53690   0.90427   0.00000  Uiso   1.00
C908   C     0.01261   0.47824   0.59174   0.00000  Uiso   1.00
C909   C     0.24022   0.50385   0.90844   0.00000  Uiso   1.00
C910   C     0.08809   0.51296   0.58943   0.00000  Uiso   1.00
C911   C     0.21710   0.52471   0.94888   0.00000  Uiso   1.00
C912   C     0.10222   0.51363   0.54170   0.00000  Uiso   1.00
C913   C     0.24629   0.54852   0.96960   0.00000  Uiso   1.00
C914   C     0.07275   0.49170   0.51924   0.00000  Uiso   1.00
C915   C     0.16613   0.52037   0.97012   0.00000  Uiso   1.00
C916   C     0.14747   0.53152   0.51618   0.00000  Uiso   1.00
C917   C     0.17470   0.56034   0.53445   0.00000  Uiso   1.00
C918   C     0.13302   0.50565   0.94688   0.00000  Uiso   1.00
C919   C     0.22464   0.56746   0.51162   0.00000  Uiso   1.00
C920   C     0.08843   0.48757   0.97175   0.00000  Uiso   1.00
H921   H     0.11252   0.52365   0.60800   0.00000  Uiso   1.00
H922   H     0.22027   0.48187   0.89414   0.00000  Uiso   1.00
H923   H     0.31117   0.46494   0.61049   0.00000  Uiso   1.00
H924   H     0.02147   0.54379   0.88637   0.00000  Uiso   1.00
H925   H     0.31986   0.57224   0.96158   0.00000  Uiso   1.00
H926   H     0.00468   0.45691   0.52973   0.00000  Uiso   1.00
C927   C     0.31320   0.35373   0.71875   0.00000  Uiso   1.00
C928   C     0.02033   0.64632   0.78102   0.00000  Uiso   1.00
C929   C     0.31244   0.64412   0.72173   0.00000  Uiso   1.00
C930   C     0.02101   0.35591   0.77809   0.00000  Uiso   1.00
H931   H     0.29739   0.62611   0.69928   0.00000  Uiso   1.00
H932   H     0.03608   0.37394   0.80052   0.00000  Uiso   1.00
C933   C     0.33279   0.62386   0.75204   0.00000  Uiso   1.00
C934   C     0.00063   0.37617   0.74781   0.00000  Uiso   1.00
C935   C     0.18274   0.47404   0.77781   0.00000  Uiso   1.00
C936   C     0.15062   0.52589   0.72210   0.00000  Uiso   1.00
H937   H     0.19439   0.45330   0.80018   0.00000  Uiso   1.00
H938   H     0.13895   0.54665   0.69976   0.00000  Uiso   1.00
C939   C     0.13317   0.47399   0.77773   0.00000  Uiso   1.00
C940   C     0.20022   0.52586   0.72209   0.00000  Uiso   1.00
H941   H     0.10749   0.45320   0.80000   0.00000  Uiso   1.00
H942   H     0.22592   0.54659   0.69974   0.00000  Uiso   1.00
N943   N     0.11736   0.50001   0.74999   0.00000  Uiso   1.00
N944   N     0.21597   0.49999   0.75001   0.00000  Uiso   1.00
N945   N     0.25323   0.59450   0.53071   0.00000  Uiso   1.00
O946   O     0.26567   0.63090   0.51322   0.00000  Uiso   1.00
O947   O     0.27018   0.58138   0.56309   0.00000  Uiso   1.00
N948   N     0.06174   0.46203   0.94894   0.00000  Uiso   1.00
O949   O     0.01647   0.47002   0.95146   0.00000  Uiso   1.00
O950   O     0.08358   0.43138   0.92400   0.00000  Uiso   1.00
C951   C     0.14882   0.58855   0.57187   0.00000  Uiso   1.00
H952   H     0.11011   0.59449   0.57778   0.00000  Uiso   1.00
O953   O     0.16972   0.60502   0.59668   0.00000  Uiso   1.00
C954   C     0.14049   0.51722   0.89837   0.00000  Uiso   1.00
H955   H     0.17034   0.53755   0.88126   0.00000  Uiso   1.00
O956   O     0.11236   0.50619   0.87745   0.00000  Uiso   1.00
C957   C     0.29471   0.37423   0.68374   0.00000  Uiso   1.00
H958   H     0.30210   0.40661   0.67561   0.00000  Uiso   1.00
O959   O     0.27136   0.35494   0.66297   0.00000  Uiso   1.00
C960   C     0.03910   0.62585   0.81586   0.00000  Uiso   1.00
H961   H     0.03233   0.59338   0.82357   0.00000  Uiso   1.00
O962   O     0.06204   0.64527   0.83692   0.00000  Uiso   1.00
O963   O     0.37291   0.43989   0.75000   0.00000  Uiso   1.00
O964   O     0.62709   0.56011   0.75000   0.00000  Uiso   1.00
O965   O     0.62706   0.43988   0.75000   0.00000  Uiso   1.00
O966   O     0.37294   0.56012   0.75000   0.00000  Uiso   1.00
C967   C     0.33370   0.42080   0.74861   0.00000  Uiso   1.00
C968   C     0.66632   0.57921   0.75132   0.00000  Uiso   1.00
O969   O     0.35186   0.50001   0.81492   0.00000  Uiso   1.00
O970   O     0.64814   0.49999   0.68508   0.00000  Uiso   1.00
O971   O     0.60600   0.50000   0.81492   0.00000  Uiso   1.00
O972   O     0.39400   0.50000   0.68508   0.00000  Uiso   1.00
C973   C     0.63886   0.50161   0.83625   0.00000  Uiso   1.00
C974   C     0.36100   0.49921   0.66376   0.00000  Uiso   1.00
Cu975  Cu    0.38022   0.50001   0.75000   0.00000  Uiso   1.00
Cu976  Cu    0.61978   0.49999   0.75000   0.00000  Uiso   1.00
C977   C     0.62213   0.51203   0.88457   0.00000  Uiso   1.00
C978   C     0.37614   0.49713   0.61424   0.00000  Uiso   1.00
C979   C     0.62981   0.55393   0.94702   0.00000  Uiso   1.00
C980   C     0.36148   0.47413   0.54501   0.00000  Uiso   1.00
C981   C     0.65042   0.53690   0.90427   0.00000  Uiso   1.00
C982   C     0.34595   0.47824   0.59174   0.00000  Uiso   1.00
C983   C     0.57356   0.50385   0.90844   0.00000  Uiso   1.00
C984   C     0.42143   0.51296   0.58943   0.00000  Uiso   1.00
C985   C     0.55043   0.52471   0.94888   0.00000  Uiso   1.00
C986   C     0.43556   0.51363   0.54170   0.00000  Uiso   1.00
C987   C     0.57962   0.54852   0.96960   0.00000  Uiso   1.00
C988   C     0.40608   0.49170   0.51924   0.00000  Uiso   1.00
C989   C     0.49946   0.52037   0.97012   0.00000  Uiso   1.00
C990   C     0.48081   0.53152   0.51618   0.00000  Uiso   1.00
C991   C     0.50803   0.56034   0.53445   0.00000  Uiso   1.00
C992   C     0.46636   0.50565   0.94688   0.00000  Uiso   1.00
C993   C     0.55798   0.56746   0.51162   0.00000  Uiso   1.00
C994   C     0.42177   0.48757   0.97175   0.00000  Uiso   1.00
H995   H     0.44585   0.52365   0.60800   0.00000  Uiso   1.00
H996   H     0.55360   0.48187   0.89414   0.00000  Uiso   1.00
H997   H     0.64450   0.46494   0.61049   0.00000  Uiso   1.00
H998   H     0.35480   0.54379   0.88637   0.00000  Uiso   1.00
H999   H     0.65319   0.57224   0.96158   0.00000  Uiso   1.00
H1000  H     0.33801   0.45691   0.52973   0.00000  Uiso   1.00
C1001  C     0.64653   0.35373   0.71875   0.00000  Uiso   1.00
C1002  C     0.35366   0.64632   0.78102   0.00000  Uiso   1.00
C1003  C     0.64578   0.64412   0.72173   0.00000  Uiso   1.00
C1004  C     0.35434   0.35591   0.77809   0.00000  Uiso   1.00
H1005  H     0.63072   0.62611   0.69928   0.00000  Uiso   1.00
H1006  H     0.36941   0.37394   0.80052   0.00000  Uiso   1.00
C1007  C     0.66613   0.62386   0.75204   0.00000  Uiso   1.00
C1008  C     0.33396   0.37617   0.74781   0.00000  Uiso   1.00
C1009  C     0.51607   0.47404   0.77781   0.00000  Uiso   1.00
C1010  C     0.48395   0.52589   0.72210   0.00000  Uiso   1.00
H1011  H     0.52773   0.45330   0.80018   0.00000  Uiso   1.00
H1012  H     0.47228   0.54665   0.69976   0.00000  Uiso   1.00
C1013  C     0.46650   0.47399   0.77773   0.00000  Uiso   1.00
C1014  C     0.53356   0.52586   0.72209   0.00000  Uiso   1.00
H1015  H     0.44082   0.45320   0.80000   0.00000  Uiso   1.00
H1016  H     0.55926   0.54659   0.69974   0.00000  Uiso   1.00
N1017  N     0.45069   0.50001   0.74999   0.00000  Uiso   1.00
N1018  N     0.54931   0.49999   0.75001   0.00000  Uiso   1.00
N1019  N     0.58656   0.59450   0.53071   0.00000  Uiso   1.00
O1020  O     0.59901   0.63090   0.51322   0.00000  Uiso   1.00
O1021  O     0.60352   0.58138   0.56309   0.00000  Uiso   1.00
N1022  N     0.39507   0.46203   0.94894   0.00000  Uiso   1.00
O1023  O     0.34980   0.47002   0.95146   0.00000  Uiso   1.00
O1024  O     0.41691   0.43138   0.92400   0.00000  Uiso   1.00
C1025  C     0.48216   0.58855   0.57187   0.00000  Uiso   1.00
H1026  H     0.44344   0.59449   0.57778   0.00000  Uiso   1.00
O1027  O     0.50305   0.60502   0.59668   0.00000  Uiso   1.00
C1028  C     0.47383   0.51722   0.89837   0.00000  Uiso   1.00
H1029  H     0.50367   0.53755   0.88126   0.00000  Uiso   1.00
O1030  O     0.44570   0.50619   0.87745   0.00000  Uiso   1.00
C1031  C     0.62805   0.37423   0.68374   0.00000  Uiso   1.00
H1032  H     0.63543   0.40661   0.67561   0.00000  Uiso   1.00
O1033  O     0.60470   0.35494   0.66297   0.00000  Uiso   1.00
C1034  C     0.37243   0.62585   0.81586   0.00000  Uiso   1.00
H1035  H     0.36567   0.59338   0.82357   0.00000  Uiso   1.00
O1036  O     0.39537   0.64527   0.83692   0.00000  Uiso   1.00
O1037  O     0.70625   0.43989   0.75000   0.00000  Uiso   1.00
O1038  O     0.96042   0.56011   0.75000   0.00000  Uiso   1.00
O1039  O     0.96039   0.43988   0.75000   0.00000  Uiso   1.00
O1040  O     0.70628   0.56012   0.75000   0.00000  Uiso   1.00
C1041  C     0.66704   0.42080   0.74861   0.00000  Uiso   1.00
C1042  C     0.99966   0.57921   0.75132   0.00000  Uiso   1.00
O1043  O     0.68519   0.50001   0.81492   0.00000  Uiso   1.00
O1044  O     0.98148   0.49999   0.68508   0.00000  Uiso   1.00
O1045  O     0.93933   0.50000   0.81492   0.00000  Uiso   1.00
O1046  O     0.72733   0.50000   0.68508   0.00000  Uiso   1.00
C1047  C     0.97220   0.50161   0.83625   0.00000  Uiso   1.00
C1048  C     0.69434   0.49921   0.66376   0.00000  Uiso   1.00
Cu1049 Cu    0.71355   0.50001   0.75000   0.00000  Uiso   1.00
Cu1050 Cu    0.95311   0.49999   0.75000   0.00000  Uiso   1.00
C1051  C     0.95547   0.51203   0.88457   0.00000  Uiso   1.00
C1052  C     0.70947   0.49713   0.61424   0.00000  Uiso   1.00
C1053  C     0.96315   0.55393   0.94702   0.00000  Uiso   1.00
C1054  C     0.69481   0.47413   0.54501   0.00000  Uiso   1.00
C1055  C     0.98376   0.53690   0.90427   0.00000  Uiso   1.00
C1056  C     0.67928   0.47824   0.59174   0.00000  Uiso   1.00
C1057  C     0.90689   0.50385   0.90844   0.00000  Uiso   1.00
C1058  C     0.75476   0.51296   0.58943   0.00000  Uiso   1.00
C1059  C     0.88377   0.52471   0.94888   0.00000  Uiso   1.00
C1060  C     0.76889   0.51363   0.54170   0.00000  Uiso   1.00
C1061  C     0.91296   0.54852   0.96960   0.00000  Uiso   1.00
C1062  C     0.73941   0.49170   0.51924   0.00000  Uiso   1.00
C1063  C     0.83279   0.52037   0.97012   0.00000  Uiso   1.00
C1064  C     0.81414   0.53152   0.51618   0.00000  Uiso   1.00
C1065  C     0.84136   0.56034   0.53445   0.00000  Uiso   1.00
C1066  C     0.79969   0.50565   0.94688   0.00000  Uiso   1.00
C1067  C     0.89131   0.56746   0.51162   0.00000  Uiso   1.00
C1068  C     0.75510   0.48757   0.97175   0.00000  Uiso   1.00
H1069  H     0.77919   0.52365   0.60800   0.00000  Uiso   1.00
H1070  H     0.88694   0.48187   0.89414   0.00000  Uiso   1.00
H1071  H     0.97783   0.46494   0.61049   0.00000  Uiso   1.00
H1072  H     0.68813   0.54379   0.88637   0.00000  Uiso   1.00
H1073  H     0.98652   0.57224   0.96158   0.00000  Uiso   1.00
H1074  H     0.67134   0.45691   0.52973   0.00000  Uiso   1.00
C1075  C     0.97987   0.35373   0.71875   0.00000  Uiso   1.00
C1076  C     0.68700   0.64632   0.78102   0.00000  Uiso   1.00
C1077  C     0.97911   0.64412   0.72173   0.00000  Uiso   1.00
C1078  C     0.68767   0.35591   0.77809   0.00000  Uiso   1.00
H1079  H     0.96405   0.62611   0.69928   0.00000  Uiso   1.00
H1080  H     0.70275   0.37394   0.80052   0.00000  Uiso   1.00
C1081  C     0.99946   0.62386   0.75204   0.00000  Uiso   1.00
C1082  C     0.66730   0.37617   0.74781   0.00000  Uiso   1.00
C1083  C     0.84941   0.47404   0.77781   0.00000  Uiso   1.00
C1084  C     0.81728   0.52589   0.72210   0.00000  Uiso   1.00
H1085  H     0.86106   0.45330   0.80018   0.00000  Uiso   1.00
H1086  H     0.80562   0.54665   0.69976   0.00000  Uiso   1.00
C1087  C     0.79983   0.47399   0.77773   0.00000  Uiso   1.00
C1088  C     0.86689   0.52586   0.72209   0.00000  Uiso   1.00
H1089  H     0.77416   0.45320   0.80000   0.00000  Uiso   1.00
H1090  H     0.89259   0.54659   0.69974   0.00000  Uiso   1.00
N1091  N     0.78403   0.50001   0.74999   0.00000  Uiso   1.00
N1092  N     0.88264   0.49999   0.75001   0.00000  Uiso   1.00
N1093  N     0.91989   0.59450   0.53071   0.00000  Uiso   1.00
O1094  O     0.93234   0.63090   0.51322   0.00000  Uiso   1.00
O1095  O     0.93685   0.58138   0.56309   0.00000  Uiso   1.00
N1096  N     0.72841   0.46203   0.94894   0.00000  Uiso   1.00
O1097  O     0.68313   0.47002   0.95146   0.00000  Uiso   1.00
O1098  O     0.75024   0.43138   0.92400   0.00000  Uiso   1.00
C1099  C     0.81549   0.58855   0.57187   0.00000  Uiso   1.00
H1100  H     0.77677   0.59449   0.57778   0.00000  Uiso   1.00
O1101  O     0.83639   0.60502   0.59668   0.00000  Uiso   1.00
C1102  C     0.80716   0.51722   0.89837   0.00000  Uiso   1.00
H1103  H     0.83700   0.53755   0.88126   0.00000  Uiso   1.00
O1104  O     0.77903   0.50619   0.87745   0.00000  Uiso   1.00
C1105  C     0.96138   0.37423   0.68374   0.00000  Uiso   1.00
H1106  H     0.96876   0.40661   0.67561   0.00000  Uiso   1.00
O1107  O     0.93803   0.35494   0.66297   0.00000  Uiso   1.00
C1108  C     0.70577   0.62585   0.81586   0.00000  Uiso   1.00
H1109  H     0.69900   0.59338   0.82357   0.00000  Uiso   1.00
O1110  O     0.72870   0.64527   0.83692   0.00000  Uiso   1.00
O1111  O     0.03958   0.77322   0.75000   0.00000  Uiso   1.00
O1112  O     0.29375   0.89345   0.75000   0.00000  Uiso   1.00
O1113  O     0.29372   0.77321   0.75000   0.00000  Uiso   1.00
O1114  O     0.03961   0.89346   0.75000   0.00000  Uiso   1.00
C1115  C     0.00037   0.75413   0.74861   0.00000  Uiso   1.00
C1116  C     0.33299   0.91254   0.75132   0.00000  Uiso   1.00
O1117  O     0.01852   0.83334   0.81492   0.00000  Uiso   1.00
O1118  O     0.31481   0.83332   0.68508   0.00000  Uiso   1.00
O1119  O     0.27267   0.83333   0.81492   0.00000  Uiso   1.00
O1120  O     0.06067   0.83333   0.68508   0.00000  Uiso   1.00
C1121  C     0.30553   0.83495   0.83625   0.00000  Uiso   1.00
C1122  C     0.02767   0.83254   0.66376   0.00000  Uiso   1.00
Cu1123 Cu    0.04689   0.83334   0.75000   0.00000  Uiso   1.00
Cu1124 Cu    0.28645   0.83333   0.75000   0.00000  Uiso   1.00
C1125  C     0.28880   0.84536   0.88457   0.00000  Uiso   1.00
C1126  C     0.04281   0.83046   0.61424   0.00000  Uiso   1.00
C1127  C     0.29648   0.88726   0.94702   0.00000  Uiso   1.00
C1128  C     0.02815   0.80747   0.54501   0.00000  Uiso   1.00
C1129  C     0.31709   0.87023   0.90427   0.00000  Uiso   1.00
C1130  C     0.01261   0.81157   0.59174   0.00000  Uiso   1.00
C1131  C     0.24022   0.83719   0.90844   0.00000  Uiso   1.00
C1132  C     0.08809   0.84629   0.58943   0.00000  Uiso   1.00
C1133  C     0.21710   0.85804   0.94888   0.00000  Uiso   1.00
C1134  C     0.10222   0.84697   0.54170   0.00000  Uiso   1.00
C1135  C     0.24629   0.88185   0.96960   0.00000  Uiso   1.00
C1136  C     0.07275   0.82504   0.51924   0.00000  Uiso   1.00
C1137  C     0.16613   0.85371   0.97012   0.00000  Uiso   1.00
C1138  C     0.14747   0.86485   0.51618   0.00000  Uiso   1.00
C1139  C     0.17470   0.89367   0.53445   0.00000  Uiso   1.00
C1140  C     0.13302   0.83898   0.94688   0.00000  Uiso   1.00
C1141  C     0.22464   0.90079   0.51162   0.00000  Uiso   1.00
C1142  C     0.08843   0.82091   0.97175   0.00000  Uiso   1.00
H1143  H     0.11252   0.85699   0.60800   0.00000  Uiso   1.00
H1144  H     0.22027   0.81520   0.89414   0.00000  Uiso   1.00
H1145  H     0.31117   0.79827   0.61049   0.00000  Uiso   1.00
H1146  H     0.02147   0.87713   0.88637   0.00000  Uiso   1.00
H1147  H     0.31986   0.90557   0.96158   0.00000  Uiso   1.00
H1148  H     0.00468   0.79025   0.52973   0.00000  Uiso   1.00
C1149  C     0.31320   0.68706   0.71875   0.00000  Uiso   1.00
C1150  C     0.02033   0.97965   0.78102   0.00000  Uiso   1.00
C1151  C     0.31244   0.97746   0.72173   0.00000  Uiso   1.00
C1152  C     0.02101   0.68925   0.77809   0.00000  Uiso   1.00
H1153  H     0.29739   0.95944   0.69928   0.00000  Uiso   1.00
H1154  H     0.03608   0.70727   0.80052   0.00000  Uiso   1.00
C1155  C     0.33279   0.95719   0.75204   0.00000  Uiso   1.00
C1156  C     0.00063   0.70950   0.74781   0.00000  Uiso   1.00
C1157  C     0.18274   0.80737   0.77781   0.00000  Uiso   1.00
C1158  C     0.15062   0.85923   0.72210   0.00000  Uiso   1.00
H1159  H     0.19439   0.78663   0.80018   0.00000  Uiso   1.00
H1160  H     0.13895   0.87998   0.69976   0.00000  Uiso   1.00
C1161  C     0.13317   0.80733   0.77773   0.00000  Uiso   1.00
C1162  C     0.20022   0.85919   0.72209   0.00000  Uiso   1.00
H1163  H     0.10749   0.78653   0.80000   0.00000  Uiso   1.00
H1164  H     0.22592   0.87992   0.69974   0.00000  Uiso   1.00
N1165  N     0.11736   0.83334   0.74999   0.00000  Uiso   1.00
N1166  N     0.21597   0.83332   0.75001   0.00000  Uiso   1.00
N1167  N     0.25323   0.92783   0.53071   0.00000  Uiso   1.00
O1168  O     0.26567   0.96423   0.51322   0.00000  Uiso   1.00
O1169  O     0.27018   0.91471   0.56309   0.00000  Uiso   1.00
N1170  N     0.06174   0.79537   0.94894   0.00000  Uiso   1.00
O1171  O     0.01647   0.80336   0.95146   0.00000  Uiso   1.00
O1172  O     0.08358   0.76471   0.92400   0.00000  Uiso   1.00
C1173  C     0.14882   0.92189   0.57187   0.00000  Uiso   1.00
H1174  H     0.11011   0.92782   0.57778   0.00000  Uiso   1.00
O1175  O     0.16972   0.93836   0.59668   0.00000  Uiso   1.00
C1176  C     0.14049   0.85055   0.89837   0.00000  Uiso   1.00
H1177  H     0.17034   0.87088   0.88126   0.00000  Uiso   1.00
O1178  O     0.11236   0.83952   0.87745   0.00000  Uiso   1.00
C1179  C     0.29471   0.70756   0.68374   0.00000  Uiso   1.00
H1180  H     0.30210   0.73995   0.67561   0.00000  Uiso   1.00
O1181  O     0.27136   0.68827   0.66297   0.00000  Uiso   1.00
C1182  C     0.03910   0.95919   0.81586   0.00000  Uiso   1.00
H1183  H     0.03233   0.92671   0.82357   0.00000  Uiso   1.00
O1184  O     0.06204   0.97861   0.83692   0.00000  Uiso   1.00
O1185  O     0.37291   0.77322   0.75000   0.00000  Uiso   1.00
O1186  O     0.62709   0.89345   0.75000   0.00000  Uiso   1.00
O1187  O     0.62706   0.77321   0.75000   0.00000  Uiso   1.00
O1188  O     0.37294   0.89346   0.75000   0.00000  Uiso   1.00
C1189  C     0.33370   0.75413   0.74861   0.00000  Uiso   1.00
C1190  C     0.66632   0.91254   0.75132   0.00000  Uiso   1.00
O1191  O     0.35186   0.83334   0.81492   0.00000  Uiso   1.00
O1192  O     0.64814   0.83332   0.68508   0.00000  Uiso   1.00
O1193  O     0.60600   0.83333   0.81492   0.00000  Uiso   1.00
O1194  O     0.39400   0.83333   0.68508   0.00000  Uiso   1.00
C1195  C     0.63886   0.83495   0.83625   0.00000  Uiso   1.00
C1196  C     0.36100   0.83254   0.66376   0.00000  Uiso   1.00
Cu1197 Cu    0.38022   0.83334   0.75000   0.00000  Uiso   1.00
Cu1198 Cu    0.61978   0.83333   0.75000   0.00000  Uiso   1.00
C1199  C     0.62213   0.84536   0.88457   0.00000  Uiso   1.00
C1200  C     0.37614   0.83046   0.61424   0.00000  Uiso   1.00
C1201  C     0.62981   0.88726   0.94702   0.00000  Uiso   1.00
C1202  C     0.36148   0.80747   0.54501   0.00000  Uiso   1.00
C1203  C     0.65042   0.87023   0.90427   0.00000  Uiso   1.00
C1204  C     0.34595   0.81157   0.59174   0.00000  Uiso   1.00
C1205  C     0.57356   0.83719   0.90844   0.00000  Uiso   1.00
C1206  C     0.42143   0.84629   0.58943   0.00000  Uiso   1.00
C1207  C     0.55043   0.85804   0.94888   0.00000  Uiso   1.00
C1208  C     0.43556   0.84697   0.54170   0.00000  Uiso   1.00
C1209  C     0.57962   0.88185   0.96960   0.00000  Uiso   1.00
C1210  C     0.40608   0.82504   0.51924   0.00000  Uiso   1.00
C1211  C     0.49946   0.85371   0.97012   0.00000  Uiso   1.00
C1212  C     0.48081   0.86485   0.51618   0.00000  Uiso   1.00
C1213  C     0.50803   0.89367   0.53445   0.00000  Uiso   1.00
C1214  C     0.46636   0.83898   0.94688   0.00000  Uiso   1.00
C1215  C     0.55798   0.90079   0.51162   0.00000  Uiso   1.00
C1216  C     0.42177   0.82091   0.97175   0.00000  Uiso   1.00
H1217  H     0.44585   0.85699   0.60800   0.00000  Uiso   1.00
H1218  H     0.55360   0.81520   0.89414   0.00000  Uiso   1.00
H1219  H     0.64450   0.79827   0.61049   0.00000  Uiso   1.00
H1220  H     0.35480   0.87713   0.88637   0.00000  Uiso   1.00
H1221  H     0.65319   0.90557   0.96158   0.00000  Uiso   1.00
H1222  H     0.33801   0.79025   0.52973   0.00000  Uiso   1.00
C1223  C     0.64653   0.68706   0.71875   0.00000  Uiso   1.00
C1224  C     0.35366   0.97965   0.78102   0.00000  Uiso   1.00
C1225  C     0.64578   0.97746   0.72173   0.00000  Uiso   1.00
C1226  C     0.35434   0.68925   0.77809   0.00000  Uiso   1.00
H1227  H     0.63072   0.95944   0.69928   0.00000  Uiso   1.00
H1228  H     0.36941   0.70727   0.80052   0.00000  Uiso   1.00
C1229  C     0.66613   0.95719   0.75204   0.00000  Uiso   1.00
C1230  C     0.33396   0.70950   0.74781   0.00000  Uiso   1.00
C1231  C     0.51607   0.80737   0.77781   0.00000  Uiso   1.00
C1232  C     0.48395   0.85923   0.72210   0.00000  Uiso   1.00
H1233  H     0.52773   0.78663   0.80018   0.00000  Uiso   1.00
H1234  H     0.47228   0.87998   0.69976   0.00000  Uiso   1.00
C1235  C     0.46650   0.80733   0.77773   0.00000  Uiso   1.00
C1236  C     0.53356   0.85919   0.72209   0.00000  Uiso   1.00
H1237  H     0.44082   0.78653   0.80000   0.00000  Uiso   1.00
H1238  H     0.55926   0.87992   0.69974   0.00000  Uiso   1.00
N1239  N     0.45069   0.83334   0.74999   0.00000  Uiso   1.00
N1240  N     0.54931   0.83332   0.75001   0.00000  Uiso   1.00
N1241  N     0.58656   0.92783   0.53071   0.00000  Uiso   1.00
O1242  O     0.59901   0.96423   0.51322   0.00000  Uiso   1.00
O1243  O     0.60352   0.91471   0.56309   0.00000  Uiso   1.00
N1244  N     0.39507   0.79537   0.94894   0.00000  Uiso   1.00
O1245  O     0.34980   0.80336   0.95146   0.00000  Uiso   1.00
O1246  O     0.41691   0.76471   0.92400   0.00000  Uiso   1.00
C1247  C     0.48216   0.92189   0.57187   0.00000  Uiso   1.00
H1248  H     0.44344   0.92782   0.57778   0.00000  Uiso   1.00
O1249  O     0.50305   0.93836   0.59668   0.00000  Uiso   1.00
C1250  C     0.47383   0.85055   0.89837   0.00000  Uiso   1.00
H1251  H     0.50367   0.87088   0.88126   0.00000  Uiso   1.00
O1252  O     0.44570   0.83952   0.87745   0.00000  Uiso   1.00
C1253  C     0.62805   0.70756   0.68374   0.00000  Uiso   1.00
H1254  H     0.63543   0.73995   0.67561   0.00000  Uiso   1.00
O1255  O     0.60470   0.68827   0.66297   0.00000  Uiso   1.00
C1256  C     0.37243   0.95919   0.81586   0.00000  Uiso   1.00
H1257  H     0.36567   0.92671   0.82357   0.00000  Uiso   1.00
O1258  O     0.39537   0.97861   0.83692   0.00000  Uiso   1.00
O1259  O     0.70625   0.77322   0.75000   0.00000  Uiso   1.00
O1260  O     0.96042   0.89345   0.75000   0.00000  Uiso   1.00
O1261  O     0.96039   0.77321   0.75000   0.00000  Uiso   1.00
O1262  O     0.70628   0.89346   0.75000   0.00000  Uiso   1.00
C1263  C     0.66704   0.75413   0.74861   0.00000  Uiso   1.00
C1264  C     0.99966   0.91254   0.75132   0.00000  Uiso   1.00
O1265  O     0.68519   0.83334   0.81492   0.00000  Uiso   1.00
O1266  O     0.98148   0.83332   0.68508   0.00000  Uiso   1.00
O1267  O     0.93933   0.83333   0.81492   0.00000  Uiso   1.00
O1268  O     0.72733   0.83333   0.68508   0.00000  Uiso   1.00
C1269  C     0.97220   0.83495   0.83625   0.00000  Uiso   1.00
C1270  C     0.69434   0.83254   0.66376   0.00000  Uiso   1.00
Cu1271 Cu    0.71355   0.83334   0.75000   0.00000  Uiso   1.00
Cu1272 Cu    0.95311   0.83333   0.75000   0.00000  Uiso   1.00
C1273  C     0.95547   0.84536   0.88457   0.00000  Uiso   1.00
C1274  C     0.70947   0.83046   0.61424   0.00000  Uiso   1.00
C1275  C     0.96315   0.88726   0.94702   0.00000  Uiso   1.00
C1276  C     0.69481   0.80747   0.54501   0.00000  Uiso   1.00
C1277  C     0.98376   0.87023   0.90427   0.00000  Uiso   1.00
C1278  C     0.67928   0.81157   0.59174   0.00000  Uiso   1.00
C1279  C     0.90689   0.83719   0.90844   0.00000  Uiso   1.00
C1280  C     0.75476   0.84629   0.58943   0.00000  Uiso   1.00
C1281  C     0.88377   0.85804   0.94888   0.00000  Uiso   1.00
C1282  C     0.76889   0.84697   0.54170   0.00000  Uiso   1.00
C1283  C     0.91296   0.88185   0.96960   0.00000  Uiso   1.00
C1284  C     0.73941   0.82504   0.51924   0.00000  Uiso   1.00
C1285  C     0.83279   0.85371   0.97012   0.00000  Uiso   1.00
C1286  C     0.81414   0.86485   0.51618   0.00000  Uiso   1.00
C1287  C     0.84136   0.89367   0.53445   0.00000  Uiso   1.00
C1288  C     0.79969   0.83898   0.94688   0.00000  Uiso   1.00
C1289  C     0.89131   0.90079   0.51162   0.00000  Uiso   1.00
C1290  C     0.75510   0.82091   0.97175   0.00000  Uiso   1.00
H1291  H     0.77919   0.85699   0.60800   0.00000  Uiso   1.00
H1292  H     0.88694   0.81520   0.89414   0.00000  Uiso   1.00
H1293  H     0.97783   0.79827   0.61049   0.00000  Uiso   1.00
H1294  H     0.68813   0.87713   0.88637   0.00000  Uiso   1.00
H1295  H     0.98652   0.90557   0.96158   0.00000  Uiso   1.00
H1296  H     0.67134   0.79025   0.52973   0.00000  Uiso   1.00
C1297  C     0.97987   0.68706   0.71875   0.00000  Uiso   1.00
C1298  C     0.68700   0.97965   0.78102   0.00000  Uiso   1.00
C1299  C     0.97911   0.97746   0.72173   0.00000  Uiso   1.00
C1300  C     0.68767   0.68925   0.77809   0.00000  Uiso   1.00
H1301  H     0.96405   0.95944   0.69928   0.00000  Uiso   1.00
H1302  H     0.70275   0.70727   0.80052   0.00000  Uiso   1.00
C1303  C     0.99946   0.95719   0.75204   0.00000  Uiso   1.00
C1304  C     0.66730   0.70950   0.74781   0.00000  Uiso   1.00
C1305  C     0.84941   0.80737   0.77781   0.00000  Uiso   1.00
C1306  C     0.81728   0.85923   0.72210   0.00000  Uiso   1.00
H1307  H     0.86106   0.78663   0.80018   0.00000  Uiso   1.00
H1308  H     0.80562   0.87998   0.69976   0.00000  Uiso   1.00
C1309  C     0.79983   0.80733   0.77773   0.00000  Uiso   1.00
C1310  C     0.86689   0.85919   0.72209   0.00000  Uiso   1.00
H1311  H     0.77416   0.78653   0.80000   0.00000  Uiso   1.00
H1312  H     0.89259   0.87992   0.69974   0.00000  Uiso   1.00
N1313  N     0.78403   0.83334   0.74999   0.00000  Uiso   1.00
N1314  N     0.88264   0.83332   0.75001   0.00000  Uiso   1.00
N1315  N     0.91989   0.92783   0.53071   0.00000  Uiso   1.00
O1316  O     0.93234   0.96423   0.51322   0.00000  Uiso   1.00
O1317  O     0.93685   0.91471   0.56309   0.00000  Uiso   1.00
N1318  N     0.72841   0.79537   0.94894   0.00000  Uiso   1.00
O1319  O     0.68313   0.80336   0.95146   0.00000  Uiso   1.00
O1320  O     0.75024   0.76471   0.92400   0.00000  Uiso   1.00
C1321  C     0.81549   0.92189   0.57187   0.00000  Uiso   1.00
H1322  H     0.77677   0.92782   0.57778   0.00000  Uiso   1.00
O1323  O     0.83639   0.93836   0.59668   0.00000  Uiso   1.00
C1324  C     0.80716   0.85055   0.89837   0.00000  Uiso   1.00
H1325  H     0.83700   0.87088   0.88126   0.00000  Uiso   1.00
O1326  O     0.77903   0.83952   0.87745   0.00000  Uiso   1.00
C1327  C     0.96138   0.70756   0.68374   0.00000  Uiso   1.00
H1328  H     0.96876   0.73995   0.67561   0.00000  Uiso   1.00
O1329  O     0.93803   0.68827   0.66297   0.00000  Uiso   1.00
C1330  C     0.70577   0.95919   0.81586   0.00000  Uiso   1.00
H1331  H     0.69900   0.92671   0.82357   0.00000  Uiso   1.00
O1332  O     0.72870   0.97861   0.83692   0.00000  Uiso   1.00
loop_
_geom_bond_atom_site_label_1
_geom_bond_atom_site_label_2
_geom_bond_distance
_geom_bond_site_symmetry_2
_ccdc_geom_bond_type
O1     C5      1.290   .     A
O1     Cu13    1.957   .     S
O2     C6      1.290   .     A
O2     Cu14    1.957   .     S
O3     Cu14    1.958   .     S
O3     C79     1.289   .     S
O4     Cu13    1.958   .     S
O4     C154    1.289   1_455 S
C5     C46     1.445   .     S
C5     O151    1.289   1_455 S
C6     C45     1.446   .     S
C6     O78     1.289   .     S
O7     Cu13    1.933   .     S
O7     C159    1.298   1_455 S
O8     Cu14    1.933   .     S
O8     C86     1.294   .     S
O9     Cu14    1.927   .     S
O9     C11     1.294   .     A
O10    C12     1.296   .     A
O10    Cu13    1.927   .     S
C11    C15     1.469   .     S
C11    O81     1.298   .     S
C12    C16     1.465   .     S
C12    O156    1.294   1_455 S
Cu13   N55     2.013   .     S
Cu13   Cu162   2.679   1_455 S
Cu14   N56     2.013   .     S
Cu14   Cu87    2.679   .     S
C15    C19     1.397   .     A
C15    C21     1.396   .     A
C16    C20     1.394   .     A
C16    C22     1.396   .     A
C17    H37     1.082   .     S
C17    C25     1.413   .     A
C17    C19     1.395   .     A
C18    C26     1.411   .     A
C18    C20     1.388   .     A
C18    H38     1.079   .     S
C19    H110    1.082   .     S
C20    H183    1.084   1_455 S
C21    H34     1.082   .     S
C21    C23     1.407   .     A
C22    C24     1.411   .     A
C22    H33     1.080   .     S
C23    C27     1.421   .     A
C23    C25     1.416   .     A
C24    C26     1.424   .     A
C24    C28     1.427   .     A
C25    C697    1.408   .     S
C26    C698    1.410   1_554 S
C27    C30     1.423   .     A
C27    C694    1.414   .     S
C28    C29     1.430   .     A
C28    C693    1.414   1_554 S
C29    C63     1.493   .     S
C29    C31     1.416   .     A
C30    C66     1.497   .     S
C30    C32     1.410   .     A
C31    N57     1.434   .     S
C31    C691    1.408   1_554 S
C32    N60     1.439   .     S
C32    C692    1.410   .     S
H35    C94     1.084   .     S
H36    C167    1.082   1_455 S
C39    C69     1.488   .     S
C39    C485    1.393   1_545 S
C39    C120    1.411   .     S
C40    C72     1.488   .     S
C40    C264    1.392   .     S
C40    C193    1.411   1_455 S
C41    H43     1.085   .     S
C41    C45     1.399   .     A
C41    C261    1.393   .     S
C42    C46     1.398   .     A
C42    H44     1.085   .     S
C42    C484    1.392   1_545 S
C45    C114    1.411   .     S
C46    C187    1.411   1_455 S
C47    H49     1.082   .     S
C47    C51     1.417   .     A
C47    N56     1.367   .     A
C48    N55     1.367   .     A
C48    C52     1.417   .     A
C48    H50     1.082   .     S
C51    H53     1.082   .     S
C51    N55     1.367   .     A
C52    H54     1.082   .     S
C52    N56     1.367   .     A
N57    O59     1.301   .     A
N57    O58     1.301   .     A
N60    O62     1.301   .     A
N60    O61     1.300   .     A
C63    O65     1.221   .     D
C63    H64     1.086   .     S
C66    O68     1.220   .     D
C66    H67     1.085   .     S
C69    O71     1.221   .     D
C69    H70     1.084   .     S
C72    O74     1.221   .     D
C72    H73     1.082   .     S
O75    C79     1.290   .     A
O75    Cu87    1.957   .     S
O76    C80     1.290   .     A
O76    Cu88    1.957   .     S
O77    Cu88    1.958   .     S
O77    C153    1.289   .     S
O78    Cu87    1.958   .     S
C79    C120    1.445   .     S
C80    C119    1.446   .     S
C80    O152    1.289   .     S
O81    Cu87    1.933   .     S
O82    Cu88    1.933   .     S
O82    C160    1.294   .     S
O83    Cu88    1.927   .     S
O83    C85     1.294   .     A
O84    C86     1.296   .     A
O84    Cu87    1.927   .     S
C85    C89     1.469   .     S
C85    O155    1.298   .     S
C86    C90     1.465   .     S
Cu87   N129    2.013   .     S
Cu88   N130    2.013   .     S
Cu88   Cu161   2.679   .     S
C89    C93     1.397   .     A
C89    C95     1.396   .     A
C90    C94     1.394   .     A
C90    C96     1.396   .     A
C91    H111    1.082   .     S
C91    C99     1.413   .     A
C91    C93     1.395   .     A
C92    C100    1.411   .     A
C92    C94     1.388   .     A
C92    H112    1.079   .     S
C93    H184    1.082   .     S
C95    H108    1.082   .     S
C95    C97     1.407   .     A
C96    C98     1.411   .     A
C96    H107    1.080   .     S
C97    C101    1.421   .     A
C97    C99     1.416   .     A
C98    C100    1.424   .     A
C98    C102    1.427   .     A
C99    C771    1.408   .     S
C100   C772    1.410   1_554 S
C101   C104    1.423   .     A
C101   C768    1.414   .     S
C102   C103    1.430   .     A
C102   C767    1.414   1_554 S
C103   C137    1.493   .     S
C103   C105    1.416   .     A
C104   C140    1.497   .     S
C104   C106    1.410   .     A
C105   N131    1.434   .     S
C105   C765    1.408   1_554 S
C106   N134    1.439   .     S
C106   C766    1.410   .     S
H109   C168    1.084   .     S
C113   C143    1.488   .     S
C113   C559    1.393   1_545 S
C113   C194    1.411   .     S
C114   C146    1.488   .     S
C114   C338    1.392   .     S
C115   H117    1.085   .     S
C115   C119    1.399   .     A
C115   C335    1.393   .     S
C116   C120    1.398   .     A
C116   H118    1.085   .     S
C116   C558    1.392   1_545 S
C119   C188    1.411   .     S
C121   H123    1.082   .     S
C121   C125    1.417   .     A
C121   N130    1.367   .     A
C122   N129    1.367   .     A
C122   C126    1.417   .     A
C122   H124    1.082   .     S
C125   H127    1.082   .     S
C125   N129    1.367   .     A
C126   H128    1.082   .     S
C126   N130    1.367   .     A
N131   O133    1.301   .     A
N131   O132    1.301   .     A
N134   O136    1.301   .     A
N134   O135    1.300   .     A
C137   O139    1.221   .     D
C137   H138    1.086   .     S
C140   O142    1.220   .     D
C140   H141    1.085   .     S
C143   O145    1.221   .     D
C143   H144    1.084   .     S
C146   O148    1.221   .     D
C146   H147    1.082   .     S
O149   C153    1.290   .     A
O149   Cu161   1.957   .     S
O150   C154    1.290   .     A
O150   Cu162   1.957   .     S
O151   Cu162   1.958   .     S
O151   C5      1.289   1_655 S
O152   Cu161   1.958   .     S
C153   C194    1.445   .     S
C154   C193    1.446   .     S
C154   O4      1.289   1_655 S
O155   Cu161   1.933   .     S
O156   Cu162   1.933   .     S
O156   C12     1.294   1_655 S
O157   Cu162   1.927   .     S
O157   C159    1.294   .     A
O158   C160    1.296   .     A
O158   Cu161   1.927   .     S
C159   C163    1.469   .     S
C159   O7      1.298   1_655 S
C160   C164    1.465   .     S
Cu161  N203    2.013   .     S
Cu162  N204    2.013   .     S
Cu162  Cu13    2.679   1_655 S
C163   C167    1.397   .     A
C163   C169    1.396   .     A
C164   C168    1.394   .     A
C164   C170    1.396   .     A
C165   H185    1.082   .     S
C165   C173    1.413   .     A
C165   C167    1.395   .     A
C166   C174    1.411   .     A
C166   C168    1.388   .     A
C166   H186    1.079   .     S
C167   H36     1.082   1_655 S
C169   H182    1.082   .     S
C169   C171    1.407   .     A
C170   C172    1.411   .     A
C170   H181    1.080   .     S
C171   C175    1.421   .     A
C171   C173    1.416   .     A
C172   C174    1.424   .     A
C172   C176    1.427   .     A
C173   C845    1.408   .     S
C174   C846    1.410   1_554 S
C175   C178    1.423   .     A
C175   C842    1.414   .     S
C176   C177    1.430   .     A
C176   C841    1.414   1_554 S
C177   C211    1.493   .     S
C177   C179    1.416   .     A
C178   C214    1.497   .     S
C178   C180    1.410   .     A
C179   N205    1.434   .     S
C179   C839    1.408   1_554 S
C180   N208    1.439   .     S
C180   C840    1.410   .     S
H183   C20     1.084   1_655 S
C187   C217    1.488   .     S
C187   C633    1.393   1_545 S
C187   C46     1.411   1_655 S
C188   C220    1.488   .     S
C188   C412    1.392   .     S
C189   H191    1.085   .     S
C189   C193    1.399   .     A
C189   C409    1.393   .     S
C190   C194    1.398   .     A
C190   H192    1.085   .     S
C190   C632    1.392   1_545 S
C193   C40     1.411   1_655 S
C195   H197    1.082   .     S
C195   C199    1.417   .     A
C195   N204    1.367   .     A
C196   N203    1.367   .     A
C196   C200    1.417   .     A
C196   H198    1.082   .     S
C199   H201    1.082   .     S
C199   N203    1.367   .     A
C200   H202    1.082   .     S
C200   N204    1.367   .     A
N205   O207    1.301   .     A
N205   O206    1.301   .     A
N208   O210    1.301   .     A
N208   O209    1.300   .     A
C211   O213    1.221   .     D
C211   H212    1.086   .     S
C214   O216    1.220   .     D
C214   H215    1.085   .     S
C217   O219    1.221   .     D
C217   H218    1.084   .     S
C220   O222    1.221   .     D
C220   H221    1.082   .     S
O223   C227    1.290   .     A
O223   Cu235   1.957   .     S
O224   C228    1.290   .     A
O224   Cu236   1.957   .     S
O225   Cu236   1.958   .     S
O225   C301    1.289   .     S
O226   Cu235   1.958   .     S
O226   C376    1.289   1_455 S
C227   C268    1.445   .     S
C227   O373    1.289   1_455 S
C228   C267    1.446   .     S
C228   O300    1.289   .     S
O229   Cu235   1.933   .     S
O229   C381    1.298   1_455 S
O230   Cu236   1.933   .     S
O230   C308    1.294   .     S
O231   Cu236   1.927   .     S
O231   C233    1.294   .     A
O232   C234    1.296   .     A
O232   Cu235   1.927   .     S
C233   C237    1.469   .     S
C233   O303    1.298   .     S
C234   C238    1.465   .     S
C234   O378    1.294   1_455 S
Cu235  N277    2.013   .     S
Cu235  Cu384   2.679   1_455 S
Cu236  N278    2.013   .     S
Cu236  Cu309   2.679   .     S
C237   C241    1.397   .     A
C237   C243    1.396   .     A
C238   C242    1.394   .     A
C238   C244    1.396   .     A
C239   H259    1.082   .     S
C239   C247    1.413   .     A
C239   C241    1.395   .     A
C240   C248    1.411   .     A
C240   C242    1.388   .     A
C240   H260    1.079   .     S
C241   H332    1.082   .     S
C242   H405    1.084   1_455 S
C243   H256    1.082   .     S
C243   C245    1.407   .     A
C244   C246    1.411   .     A
C244   H255    1.080   .     S
C245   C249    1.421   .     A
C245   C247    1.416   .     A
C246   C248    1.424   .     A
C246   C250    1.427   .     A
C247   C919    1.408   .     S
C248   C920    1.410   1_554 S
C249   C252    1.423   .     A
C249   C916    1.414   .     S
C250   C251    1.430   .     A
C250   C915    1.414   1_554 S
C251   C285    1.493   .     S
C251   C253    1.416   .     A
C252   C288    1.497   .     S
C252   C254    1.410   .     A
C253   N279    1.434   .     S
C253   C913    1.408   1_554 S
C254   N282    1.439   .     S
C254   C914    1.410   .     S
H257   C316    1.084   .     S
H258   C389    1.082   1_455 S
C261   C291    1.488   .     S
C261   C342    1.411   .     S
C262   C294    1.488   .     S
C262   C486    1.392   .     S
C262   C415    1.411   1_455 S
C263   H265    1.085   .     S
C263   C267    1.399   .     A
C263   C483    1.393   .     S
C264   C268    1.398   .     A
C264   H266    1.085   .     S
C267   C336    1.411   .     S
C268   C409    1.411   1_455 S
C269   H271    1.082   .     S
C269   C273    1.417   .     A
C269   N278    1.367   .     A
C270   N277    1.367   .     A
C270   C274    1.417   .     A
C270   H272    1.082   .     S
C273   H275    1.082   .     S
C273   N277    1.367   .     A
C274   H276    1.082   .     S
C274   N278    1.367   .     A
N279   O281    1.301   .     A
N279   O280    1.301   .     A
N282   O284    1.301   .     A
N282   O283    1.300   .     A
C285   O287    1.221   .     D
C285   H286    1.086   .     S
C288   O290    1.220   .     D
C288   H289    1.085   .     S
C291   O293    1.221   .     D
C291   H292    1.084   .     S
C294   O296    1.221   .     D
C294   H295    1.082   .     S
O297   C301    1.290   .     A
O297   Cu309   1.957   .     S
O298   C302    1.290   .     A
O298   Cu310   1.957   .     S
O299   Cu310   1.958   .     S
O299   C375    1.289   .     S
O300   Cu309   1.958   .     S
C301   C342    1.445   .     S
C302   C341    1.446   .     S
C302   O374    1.289   .     S
O303   Cu309   1.933   .     S
O304   Cu310   1.933   .     S
O304   C382    1.294   .     S
O305   Cu310   1.927   .     S
O305   C307    1.294   .     A
O306   C308    1.296   .     A
O306   Cu309   1.927   .     S
C307   C311    1.469   .     S
C307   O377    1.298   .     S
C308   C312    1.465   .     S
Cu309  N351    2.013   .     S
Cu310  N352    2.013   .     S
Cu310  Cu383   2.679   .     S
C311   C315    1.397   .     A
C311   C317    1.396   .     A
C312   C316    1.394   .     A
C312   C318    1.396   .     A
C313   H333    1.082   .     S
C313   C321    1.413   .     A
C313   C315    1.395   .     A
C314   C322    1.411   .     A
C314   C316    1.388   .     A
C314   H334    1.079   .     S
C315   H406    1.082   .     S
C317   H330    1.082   .     S
C317   C319    1.407   .     A
C318   C320    1.411   .     A
C318   H329    1.080   .     S
C319   C323    1.421   .     A
C319   C321    1.416   .     A
C320   C322    1.424   .     A
C320   C324    1.427   .     A
C321   C993    1.408   .     S
C322   C994    1.410   1_554 S
C323   C326    1.423   .     A
C323   C990    1.414   .     S
C324   C325    1.430   .     A
C324   C989    1.414   1_554 S
C325   C359    1.493   .     S
C325   C327    1.416   .     A
C326   C362    1.497   .     S
C326   C328    1.410   .     A
C327   N353    1.434   .     S
C327   C987    1.408   1_554 S
C328   N356    1.439   .     S
C328   C988    1.410   .     S
H331   C390    1.084   .     S
C335   C365    1.488   .     S
C335   C416    1.411   .     S
C336   C368    1.488   .     S
C336   C560    1.392   .     S
C337   H339    1.085   .     S
C337   C341    1.399   .     A
C337   C557    1.393   .     S
C338   C342    1.398   .     A
C338   H340    1.085   .     S
C341   C410    1.411   .     S
C343   H345    1.082   .     S
C343   C347    1.417   .     A
C343   N352    1.367   .     A
C344   N351    1.367   .     A
C344   C348    1.417   .     A
C344   H346    1.082   .     S
C347   H349    1.082   .     S
C347   N351    1.367   .     A
C348   H350    1.082   .     S
C348   N352    1.367   .     A
N353   O355    1.301   .     A
N353   O354    1.301   .     A
N356   O358    1.301   .     A
N356   O357    1.300   .     A
C359   O361    1.221   .     D
C359   H360    1.086   .     S
C362   O364    1.220   .     D
C362   H363    1.085   .     S
C365   O367    1.221   .     D
C365   H366    1.084   .     S
C368   O370    1.221   .     D
C368   H369    1.082   .     S
O371   C375    1.290   .     A
O371   Cu383   1.957   .     S
O372   C376    1.290   .     A
O372   Cu384   1.957   .     S
O373   Cu384   1.958   .     S
O373   C227    1.289   1_655 S
O374   Cu383   1.958   .     S
C375   C416    1.445   .     S
C376   C415    1.446   .     S
C376   O226    1.289   1_655 S
O377   Cu383   1.933   .     S
O378   Cu384   1.933   .     S
O378   C234    1.294   1_655 S
O379   Cu384   1.927   .     S
O379   C381    1.294   .     A
O380   C382    1.296   .     A
O380   Cu383   1.927   .     S
C381   C385    1.469   .     S
C381   O229    1.298   1_655 S
C382   C386    1.465   .     S
Cu383  N425    2.013   .     S
Cu384  N426    2.013   .     S
Cu384  Cu235   2.679   1_655 S
C385   C389    1.397   .     A
C385   C391    1.396   .     A
C386   C390    1.394   .     A
C386   C392    1.396   .     A
C387   H407    1.082   .     S
C387   C395    1.413   .     A
C387   C389    1.395   .     A
C388   C396    1.411   .     A
C388   C390    1.388   .     A
C388   H408    1.079   .     S
C389   H258    1.082   1_655 S
C391   H404    1.082   .     S
C391   C393    1.407   .     A
C392   C394    1.411   .     A
C392   H403    1.080   .     S
C393   C397    1.421   .     A
C393   C395    1.416   .     A
C394   C396    1.424   .     A
C394   C398    1.427   .     A
C395   C1067   1.408   .     S
C396   C1068   1.410   1_554 S
C397   C400    1.423   .     A
C397   C1064   1.414   .     S
C398   C399    1.430   .     A
C398   C1063   1.414   1_554 S
C399   C433    1.493   .     S
C399   C401    1.416   .     A
C400   C436    1.497   .     S
C400   C402    1.410   .     A
C401   N427    1.434   .     S
C401   C1061   1.408   1_554 S
C402   N430    1.439   .     S
C402   C1062   1.410   .     S
H405   C242    1.084   1_655 S
C409   C439    1.488   .     S
C409   C268    1.411   1_655 S
C410   C442    1.488   .     S
C410   C634    1.392   .     S
C411   H413    1.085   .     S
C411   C415    1.399   .     A
C411   C631    1.393   .     S
C412   C416    1.398   .     A
C412   H414    1.085   .     S
C415   C262    1.411   1_655 S
C417   H419    1.082   .     S
C417   C421    1.417   .     A
C417   N426    1.367   .     A
C418   N425    1.367   .     A
C418   C422    1.417   .     A
C418   H420    1.082   .     S
C421   H423    1.082   .     S
C421   N425    1.367   .     A
C422   H424    1.082   .     S
C422   N426    1.367   .     A
N427   O429    1.301   .     A
N427   O428    1.301   .     A
N430   O432    1.301   .     A
N430   O431    1.300   .     A
C433   O435    1.221   .     D
C433   H434    1.086   .     S
C436   O438    1.220   .     D
C436   H437    1.085   .     S
C439   O441    1.221   .     D
C439   H440    1.084   .     S
C442   O444    1.221   .     D
C442   H443    1.082   .     S
O445   C449    1.290   .     A
O445   Cu457   1.957   .     S
O446   C450    1.290   .     A
O446   Cu458   1.957   .     S
O447   Cu458   1.958   .     S
O447   C523    1.289   .     S
O448   Cu457   1.958   .     S
O448   C598    1.289   1_455 S
C449   C490    1.445   .     S
C449   O595    1.289   1_455 S
C450   C489    1.446   .     S
C450   O522    1.289   .     S
O451   Cu457   1.933   .     S
O451   C603    1.298   1_455 S
O452   Cu458   1.933   .     S
O452   C530    1.294   .     S
O453   Cu458   1.927   .     S
O453   C455    1.294   .     A
O454   C456    1.296   .     A
O454   Cu457   1.927   .     S
C455   C459    1.469   .     S
C455   O525    1.298   .     S
C456   C460    1.465   .     S
C456   O600    1.294   1_455 S
Cu457  N499    2.013   .     S
Cu457  Cu606   2.679   1_455 S
Cu458  N500    2.013   .     S
Cu458  Cu531   2.679   .     S
C459   C463    1.397   .     A
C459   C465    1.396   .     A
C460   C464    1.394   .     A
C460   C466    1.396   .     A
C461   H481    1.082   .     S
C461   C469    1.413   .     A
C461   C463    1.395   .     A
C462   C470    1.411   .     A
C462   C464    1.388   .     A
C462   H482    1.079   .     S
C463   H554    1.082   .     S
C464   H627    1.084   1_455 S
C465   H478    1.082   .     S
C465   C467    1.407   .     A
C466   C468    1.411   .     A
C466   H477    1.080   .     S
C467   C471    1.421   .     A
C467   C469    1.416   .     A
C468   C470    1.424   .     A
C468   C472    1.427   .     A
C469   C1141   1.408   .     S
C470   C1142   1.410   1_554 S
C471   C474    1.423   .     A
C471   C1138   1.414   .     S
C472   C473    1.430   .     A
C472   C1137   1.414   1_554 S
C473   C507    1.493   .     S
C473   C475    1.416   .     A
C474   C510    1.497   .     S
C474   C476    1.410   .     A
C475   N501    1.434   .     S
C475   C1135   1.408   1_554 S
C476   N504    1.439   .     S
C476   C1136   1.410   .     S
H479   C538    1.084   .     S
H480   C611    1.082   1_455 S
C483   C513    1.488   .     S
C483   C564    1.411   .     S
C484   C516    1.488   .     S
C484   C42     1.392   1_565 S
C484   C637    1.411   1_455 S
C485   H487    1.085   .     S
C485   C489    1.399   .     A
C485   C39     1.393   1_565 S
C486   C490    1.398   .     A
C486   H488    1.085   .     S
C489   C558    1.411   .     S
C490   C631    1.411   1_455 S
C491   H493    1.082   .     S
C491   C495    1.417   .     A
C491   N500    1.367   .     A
C492   N499    1.367   .     A
C492   C496    1.417   .     A
C492   H494    1.082   .     S
C495   H497    1.082   .     S
C495   N499    1.367   .     A
C496   H498    1.082   .     S
C496   N500    1.367   .     A
N501   O503    1.301   .     A
N501   O502    1.301   .     A
N504   O506    1.301   .     A
N504   O505    1.300   .     A
C507   O509    1.221   .     D
C507   H508    1.086   .     S
C510   O512    1.220   .     D
C510   H511    1.085   .     S
C513   O515    1.221   .     D
C513   H514    1.084   .     S
C516   O518    1.221   .     D
C516   H517    1.082   .     S
O519   C523    1.290   .     A
O519   Cu531   1.957   .     S
O520   C524    1.290   .     A
O520   Cu532   1.957   .     S
O521   Cu532   1.958   .     S
O521   C597    1.289   .     S
O522   Cu531   1.958   .     S
C523   C564    1.445   .     S
C524   C563    1.446   .     S
C524   O596    1.289   .     S
O525   Cu531   1.933   .     S
O526   Cu532   1.933   .     S
O526   C604    1.294   .     S
O527   Cu532   1.927   .     S
O527   C529    1.294   .     A
O528   C530    1.296   .     A
O528   Cu531   1.927   .     S
C529   C533    1.469   .     S
C529   O599    1.298   .     S
C530   C534    1.465   .     S
Cu531  N573    2.013   .     S
Cu532  N574    2.013   .     S
Cu532  Cu605   2.679   .     S
C533   C537    1.397   .     A
C533   C539    1.396   .     A
C534   C538    1.394   .     A
C534   C540    1.396   .     A
C535   H555    1.082   .     S
C535   C543    1.413   .     A
C535   C537    1.395   .     A
C536   C544    1.411   .     A
C536   C538    1.388   .     A
C536   H556    1.079   .     S
C537   H628    1.082   .     S
C539   H552    1.082   .     S
C539   C541    1.407   .     A
C540   C542    1.411   .     A
C540   H551    1.080   .     S
C541   C545    1.421   .     A
C541   C543    1.416   .     A
C542   C544    1.424   .     A
C542   C546    1.427   .     A
C543   C1215   1.408   .     S
C544   C1216   1.410   1_554 S
C545   C548    1.423   .     A
C545   C1212   1.414   .     S
C546   C547    1.430   .     A
C546   C1211   1.414   1_554 S
C547   C581    1.493   .     S
C547   C549    1.416   .     A
C548   C584    1.497   .     S
C548   C550    1.410   .     A
C549   N575    1.434   .     S
C549   C1209   1.408   1_554 S
C550   N578    1.439   .     S
C550   C1210   1.410   .     S
H553   C612    1.084   .     S
C557   C587    1.488   .     S
C557   C638    1.411   .     S
C558   C590    1.488   .     S
C558   C116    1.392   1_565 S
C559   H561    1.085   .     S
C559   C563    1.399   .     A
C559   C113    1.393   1_565 S
C560   C564    1.398   .     A
C560   H562    1.085   .     S
C563   C632    1.411   .     S
C565   H567    1.082   .     S
C565   C569    1.417   .     A
C565   N574    1.367   .     A
C566   N573    1.367   .     A
C566   C570    1.417   .     A
C566   H568    1.082   .     S
C569   H571    1.082   .     S
C569   N573    1.367   .     A
C570   H572    1.082   .     S
C570   N574    1.367   .     A
N575   O577    1.301   .     A
N575   O576    1.301   .     A
N578   O580    1.301   .     A
N578   O579    1.300   .     A
C581   O583    1.221   .     D
C581   H582    1.086   .     S
C584   O586    1.220   .     D
C584   H585    1.085   .     S
C587   O589    1.221   .     D
C587   H588    1.084   .     S
C590   O592    1.221   .     D
C590   H591    1.082   .     S
O593   C597    1.290   .     A
O593   Cu605   1.957   .     S
O594   C598    1.290   .     A
O594   Cu606   1.957   .     S
O595   Cu606   1.958   .     S
O595   C449    1.289   1_655 S
O596   Cu605   1.958   .     S
C597   C638    1.445   .     S
C598   C637    1.446   .     S
C598   O448    1.289   1_655 S
O599   Cu605   1.933   .     S
O600   Cu606   1.933   .     S
O600   C456    1.294   1_655 S
O601   Cu606   1.927   .     S
O601   C603    1.294   .     A
O602   C604    1.296   .     A
O602   Cu605   1.927   .     S
C603   C607    1.469   .     S
C603   O451    1.298   1_655 S
C604   C608    1.465   .     S
Cu605  N647    2.013   .     S
Cu606  N648    2.013   .     S
Cu606  Cu457   2.679   1_655 S
C607   C611    1.397   .     A
C607   C613    1.396   .     A
C608   C612    1.394   .     A
C608   C614    1.396   .     A
C609   H629    1.082   .     S
C609   C617    1.413   .     A
C609   C611    1.395   .     A
C610   C618    1.411   .     A
C610   C612    1.388   .     A
C610   H630    1.079   .     S
C611   H480    1.082   1_655 S
C613   H626    1.082   .     S
C613   C615    1.407   .     A
C614   C616    1.411   .     A
C614   H625    1.080   .     S
C615   C619    1.421   .     A
C615   C617    1.416   .     A
C616   C618    1.424   .     A
C616   C620    1.427   .     A
C617   C1289   1.408   .     S
C618   C1290   1.410   1_554 S
C619   C622    1.423   .     A
C619   C1286   1.414   .     S
C620   C621    1.430   .     A
C620   C1285   1.414   1_554 S
C621   C655    1.493   .     S
C621   C623    1.416   .     A
C622   C658    1.497   .     S
C622   C624    1.410   .     A
C623   N649    1.434   .     S
C623   C1283   1.408   1_554 S
C624   N652    1.439   .     S
C624   C1284   1.410   .     S
H627   C464    1.084   1_655 S
C631   C661    1.488   .     S
C631   C490    1.411   1_655 S
C632   C664    1.488   .     S
C632   C190    1.392   1_565 S
C633   H635    1.085   .     S
C633   C637    1.399   .     A
C633   C187    1.393   1_565 S
C634   C638    1.398   .     A
C634   H636    1.085   .     S
C637   C484    1.411   1_655 S
C639   H641    1.082   .     S
C639   C643    1.417   .     A
C639   N648    1.367   .     A
C640   N647    1.367   .     A
C640   C644    1.417   .     A
C640   H642    1.082   .     S
C643   H645    1.082   .     S
C643   N647    1.367   .     A
C644   H646    1.082   .     S
C644   N648    1.367   .     A
N649   O651    1.301   .     A
N649   O650    1.301   .     A
N652   O654    1.301   .     A
N652   O653    1.300   .     A
C655   O657    1.221   .     D
C655   H656    1.086   .     S
C658   O660    1.220   .     D
C658   H659    1.085   .     S
C661   O663    1.221   .     D
C661   H662    1.084   .     S
C664   O666    1.221   .     D
C664   H665    1.082   .     S
O667   C671    1.290   .     A
O667   Cu679   1.957   .     S
O668   C672    1.290   .     A
O668   Cu680   1.957   .     S
O669   Cu680   1.958   .     S
O669   C745    1.289   .     S
O670   Cu679   1.958   .     S
O670   C820    1.289   1_455 S
C671   C712    1.445   .     S
C671   O817    1.289   1_455 S
C672   C711    1.446   .     S
C672   O744    1.289   .     S
O673   Cu679   1.933   .     S
O673   C825    1.298   1_455 S
O674   Cu680   1.933   .     S
O674   C752    1.294   .     S
O675   Cu680   1.927   .     S
O675   C677    1.294   .     A
O676   C678    1.296   .     A
O676   Cu679   1.927   .     S
C677   C681    1.469   .     S
C677   O747    1.298   .     S
C678   C682    1.465   .     S
C678   O822    1.294   1_455 S
Cu679  N721    2.013   .     S
Cu679  Cu828   2.679   1_455 S
Cu680  N722    2.013   .     S
Cu680  Cu753   2.679   .     S
C681   C685    1.397   .     A
C681   C687    1.396   .     A
C682   C686    1.394   .     A
C682   C688    1.396   .     A
C683   H703    1.082   .     S
C683   C691    1.413   .     A
C683   C685    1.395   .     A
C684   C692    1.411   .     A
C684   C686    1.388   .     A
C684   H704    1.079   .     S
C685   H776    1.082   .     S
C686   H849    1.084   1_455 S
C687   H700    1.082   .     S
C687   C689    1.407   .     A
C688   C690    1.411   .     A
C688   H699    1.080   .     S
C689   C693    1.421   .     A
C689   C691    1.416   .     A
C690   C692    1.424   .     A
C690   C694    1.427   .     A
C691   C31     1.408   1_556 S
C693   C696    1.423   .     A
C693   C28     1.414   1_556 S
C694   C695    1.430   .     A
C695   C729    1.493   .     S
C695   C697    1.416   .     A
C696   C732    1.497   .     S
C696   C698    1.410   .     A
C697   N723    1.434   .     S
C698   N726    1.439   .     S
C698   C26     1.410   1_556 S
H701   C760    1.084   .     S
H702   C833    1.082   1_455 S
C705   C735    1.488   .     S
C705   C1151   1.393   1_545 S
C705   C786    1.411   .     S
C706   C738    1.488   .     S
C706   C930    1.392   .     S
C706   C859    1.411   1_455 S
C707   H709    1.085   .     S
C707   C711    1.399   .     A
C707   C927    1.393   .     S
C708   C712    1.398   .     A
C708   H710    1.085   .     S
C708   C1150   1.392   1_545 S
C711   C780    1.411   .     S
C712   C853    1.411   1_455 S
C713   H715    1.082   .     S
C713   C717    1.417   .     A
C713   N722    1.367   .     A
C714   N721    1.367   .     A
C714   C718    1.417   .     A
C714   H716    1.082   .     S
C717   H719    1.082   .     S
C717   N721    1.367   .     A
C718   H720    1.082   .     S
C718   N722    1.367   .     A
N723   O725    1.301   .     A
N723   O724    1.301   .     A
N726   O728    1.301   .     A
N726   O727    1.300   .     A
C729   O731    1.221   .     D
C729   H730    1.086   .     S
C732   O734    1.220   .     D
C732   H733    1.085   .     S
C735   O737    1.221   .     D
C735   H736    1.084   .     S
C738   O740    1.221   .     D
C738   H739    1.082   .     S
O741   C745    1.290   .     A
O741   Cu753   1.957   .     S
O742   C746    1.290   .     A
O742   Cu754   1.957   .     S
O743   Cu754   1.958   .     S
O743   C819    1.289   .     S
O744   Cu753   1.958   .     S
C745   C786    1.445   .     S
C746   C785    1.446   .     S
C746   O818    1.289   .     S
O747   Cu753   1.933   .     S
O748   Cu754   1.933   .     S
O748   C826    1.294   .     S
O749   Cu754   1.927   .     S
O749   C751    1.294   .     A
O750   C752    1.296   .     A
O750   Cu753   1.927   .     S
C751   C755    1.469   .     S
C751   O821    1.298   .     S
C752   C756    1.465   .     S
Cu753  N795    2.013   .     S
Cu754  N796    2.013   .     S
Cu754  Cu827   2.679   .     S
C755   C759    1.397   .     A
C755   C761    1.396   .     A
C756   C760    1.394   .     A
C756   C762    1.396   .     A
C757   H777    1.082   .     S
C757   C765    1.413   .     A
C757   C759    1.395   .     A
C758   C766    1.411   .     A
C758   C760    1.388   .     A
C758   H778    1.079   .     S
C759   H850    1.082   .     S
C761   H774    1.082   .     S
C761   C763    1.407   .     A
C762   C764    1.411   .     A
C762   H773    1.080   .     S
C763   C767    1.421   .     A
C763   C765    1.416   .     A
C764   C766    1.424   .     A
C764   C768    1.427   .     A
C765   C105    1.408   1_556 S
C767   C770    1.423   .     A
C767   C102    1.414   1_556 S
C768   C769    1.430   .     A
C769   C803    1.493   .     S
C769   C771    1.416   .     A
C770   C806    1.497   .     S
C770   C772    1.410   .     A
C771   N797    1.434   .     S
C772   N800    1.439   .     S
C772   C100    1.410   1_556 S
H775   C834    1.084   .     S
C779   C809    1.488   .     S
C779   C1225   1.393   1_545 S
C779   C860    1.411   .     S
C780   C812    1.488   .     S
C780   C1004   1.392   .     S
C781   H783    1.085   .     S
C781   C785    1.399   .     A
C781   C1001   1.393   .     S
C782   C786    1.398   .     A
C782   H784    1.085   .     S
C782   C1224   1.392   1_545 S
C785   C854    1.411   .     S
C787   H789    1.082   .     S
C787   C791    1.417   .     A
C787   N796    1.367   .     A
C788   N795    1.367   .     A
C788   C792    1.417   .     A
C788   H790    1.082   .     S
C791   H793    1.082   .     S
C791   N795    1.367   .     A
C792   H794    1.082   .     S
C792   N796    1.367   .     A
N797   O799    1.301   .     A
N797   O798    1.301   .     A
N800   O802    1.301   .     A
N800   O801    1.300   .     A
C803   O805    1.221   .     D
C803   H804    1.086   .     S
C806   O808    1.220   .     D
C806   H807    1.085   .     S
C809   O811    1.221   .     D
C809   H810    1.084   .     S
C812   O814    1.221   .     D
C812   H813    1.082   .     S
O815   C819    1.290   .     A
O815   Cu827   1.957   .     S
O816   C820    1.290   .     A
O816   Cu828   1.957   .     S
O817   Cu828   1.958   .     S
O817   C671    1.289   1_655 S
O818   Cu827   1.958   .     S
C819   C860    1.445   .     S
C820   C859    1.446   .     S
C820   O670    1.289   1_655 S
O821   Cu827   1.933   .     S
O822   Cu828   1.933   .     S
O822   C678    1.294   1_655 S
O823   Cu828   1.927   .     S
O823   C825    1.294   .     A
O824   C826    1.296   .     A
O824   Cu827   1.927   .     S
C825   C829    1.469   .     S
C825   O673    1.298   1_655 S
C826   C830    1.465   .     S
Cu827  N869    2.013   .     S
Cu828  N870    2.013   .     S
Cu828  Cu679   2.679   1_655 S
C829   C833    1.397   .     A
C829   C835    1.396   .     A
C830   C834    1.394   .     A
C830   C836    1.396   .     A
C831   H851    1.082   .     S
C831   C839    1.413   .     A
C831   C833    1.395   .     A
C832   C840    1.411   .     A
C832   C834    1.388   .     A
C832   H852    1.079   .     S
C833   H702    1.082   1_655 S
C835   H848    1.082   .     S
C835   C837    1.407   .     A
C836   C838    1.411   .     A
C836   H847    1.080   .     S
C837   C841    1.421   .     A
C837   C839    1.416   .     A
C838   C840    1.424   .     A
C838   C842    1.427   .     A
C839   C179    1.408   1_556 S
C841   C844    1.423   .     A
C841   C176    1.414   1_556 S
C842   C843    1.430   .     A
C843   C877    1.493   .     S
C843   C845    1.416   .     A
C844   C880    1.497   .     S
C844   C846    1.410   .     A
C845   N871    1.434   .     S
C846   N874    1.439   .     S
C846   C174    1.410   1_556 S
H849   C686    1.084   1_655 S
C853   C883    1.488   .     S
C853   C1299   1.393   1_545 S
C853   C712    1.411   1_655 S
C854   C886    1.488   .     S
C854   C1078   1.392   .     S
C855   H857    1.085   .     S
C855   C859    1.399   .     A
C855   C1075   1.393   .     S
C856   C860    1.398   .     A
C856   H858    1.085   .     S
C856   C1298   1.392   1_545 S
C859   C706    1.411   1_655 S
C861   H863    1.082   .     S
C861   C865    1.417   .     A
C861   N870    1.367   .     A
C862   N869    1.367   .     A
C862   C866    1.417   .     A
C862   H864    1.082   .     S
C865   H867    1.082   .     S
C865   N869    1.367   .     A
C866   H868    1.082   .     S
C866   N870    1.367   .     A
N871   O873    1.301   .     A
N871   O872    1.301   .     A
N874   O876    1.301   .     A
N874   O875    1.300   .     A
C877   O879    1.221   .     D
C877   H878    1.086   .     S
C880   O882    1.220   .     D
C880   H881    1.085   .     S
C883   O885    1.221   .     D
C883   H884    1.084   .     S
C886   O888    1.221   .     D
C886   H887    1.082   .     S
O889   C893    1.290   .     A
O889   Cu901   1.957   .     S
O890   C894    1.290   .     A
O890   Cu902   1.957   .     S
O891   Cu902   1.958   .     S
O891   C967    1.289   .     S
O892   Cu901   1.958   .     S
O892   C1042   1.289   1_455 S
C893   C934    1.445   .     S
C893   O1039   1.289   1_455 S
C894   C933    1.446   .     S
C894   O966    1.289   .     S
O895   Cu901   1.933   .     S
O895   C1047   1.298   1_455 S
O896   Cu902   1.933   .     S
O896   C974    1.294   .     S
O897   Cu902   1.927   .     S
O897   C899    1.294   .     A
O898   C900    1.296   .     A
O898   Cu901   1.927   .     S
C899   C903    1.469   .     S
C899   O969    1.298   .     S
C900   C904    1.465   .     S
C900   O1044   1.294   1_455 S
Cu901  N943    2.013   .     S
Cu901  Cu1050  2.679   1_455 S
Cu902  N944    2.013   .     S
Cu902  Cu975   2.679   .     S
C903   C907    1.397   .     A
C903   C909    1.396   .     A
C904   C908    1.394   .     A
C904   C910    1.396   .     A
C905   H925    1.082   .     S
C905   C913    1.413   .     A
C905   C907    1.395   .     A
C906   C914    1.411   .     A
C906   C908    1.388   .     A
C906   H926    1.079   .     S
C907   H998    1.082   .     S
C908   H1071   1.084   1_455 S
C909   H922    1.082   .     S
C909   C911    1.407   .     A
C910   C912    1.411   .     A
C910   H921    1.080   .     S
C911   C915    1.421   .     A
C911   C913    1.416   .     A
C912   C914    1.424   .     A
C912   C916    1.427   .     A
C913   C253    1.408   1_556 S
C915   C918    1.423   .     A
C915   C250    1.414   1_556 S
C916   C917    1.430   .     A
C917   C951    1.493   .     S
C917   C919    1.416   .     A
C918   C954    1.497   .     S
C918   C920    1.410   .     A
C919   N945    1.434   .     S
C920   N948    1.439   .     S
C920   C248    1.410   1_556 S
H923   C982    1.084   .     S
H924   C1055   1.082   1_455 S
C927   C957    1.488   .     S
C927   C1008   1.411   .     S
C928   C960    1.488   .     S
C928   C1152   1.392   .     S
C928   C1081   1.411   1_455 S
C929   H931    1.085   .     S
C929   C933    1.399   .     A
C929   C1149   1.393   .     S
C930   C934    1.398   .     A
C930   H932    1.085   .     S
C933   C1002   1.411   .     S
C934   C1075   1.411   1_455 S
C935   H937    1.082   .     S
C935   C939    1.417   .     A
C935   N944    1.367   .     A
C936   N943    1.367   .     A
C936   C940    1.417   .     A
C936   H938    1.082   .     S
C939   H941    1.082   .     S
C939   N943    1.367   .     A
C940   H942    1.082   .     S
C940   N944    1.367   .     A
N945   O947    1.301   .     A
N945   O946    1.301   .     A
N948   O950    1.301   .     A
N948   O949    1.300   .     A
C951   O953    1.221   .     D
C951   H952    1.086   .     S
C954   O956    1.220   .     D
C954   H955    1.085   .     S
C957   O959    1.221   .     D
C957   H958    1.084   .     S
C960   O962    1.221   .     D
C960   H961    1.082   .     S
O963   C967    1.290   .     A
O963   Cu975   1.957   .     S
O964   C968    1.290   .     A
O964   Cu976   1.957   .     S
O965   Cu976   1.958   .     S
O965   C1041   1.289   .     S
O966   Cu975   1.958   .     S
C967   C1008   1.445   .     S
C968   C1007   1.446   .     S
C968   O1040   1.289   .     S
O969   Cu975   1.933   .     S
O970   Cu976   1.933   .     S
O970   C1048   1.294   .     S
O971   Cu976   1.927   .     S
O971   C973    1.294   .     A
O972   C974    1.296   .     A
O972   Cu975   1.927   .     S
C973   C977    1.469   .     S
C973   O1043   1.298   .     S
C974   C978    1.465   .     S
Cu975  N1017   2.013   .     S
Cu976  N1018   2.013   .     S
Cu976  Cu1049  2.679   .     S
C977   C981    1.397   .     A
C977   C983    1.396   .     A
C978   C982    1.394   .     A
C978   C984    1.396   .     A
C979   H999    1.082   .     S
C979   C987    1.413   .     A
C979   C981    1.395   .     A
C980   C988    1.411   .     A
C980   C982    1.388   .     A
C980   H1000   1.079   .     S
C981   H1072   1.082   .     S
C983   H996    1.082   .     S
C983   C985    1.407   .     A
C984   C986    1.411   .     A
C984   H995    1.080   .     S
C985   C989    1.421   .     A
C985   C987    1.416   .     A
C986   C988    1.424   .     A
C986   C990    1.427   .     A
C987   C327    1.408   1_556 S
C989   C992    1.423   .     A
C989   C324    1.414   1_556 S
C990   C991    1.430   .     A
C991   C1025   1.493   .     S
C991   C993    1.416   .     A
C992   C1028   1.497   .     S
C992   C994    1.410   .     A
C993   N1019   1.434   .     S
C994   N1022   1.439   .     S
C994   C322    1.410   1_556 S
H997   C1056   1.084   .     S
C1001  C1031   1.488   .     S
C1001  C1082   1.411   .     S
C1002  C1034   1.488   .     S
C1002  C1226   1.392   .     S
C1003  H1005   1.085   .     S
C1003  C1007   1.399   .     A
C1003  C1223   1.393   .     S
C1004  C1008   1.398   .     A
C1004  H1006   1.085   .     S
C1007  C1076   1.411   .     S
C1009  H1011   1.082   .     S
C1009  C1013   1.417   .     A
C1009  N1018   1.367   .     A
C1010  N1017   1.367   .     A
C1010  C1014   1.417   .     A
C1010  H1012   1.082   .     S
C1013  H1015   1.082   .     S
C1013  N1017   1.367   .     A
C1014  H1016   1.082   .     S
C1014  N1018   1.367   .     A
N1019  O1021   1.301   .     A
N1019  O1020   1.301   .     A
N1022  O1024   1.301   .     A
N1022  O1023   1.300   .     A
C1025  O1027   1.221   .     D
C1025  H1026   1.086   .     S
C1028  O1030   1.220   .     D
C1028  H1029   1.085   .     S
C1031  O1033   1.221   .     D
C1031  H1032   1.084   .     S
C1034  O1036   1.221   .     D
C1034  H1035   1.082   .     S
O1037  C1041   1.290   .     A
O1037  Cu1049  1.957   .     S
O1038  C1042   1.290   .     A
O1038  Cu1050  1.957   .     S
O1039  Cu1050  1.958   .     S
O1039  C893    1.289   1_655 S
O1040  Cu1049  1.958   .     S
C1041  C1082   1.445   .     S
C1042  C1081   1.446   .     S
C1042  O892    1.289   1_655 S
O1043  Cu1049  1.933   .     S
O1044  Cu1050  1.933   .     S
O1044  C900    1.294   1_655 S
O1045  Cu1050  1.927   .     S
O1045  C1047   1.294   .     A
O1046  C1048   1.296   .     A
O1046  Cu1049  1.927   .     S
C1047  C1051   1.469   .     S
C1047  O895    1.298   1_655 S
C1048  C1052   1.465   .     S
Cu1049 N1091   2.013   .     S
Cu1050 N1092   2.013   .     S
Cu1050 Cu901   2.679   1_655 S
C1051  C1055   1.397   .     A
C1051  C1057   1.396   .     A
C1052  C1056   1.394   .     A
C1052  C1058   1.396   .     A
C1053  H1073   1.082   .     S
C1053  C1061   1.413   .     A
C1053  C1055   1.395   .     A
C1054  C1062   1.411   .     A
C1054  C1056   1.388   .     A
C1054  H1074   1.079   .     S
C1055  H924    1.082   1_655 S
C1057  H1070   1.082   .     S
C1057  C1059   1.407   .     A
C1058  C1060   1.411   .     A
C1058  H1069   1.080   .     S
C1059  C1063   1.421   .     A
C1059  C1061   1.416   .     A
C1060  C1062   1.424   .     A
C1060  C1064   1.427   .     A
C1061  C401    1.408   1_556 S
C1063  C1066   1.423   .     A
C1063  C398    1.414   1_556 S
C1064  C1065   1.430   .     A
C1065  C1099   1.493   .     S
C1065  C1067   1.416   .     A
C1066  C1102   1.497   .     S
C1066  C1068   1.410   .     A
C1067  N1093   1.434   .     S
C1068  N1096   1.439   .     S
C1068  C396    1.410   1_556 S
H1071  C908    1.084   1_655 S
C1075  C1105   1.488   .     S
C1075  C934    1.411   1_655 S
C1076  C1108   1.488   .     S
C1076  C1300   1.392   .     S
C1077  H1079   1.085   .     S
C1077  C1081   1.399   .     A
C1077  C1297   1.393   .     S
C1078  C1082   1.398   .     A
C1078  H1080   1.085   .     S
C1081  C928    1.411   1_655 S
C1083  H1085   1.082   .     S
C1083  C1087   1.417   .     A
C1083  N1092   1.367   .     A
C1084  N1091   1.367   .     A
C1084  C1088   1.417   .     A
C1084  H1086   1.082   .     S
C1087  H1089   1.082   .     S
C1087  N1091   1.367   .     A
C1088  H1090   1.082   .     S
C1088  N1092   1.367   .     A
N1093  O1095   1.301   .     A
N1093  O1094   1.301   .     A
N1096  O1098   1.301   .     A
N1096  O1097   1.300   .     A
C1099  O1101   1.221   .     D
C1099  H1100   1.086   .     S
C1102  O1104   1.220   .     D
C1102  H1103   1.085   .     S
C1105  O1107   1.221   .     D
C1105  H1106   1.084   .     S
C1108  O1110   1.221   .     D
C1108  H1109   1.082   .     S
O1111  C1115   1.290   .     A
O1111  Cu1123  1.957   .     S
O1112  C1116   1.290   .     A
O1112  Cu1124  1.957   .     S
O1113  Cu1124  1.958   .     S
O1113  C1189   1.289   .     S
O1114  Cu1123  1.958   .     S
O1114  C1264   1.289   1_455 S
C1115  C1156   1.445   .     S
C1115  O1261   1.289   1_455 S
C1116  C1155   1.446   .     S
C1116  O1188   1.289   .     S
O1117  Cu1123  1.933   .     S
O1117  C1269   1.298   1_455 S
O1118  Cu1124  1.933   .     S
O1118  C1196   1.294   .     S
O1119  Cu1124  1.927   .     S
O1119  C1121   1.294   .     A
O1120  C1122   1.296   .     A
O1120  Cu1123  1.927   .     S
C1121  C1125   1.469   .     S
C1121  O1191   1.298   .     S
C1122  C1126   1.465   .     S
C1122  O1266   1.294   1_455 S
Cu1123 N1165   2.013   .     S
Cu1123 Cu1272  2.679   1_455 S
Cu1124 N1166   2.013   .     S
Cu1124 Cu1197  2.679   .     S
C1125  C1129   1.397   .     A
C1125  C1131   1.396   .     A
C1126  C1130   1.394   .     A
C1126  C1132   1.396   .     A
C1127  H1147   1.082   .     S
C1127  C1135   1.413   .     A
C1127  C1129   1.395   .     A
C1128  C1136   1.411   .     A
C1128  C1130   1.388   .     A
C1128  H1148   1.079   .     S
C1129  H1220   1.082   .     S
C1130  H1293   1.084   1_455 S
C1131  H1144   1.082   .     S
C1131  C1133   1.407   .     A
C1132  C1134   1.411   .     A
C1132  H1143   1.080   .     S
C1133  C1137   1.421   .     A
C1133  C1135   1.416   .     A
C1134  C1136   1.424   .     A
C1134  C1138   1.427   .     A
C1135  C475    1.408   1_556 S
C1137  C1140   1.423   .     A
C1137  C472    1.414   1_556 S
C1138  C1139   1.430   .     A
C1139  C1173   1.493   .     S
C1139  C1141   1.416   .     A
C1140  C1176   1.497   .     S
C1140  C1142   1.410   .     A
C1141  N1167   1.434   .     S
C1142  N1170   1.439   .     S
C1142  C470    1.410   1_556 S
H1145  C1204   1.084   .     S
H1146  C1277   1.082   1_455 S
C1149  C1179   1.488   .     S
C1149  C1230   1.411   .     S
C1150  C1182   1.488   .     S
C1150  C708    1.392   1_565 S
C1150  C1303   1.411   1_455 S
C1151  H1153   1.085   .     S
C1151  C1155   1.399   .     A
C1151  C705    1.393   1_565 S
C1152  C1156   1.398   .     A
C1152  H1154   1.085   .     S
C1155  C1224   1.411   .     S
C1156  C1297   1.411   1_455 S
C1157  H1159   1.082   .     S
C1157  C1161   1.417   .     A
C1157  N1166   1.367   .     A
C1158  N1165   1.367   .     A
C1158  C1162   1.417   .     A
C1158  H1160   1.082   .     S
C1161  H1163   1.082   .     S
C1161  N1165   1.367   .     A
C1162  H1164   1.082   .     S
C1162  N1166   1.367   .     A
N1167  O1169   1.301   .     A
N1167  O1168   1.301   .     A
N1170  O1172   1.301   .     A
N1170  O1171   1.300   .     A
C1173  O1175   1.221   .     D
C1173  H1174   1.086   .     S
C1176  O1178   1.220   .     D
C1176  H1177   1.085   .     S
C1179  O1181   1.221   .     D
C1179  H1180   1.084   .     S
C1182  O1184   1.221   .     D
C1182  H1183   1.082   .     S
O1185  C1189   1.290   .     A
O1185  Cu1197  1.957   .     S
O1186  C1190   1.290   .     A
O1186  Cu1198  1.957   .     S
O1187  Cu1198  1.958   .     S
O1187  C1263   1.289   .     S
O1188  Cu1197  1.958   .     S
C1189  C1230   1.445   .     S
C1190  C1229   1.446   .     S
C1190  O1262   1.289   .     S
O1191  Cu1197  1.933   .     S
O1192  Cu1198  1.933   .     S
O1192  C1270   1.294   .     S
O1193  Cu1198  1.927   .     S
O1193  C1195   1.294   .     A
O1194  C1196   1.296   .     A
O1194  Cu1197  1.927   .     S
C1195  C1199   1.469   .     S
C1195  O1265   1.298   .     S
C1196  C1200   1.465   .     S
Cu1197 N1239   2.013   .     S
Cu1198 N1240   2.013   .     S
Cu1198 Cu1271  2.679   .     S
C1199  C1203   1.397   .     A
C1199  C1205   1.396   .     A
C1200  C1204   1.394   .     A
C1200  C1206   1.396   .     A
C1201  H1221   1.082   .     S
C1201  C1209   1.413   .     A
C1201  C1203   1.395   .     A
C1202  C1210   1.411   .     A
C1202  C1204   1.388   .     A
C1202  H1222   1.079   .     S
C1203  H1294   1.082   .     S
C1205  H1218   1.082   .     S
C1205  C1207   1.407   .     A
C1206  C1208   1.411   .     A
C1206  H1217   1.080   .     S
C1207  C1211   1.421   .     A
C1207  C1209   1.416   .     A
C1208  C1210   1.424   .     A
C1208  C1212   1.427   .     A
C1209  C549    1.408   1_556 S
C1211  C1214   1.423   .     A
C1211  C546    1.414   1_556 S
C1212  C1213   1.430   .     A
C1213  C1247   1.493   .     S
C1213  C1215   1.416   .     A
C1214  C1250   1.497   .     S
C1214  C1216   1.410   .     A
C1215  N1241   1.434   .     S
C1216  N1244   1.439   .     S
C1216  C544    1.410   1_556 S
H1219  C1278   1.084   .     S
C1223  C1253   1.488   .     S
C1223  C1304   1.411   .     S
C1224  C1256   1.488   .     S
C1224  C782    1.392   1_565 S
C1225  H1227   1.085   .     S
C1225  C1229   1.399   .     A
C1225  C779    1.393   1_565 S
C1226  C1230   1.398   .     A
C1226  H1228   1.085   .     S
C1229  C1298   1.411   .     S
C1231  H1233   1.082   .     S
C1231  C1235   1.417   .     A
C1231  N1240   1.367   .     A
C1232  N1239   1.367   .     A
C1232  C1236   1.417   .     A
C1232  H1234   1.082   .     S
C1235  H1237   1.082   .     S
C1235  N1239   1.367   .     A
C1236  H1238   1.082   .     S
C1236  N1240   1.367   .     A
N1241  O1243   1.301   .     A
N1241  O1242   1.301   .     A
N1244  O1246   1.301   .     A
N1244  O1245   1.300   .     A
C1247  O1249   1.221   .     D
C1247  H1248   1.086   .     S
C1250  O1252   1.220   .     D
C1250  H1251   1.085   .     S
C1253  O1255   1.221   .     D
C1253  H1254   1.084   .     S
C1256  O1258   1.221   .     D
C1256  H1257   1.082   .     S
O1259  C1263   1.290   .     A
O1259  Cu1271  1.957   .     S
O1260  C1264   1.290   .     A
O1260  Cu1272  1.957   .     S
O1261  Cu1272  1.958   .     S
O1261  C1115   1.289   1_655 S
O1262  Cu1271  1.958   .     S
C1263  C1304   1.445   .     S
C1264  C1303   1.446   .     S
C1264  O1114   1.289   1_655 S
O1265  Cu1271  1.933   .     S
O1266  Cu1272  1.933   .     S
O1266  C1122   1.294   1_655 S
O1267  Cu1272  1.927   .     S
O1267  C1269   1.294   .     A
O1268  C1270   1.296   .     A
O1268  Cu1271  1.927   .     S
C1269  C1273   1.469   .     S
C1269  O1117   1.298   1_655 S
C1270  C1274   1.465   .     S
Cu1271 N1313   2.013   .     S
Cu1272 N1314   2.013   .     S
Cu1272 Cu1123  2.679   1_655 S
C1273  C1277   1.397   .     A
C1273  C1279   1.396   .     A
C1274  C1278   1.394   .     A
C1274  C1280   1.396   .     A
C1275  H1295   1.082   .     S
C1275  C1283   1.413   .     A
C1275  C1277   1.395   .     A
C1276  C1284   1.411   .     A
C1276  C1278   1.388   .     A
C1276  H1296   1.079   .     S
C1277  H1146   1.082   1_655 S
C1279  H1292   1.082   .     S
C1279  C1281   1.407   .     A
C1280  C1282   1.411   .     A
C1280  H1291   1.080   .     S
C1281  C1285   1.421   .     A
C1281  C1283   1.416   .     A
C1282  C1284   1.424   .     A
C1282  C1286   1.427   .     A
C1283  C623    1.408   1_556 S
C1285  C1288   1.423   .     A
C1285  C620    1.414   1_556 S
C1286  C1287   1.430   .     A
C1287  C1321   1.493   .     S
C1287  C1289   1.416   .     A
C1288  C1324   1.497   .     S
C1288  C1290   1.410   .     A
C1289  N1315   1.434   .     S
C1290  N1318   1.439   .     S
C1290  C618    1.410   1_556 S
H1293  C1130   1.084   1_655 S
C1297  C1327   1.488   .     S
C1297  C1156   1.411   1_655 S
C1298  C1330   1.488   .     S
C1298  C856    1.392   1_565 S
C1299  H1301   1.085   .     S
C1299  C1303   1.399   .     A
C1299  C853    1.393   1_565 S
C1300  C1304   1.398   .     A
C1300  H1302   1.085   .     S
C1303  C1150   1.411   1_655 S
C1305  H1307   1.082   .     S
C1305  C1309   1.417   .     A
C1305  N1314   1.367   .     A
C1306  N1313   1.367   .     A
C1306  C1310   1.417   .     A
C1306  H1308   1.082   .     S
C1309  H1311   1.082   .     S
C1309  N1313   1.367   .     A
C1310  H1312   1.082   .     S
C1310  N1314   1.367   .     A
N1315  O1317   1.301   .     A
N1315  O1316   1.301   .     A
N1318  O1320   1.301   .     A
N1318  O1319   1.300   .     A
C1321  O1323   1.221   .     D
C1321  H1322   1.086   .     S
C1324  O1326   1.220   .     D
C1324  H1325   1.085   .     S
C1327  O1329   1.221   .     D
C1327  H1328   1.084   .     S
C1330  O1332   1.221   .     D
C1330  H1331   1.082   .     S
