data_str_m2_o2_o10_pcu_sym.148
_audit_creation_date              2020-01-03
_audit_creation_method            'Materials Studio'
_symmetry_space_group_name_H-M    'P1'
_symmetry_Int_Tables_number       1
_symmetry_cell_setting            triclinic
loop_
_symmetry_equiv_pos_as_xyz
  x,y,z
_cell_length_a                    26.1859
_cell_length_b                    30.2300
_cell_length_c                    27.7218
_cell_angle_alpha                 89.7801
_cell_angle_beta                  97.9611
_cell_angle_gamma                 90.1893
loop_
_atom_site_label
_atom_site_type_symbol
_atom_site_fract_x
_atom_site_fract_y
_atom_site_fract_z
_atom_site_U_iso_or_equiv
_atom_site_adp_type
_atom_site_occupancy
C1     C     0.16637   0.16496   0.25007   0.00000  Uiso   1.00
C2     C     0.16639   0.33507   0.24986   0.00000  Uiso   1.00
C3     C     0.20616   0.27091   0.05902   0.00000  Uiso   1.00
C4     C     0.14301   0.21567   0.44309   0.00000  Uiso   1.00
C5     C     0.20523   0.27083   0.10963   0.00000  Uiso   1.00
C6     C     0.14314   0.21650   0.39236   0.00000  Uiso   1.00
C7     C     0.12809   0.22918   0.09976   0.00000  Uiso   1.00
C8     C     0.19017   0.28347   0.39827   0.00000  Uiso   1.00
C9     C     0.12714   0.22904   0.04889   0.00000  Uiso   1.00
C10    C     0.19025   0.28427   0.44901   0.00000  Uiso   1.00
C11    C     0.16664   0.24996   0.02734   0.00000  Uiso   1.00
C12    C     0.16663   0.24997   0.47266   0.00000  Uiso   1.00
C13    C     0.06789   0.24998   0.23754   0.00000  Uiso   1.00
C14    C     0.26545   0.25001   0.26245   0.00000  Uiso   1.00
C15    C     0.01261   0.25000   0.23066   0.00000  Uiso   1.00
C16    C     0.32072   0.24999   0.26932   0.00000  Uiso   1.00
C17    C     0.13749   0.04824   0.28540   0.00000  Uiso   1.00
C18    C     0.14082   0.45183   0.20564   0.00000  Uiso   1.00
C19    C     0.14099   0.09442   0.28557   0.00000  Uiso   1.00
C20    C     0.14418   0.40566   0.20661   0.00000  Uiso   1.00
C21    C     0.16468   0.11677   0.25024   0.00000  Uiso   1.00
C22    C     0.16469   0.38331   0.24925   0.00000  Uiso   1.00
C23    C     0.18617   0.09301   0.21494   0.00000  Uiso   1.00
C24    C     0.18300   0.40716   0.29121   0.00000  Uiso   1.00
C25    C     0.18444   0.04716   0.21514   0.00000  Uiso   1.00
C26    C     0.18118   0.45301   0.29054   0.00000  Uiso   1.00
C27    C     0.15956   0.02438   0.24949   0.00000  Uiso   1.00
C28    C     0.15954   0.47573   0.24842   0.00000  Uiso   1.00
Cu29   Cu    0.16667   0.24999   0.29821   0.00000  Uiso   1.00
Cu30   Cu    0.16667   0.25000   0.20178   0.00000  Uiso   1.00
H31    H     0.32594   0.25003   0.19357   0.00000  Uiso   1.00
H32    H     0.00739   0.24995   0.30641   0.00000  Uiso   1.00
H33    H     0.12382   0.11308   0.31250   0.00000  Uiso   1.00
H34    H     0.12947   0.38702   0.17428   0.00000  Uiso   1.00
H35    H     0.20513   0.10988   0.18775   0.00000  Uiso   1.00
H36    H     0.19950   0.39039   0.32430   0.00000  Uiso   1.00
H37    H     0.20270   0.02929   0.18838   0.00000  Uiso   1.00
H38    H     0.19692   0.47093   0.32303   0.00000  Uiso   1.00
H39    H     0.23820   0.28686   0.04515   0.00000  Uiso   1.00
H40    H     0.12503   0.18788   0.45882   0.00000  Uiso   1.00
H41    H     0.23571   0.28740   0.13316   0.00000  Uiso   1.00
H42    H     0.12443   0.19004   0.37038   0.00000  Uiso   1.00
H43    H     0.09762   0.21264   0.11550   0.00000  Uiso   1.00
H44    H     0.20890   0.30994   0.38101   0.00000  Uiso   1.00
H45    H     0.09511   0.21306   0.02679   0.00000  Uiso   1.00
H46    H     0.20821   0.31206   0.46924   0.00000  Uiso   1.00
N47    N     0.16667   0.25001   0.12934   0.00000  Uiso   1.00
N48    N     0.16667   0.24999   0.37065   0.00000  Uiso   1.00
O49    O     0.16667   0.18572   0.29071   0.00000  Uiso   1.00
O50    O     0.16666   0.31427   0.20928   0.00000  Uiso   1.00
O51    O     0.16667   0.18573   0.20928   0.00000  Uiso   1.00
O52    O     0.16666   0.31427   0.29072   0.00000  Uiso   1.00
O53    O     0.09161   0.24999   0.28132   0.00000  Uiso   1.00
O54    O     0.24172   0.25000   0.21868   0.00000  Uiso   1.00
O55    O     0.09161   0.25000   0.19988   0.00000  Uiso   1.00
O56    O     0.24172   0.25000   0.30011   0.00000  Uiso   1.00
C57    C     0.11052   0.02631   0.32287   0.00000  Uiso   1.00
C58    C     0.07000   0.49618   0.30953   0.00000  Uiso   1.00
C59    C     0.04494   0.47588   0.34516   0.00000  Uiso   1.00
C60    C     0.05987   0.48556   0.39434   0.00000  Uiso   1.00
C61    C     0.09983   0.01563   0.40798   0.00000  Uiso   1.00
C62    C     0.12500   0.03602   0.37248   0.00000  Uiso   1.00
H63    H     0.05764   0.48842   0.27169   0.00000  Uiso   1.00
H64    H     0.01384   0.45269   0.33461   0.00000  Uiso   1.00
H65    H     0.04044   0.46981   0.42188   0.00000  Uiso   1.00
H66    H     0.11135   0.02312   0.44610   0.00000  Uiso   1.00
H67    H     0.15611   0.05906   0.38368   0.00000  Uiso   1.00
C68    C     0.11773   0.47371   0.15960   0.00000  Uiso   1.00
C69    C     0.07707   0.00409   0.15907   0.00000  Uiso   1.00
C70    C     0.05588   0.02447   0.11553   0.00000  Uiso   1.00
C71    C     0.07480   0.01457   0.07212   0.00000  Uiso   1.00
C72    C     0.11490   0.48422   0.07216   0.00000  Uiso   1.00
C73    C     0.13626   0.46381   0.11562   0.00000  Uiso   1.00
H74    H     0.06165   0.01203   0.19217   0.00000  Uiso   1.00
H75    H     0.02471   0.04791   0.11545   0.00000  Uiso   1.00
H76    H     0.05834   0.03036   0.03844   0.00000  Uiso   1.00
H77    H     0.12951   0.47656   0.03850   0.00000  Uiso   1.00
H78    H     0.16761   0.44060   0.11507   0.00000  Uiso   1.00
C79    C     0.49970   0.16496   0.25007   0.00000  Uiso   1.00
C80    C     0.49972   0.33507   0.24986   0.00000  Uiso   1.00
C81    C     0.53949   0.27091   0.05902   0.00000  Uiso   1.00
C82    C     0.47635   0.21567   0.44309   0.00000  Uiso   1.00
C83    C     0.53856   0.27083   0.10963   0.00000  Uiso   1.00
C84    C     0.47647   0.21650   0.39236   0.00000  Uiso   1.00
C85    C     0.46143   0.22918   0.09976   0.00000  Uiso   1.00
C86    C     0.52350   0.28347   0.39827   0.00000  Uiso   1.00
C87    C     0.46048   0.22904   0.04889   0.00000  Uiso   1.00
C88    C     0.52358   0.28427   0.44901   0.00000  Uiso   1.00
C89    C     0.49998   0.24996   0.02734   0.00000  Uiso   1.00
C90    C     0.49996   0.24997   0.47266   0.00000  Uiso   1.00
C91    C     0.40122   0.24998   0.23754   0.00000  Uiso   1.00
C92    C     0.59878   0.25001   0.26245   0.00000  Uiso   1.00
C93    C     0.34595   0.25000   0.23066   0.00000  Uiso   1.00
C94    C     0.65405   0.24999   0.26932   0.00000  Uiso   1.00
C95    C     0.47083   0.04824   0.28540   0.00000  Uiso   1.00
C96    C     0.47415   0.45183   0.20564   0.00000  Uiso   1.00
C97    C     0.47433   0.09442   0.28557   0.00000  Uiso   1.00
C98    C     0.47751   0.40566   0.20661   0.00000  Uiso   1.00
C99    C     0.49801   0.11677   0.25024   0.00000  Uiso   1.00
C100   C     0.49802   0.38331   0.24925   0.00000  Uiso   1.00
C101   C     0.51951   0.09301   0.21494   0.00000  Uiso   1.00
C102   C     0.51633   0.40716   0.29121   0.00000  Uiso   1.00
C103   C     0.51778   0.04716   0.21514   0.00000  Uiso   1.00
C104   C     0.51451   0.45301   0.29054   0.00000  Uiso   1.00
C105   C     0.49290   0.02438   0.24949   0.00000  Uiso   1.00
C106   C     0.49287   0.47573   0.24842   0.00000  Uiso   1.00
Cu107  Cu    0.50000   0.24999   0.29821   0.00000  Uiso   1.00
Cu108  Cu    0.50000   0.25000   0.20178   0.00000  Uiso   1.00
H109   H     0.65928   0.25003   0.19357   0.00000  Uiso   1.00
H110   H     0.34073   0.24995   0.30641   0.00000  Uiso   1.00
H111   H     0.45715   0.11308   0.31250   0.00000  Uiso   1.00
H112   H     0.46280   0.38702   0.17428   0.00000  Uiso   1.00
H113   H     0.53846   0.10988   0.18775   0.00000  Uiso   1.00
H114   H     0.53284   0.39039   0.32430   0.00000  Uiso   1.00
H115   H     0.53604   0.02929   0.18838   0.00000  Uiso   1.00
H116   H     0.53026   0.47093   0.32303   0.00000  Uiso   1.00
H117   H     0.57153   0.28686   0.04515   0.00000  Uiso   1.00
H118   H     0.45836   0.18788   0.45882   0.00000  Uiso   1.00
H119   H     0.56904   0.28740   0.13316   0.00000  Uiso   1.00
H120   H     0.45776   0.19004   0.37038   0.00000  Uiso   1.00
H121   H     0.43095   0.21264   0.11550   0.00000  Uiso   1.00
H122   H     0.54223   0.30994   0.38101   0.00000  Uiso   1.00
H123   H     0.42844   0.21306   0.02679   0.00000  Uiso   1.00
H124   H     0.54154   0.31206   0.46924   0.00000  Uiso   1.00
N125   N     0.50000   0.25001   0.12934   0.00000  Uiso   1.00
N126   N     0.50000   0.24999   0.37065   0.00000  Uiso   1.00
O127   O     0.50000   0.18572   0.29071   0.00000  Uiso   1.00
O128   O     0.50000   0.31427   0.20928   0.00000  Uiso   1.00
O129   O     0.50000   0.18573   0.20928   0.00000  Uiso   1.00
O130   O     0.50000   0.31427   0.29072   0.00000  Uiso   1.00
O131   O     0.42495   0.24999   0.28132   0.00000  Uiso   1.00
O132   O     0.57505   0.25000   0.21868   0.00000  Uiso   1.00
O133   O     0.42495   0.25000   0.19988   0.00000  Uiso   1.00
O134   O     0.57505   0.25000   0.30011   0.00000  Uiso   1.00
C135   C     0.44385   0.02631   0.32287   0.00000  Uiso   1.00
C136   C     0.40333   0.49618   0.30953   0.00000  Uiso   1.00
C137   C     0.37827   0.47588   0.34516   0.00000  Uiso   1.00
C138   C     0.39321   0.48556   0.39434   0.00000  Uiso   1.00
C139   C     0.43317   0.01563   0.40798   0.00000  Uiso   1.00
C140   C     0.45833   0.03602   0.37248   0.00000  Uiso   1.00
H141   H     0.39097   0.48842   0.27169   0.00000  Uiso   1.00
H142   H     0.34717   0.45269   0.33461   0.00000  Uiso   1.00
H143   H     0.37377   0.46981   0.42188   0.00000  Uiso   1.00
H144   H     0.44469   0.02312   0.44610   0.00000  Uiso   1.00
H145   H     0.48944   0.05906   0.38368   0.00000  Uiso   1.00
C146   C     0.45106   0.47371   0.15960   0.00000  Uiso   1.00
C147   C     0.41040   0.00409   0.15907   0.00000  Uiso   1.00
C148   C     0.38922   0.02447   0.11553   0.00000  Uiso   1.00
C149   C     0.40813   0.01457   0.07212   0.00000  Uiso   1.00
C150   C     0.44824   0.48422   0.07216   0.00000  Uiso   1.00
C151   C     0.46960   0.46381   0.11562   0.00000  Uiso   1.00
H152   H     0.39499   0.01203   0.19217   0.00000  Uiso   1.00
H153   H     0.35805   0.04791   0.11545   0.00000  Uiso   1.00
H154   H     0.39167   0.03036   0.03844   0.00000  Uiso   1.00
H155   H     0.46285   0.47656   0.03850   0.00000  Uiso   1.00
H156   H     0.50094   0.44060   0.11507   0.00000  Uiso   1.00
C157   C     0.83304   0.16496   0.25007   0.00000  Uiso   1.00
C158   C     0.83306   0.33507   0.24986   0.00000  Uiso   1.00
C159   C     0.87283   0.27091   0.05902   0.00000  Uiso   1.00
C160   C     0.80968   0.21567   0.44309   0.00000  Uiso   1.00
C161   C     0.87189   0.27083   0.10963   0.00000  Uiso   1.00
C162   C     0.80980   0.21650   0.39236   0.00000  Uiso   1.00
C163   C     0.79476   0.22918   0.09976   0.00000  Uiso   1.00
C164   C     0.85683   0.28347   0.39827   0.00000  Uiso   1.00
C165   C     0.79381   0.22904   0.04889   0.00000  Uiso   1.00
C166   C     0.85691   0.28427   0.44901   0.00000  Uiso   1.00
C167   C     0.83331   0.24996   0.02734   0.00000  Uiso   1.00
C168   C     0.83330   0.24997   0.47266   0.00000  Uiso   1.00
C169   C     0.73455   0.24998   0.23754   0.00000  Uiso   1.00
C170   C     0.93211   0.25001   0.26245   0.00000  Uiso   1.00
C171   C     0.67928   0.25000   0.23066   0.00000  Uiso   1.00
C172   C     0.98738   0.24999   0.26932   0.00000  Uiso   1.00
C173   C     0.80416   0.04824   0.28540   0.00000  Uiso   1.00
C174   C     0.80749   0.45183   0.20564   0.00000  Uiso   1.00
C175   C     0.80766   0.09442   0.28557   0.00000  Uiso   1.00
C176   C     0.81085   0.40566   0.20661   0.00000  Uiso   1.00
C177   C     0.83135   0.11677   0.25024   0.00000  Uiso   1.00
C178   C     0.83136   0.38331   0.24925   0.00000  Uiso   1.00
C179   C     0.85284   0.09301   0.21494   0.00000  Uiso   1.00
C180   C     0.84967   0.40716   0.29121   0.00000  Uiso   1.00
C181   C     0.85111   0.04716   0.21514   0.00000  Uiso   1.00
C182   C     0.84784   0.45301   0.29054   0.00000  Uiso   1.00
C183   C     0.82623   0.02438   0.24949   0.00000  Uiso   1.00
C184   C     0.82621   0.47573   0.24842   0.00000  Uiso   1.00
Cu185  Cu    0.83333   0.24999   0.29821   0.00000  Uiso   1.00
Cu186  Cu    0.83333   0.25000   0.20178   0.00000  Uiso   1.00
H187   H     0.99261   0.25003   0.19357   0.00000  Uiso   1.00
H188   H     0.67406   0.24995   0.30641   0.00000  Uiso   1.00
H189   H     0.79049   0.11308   0.31250   0.00000  Uiso   1.00
H190   H     0.79613   0.38702   0.17428   0.00000  Uiso   1.00
H191   H     0.87180   0.10988   0.18775   0.00000  Uiso   1.00
H192   H     0.86617   0.39039   0.32430   0.00000  Uiso   1.00
H193   H     0.86937   0.02929   0.18838   0.00000  Uiso   1.00
H194   H     0.86359   0.47093   0.32303   0.00000  Uiso   1.00
H195   H     0.90486   0.28686   0.04515   0.00000  Uiso   1.00
H196   H     0.79170   0.18788   0.45882   0.00000  Uiso   1.00
H197   H     0.90238   0.28740   0.13316   0.00000  Uiso   1.00
H198   H     0.79110   0.19004   0.37038   0.00000  Uiso   1.00
H199   H     0.76428   0.21264   0.11550   0.00000  Uiso   1.00
H200   H     0.87556   0.30994   0.38101   0.00000  Uiso   1.00
H201   H     0.76178   0.21306   0.02679   0.00000  Uiso   1.00
H202   H     0.87487   0.31206   0.46924   0.00000  Uiso   1.00
N203   N     0.83333   0.25001   0.12934   0.00000  Uiso   1.00
N204   N     0.83333   0.24999   0.37065   0.00000  Uiso   1.00
O205   O     0.83334   0.18572   0.29071   0.00000  Uiso   1.00
O206   O     0.83333   0.31427   0.20928   0.00000  Uiso   1.00
O207   O     0.83334   0.18573   0.20928   0.00000  Uiso   1.00
O208   O     0.83333   0.31427   0.29072   0.00000  Uiso   1.00
O209   O     0.75828   0.24999   0.28132   0.00000  Uiso   1.00
O210   O     0.90839   0.25000   0.21868   0.00000  Uiso   1.00
O211   O     0.75828   0.25000   0.19988   0.00000  Uiso   1.00
O212   O     0.90839   0.25000   0.30011   0.00000  Uiso   1.00
C213   C     0.77718   0.02631   0.32287   0.00000  Uiso   1.00
C214   C     0.73667   0.49618   0.30953   0.00000  Uiso   1.00
C215   C     0.71160   0.47588   0.34516   0.00000  Uiso   1.00
C216   C     0.72654   0.48556   0.39434   0.00000  Uiso   1.00
C217   C     0.76650   0.01563   0.40798   0.00000  Uiso   1.00
C218   C     0.79167   0.03602   0.37248   0.00000  Uiso   1.00
H219   H     0.72430   0.48842   0.27169   0.00000  Uiso   1.00
H220   H     0.68051   0.45269   0.33461   0.00000  Uiso   1.00
H221   H     0.70710   0.46981   0.42188   0.00000  Uiso   1.00
H222   H     0.77802   0.02312   0.44610   0.00000  Uiso   1.00
H223   H     0.82278   0.05906   0.38368   0.00000  Uiso   1.00
C224   C     0.78440   0.47371   0.15960   0.00000  Uiso   1.00
C225   C     0.74373   0.00409   0.15907   0.00000  Uiso   1.00
C226   C     0.72255   0.02447   0.11553   0.00000  Uiso   1.00
C227   C     0.74146   0.01457   0.07212   0.00000  Uiso   1.00
C228   C     0.78157   0.48422   0.07216   0.00000  Uiso   1.00
C229   C     0.80293   0.46381   0.11562   0.00000  Uiso   1.00
H230   H     0.72832   0.01203   0.19217   0.00000  Uiso   1.00
H231   H     0.69138   0.04791   0.11545   0.00000  Uiso   1.00
H232   H     0.72500   0.03036   0.03844   0.00000  Uiso   1.00
H233   H     0.79618   0.47656   0.03850   0.00000  Uiso   1.00
H234   H     0.83427   0.44060   0.11507   0.00000  Uiso   1.00
C235   C     0.16637   0.66496   0.25007   0.00000  Uiso   1.00
C236   C     0.16639   0.83507   0.24986   0.00000  Uiso   1.00
C237   C     0.20616   0.77091   0.05902   0.00000  Uiso   1.00
C238   C     0.14301   0.71567   0.44309   0.00000  Uiso   1.00
C239   C     0.20523   0.77083   0.10963   0.00000  Uiso   1.00
C240   C     0.14314   0.71650   0.39236   0.00000  Uiso   1.00
C241   C     0.12809   0.72918   0.09976   0.00000  Uiso   1.00
C242   C     0.19017   0.78347   0.39827   0.00000  Uiso   1.00
C243   C     0.12714   0.72904   0.04889   0.00000  Uiso   1.00
C244   C     0.19025   0.78427   0.44901   0.00000  Uiso   1.00
C245   C     0.16664   0.74996   0.02734   0.00000  Uiso   1.00
C246   C     0.16663   0.74997   0.47266   0.00000  Uiso   1.00
C247   C     0.06789   0.74998   0.23754   0.00000  Uiso   1.00
C248   C     0.26545   0.75001   0.26245   0.00000  Uiso   1.00
C249   C     0.01261   0.75000   0.23066   0.00000  Uiso   1.00
C250   C     0.32072   0.74999   0.26932   0.00000  Uiso   1.00
C251   C     0.13749   0.54824   0.28540   0.00000  Uiso   1.00
C252   C     0.14082   0.95183   0.20564   0.00000  Uiso   1.00
C253   C     0.14099   0.59442   0.28557   0.00000  Uiso   1.00
C254   C     0.14418   0.90566   0.20661   0.00000  Uiso   1.00
C255   C     0.16468   0.61677   0.25024   0.00000  Uiso   1.00
C256   C     0.16469   0.88331   0.24925   0.00000  Uiso   1.00
C257   C     0.18617   0.59301   0.21494   0.00000  Uiso   1.00
C258   C     0.18300   0.90716   0.29121   0.00000  Uiso   1.00
C259   C     0.18444   0.54716   0.21514   0.00000  Uiso   1.00
C260   C     0.18118   0.95301   0.29054   0.00000  Uiso   1.00
C261   C     0.15956   0.52438   0.24949   0.00000  Uiso   1.00
C262   C     0.15954   0.97573   0.24842   0.00000  Uiso   1.00
Cu263  Cu    0.16667   0.74999   0.29821   0.00000  Uiso   1.00
Cu264  Cu    0.16667   0.75000   0.20178   0.00000  Uiso   1.00
H265   H     0.32594   0.75003   0.19357   0.00000  Uiso   1.00
H266   H     0.00739   0.74995   0.30641   0.00000  Uiso   1.00
H267   H     0.12382   0.61308   0.31250   0.00000  Uiso   1.00
H268   H     0.12947   0.88702   0.17428   0.00000  Uiso   1.00
H269   H     0.20513   0.60988   0.18775   0.00000  Uiso   1.00
H270   H     0.19950   0.89039   0.32430   0.00000  Uiso   1.00
H271   H     0.20270   0.52929   0.18838   0.00000  Uiso   1.00
H272   H     0.19692   0.97093   0.32303   0.00000  Uiso   1.00
H273   H     0.23820   0.78686   0.04515   0.00000  Uiso   1.00
H274   H     0.12503   0.68788   0.45882   0.00000  Uiso   1.00
H275   H     0.23571   0.78740   0.13316   0.00000  Uiso   1.00
H276   H     0.12443   0.69004   0.37038   0.00000  Uiso   1.00
H277   H     0.09762   0.71264   0.11550   0.00000  Uiso   1.00
H278   H     0.20890   0.80994   0.38101   0.00000  Uiso   1.00
H279   H     0.09511   0.71306   0.02679   0.00000  Uiso   1.00
H280   H     0.20821   0.81206   0.46924   0.00000  Uiso   1.00
N281   N     0.16667   0.75001   0.12934   0.00000  Uiso   1.00
N282   N     0.16667   0.74999   0.37065   0.00000  Uiso   1.00
O283   O     0.16667   0.68572   0.29071   0.00000  Uiso   1.00
O284   O     0.16666   0.81427   0.20928   0.00000  Uiso   1.00
O285   O     0.16667   0.68573   0.20928   0.00000  Uiso   1.00
O286   O     0.16666   0.81427   0.29072   0.00000  Uiso   1.00
O287   O     0.09161   0.74999   0.28132   0.00000  Uiso   1.00
O288   O     0.24172   0.75000   0.21868   0.00000  Uiso   1.00
O289   O     0.09161   0.75000   0.19988   0.00000  Uiso   1.00
O290   O     0.24172   0.75000   0.30011   0.00000  Uiso   1.00
C291   C     0.11052   0.52631   0.32287   0.00000  Uiso   1.00
C292   C     0.07000   0.99618   0.30953   0.00000  Uiso   1.00
C293   C     0.04494   0.97588   0.34516   0.00000  Uiso   1.00
C294   C     0.05987   0.98556   0.39434   0.00000  Uiso   1.00
C295   C     0.09983   0.51563   0.40798   0.00000  Uiso   1.00
C296   C     0.12500   0.53602   0.37248   0.00000  Uiso   1.00
H297   H     0.05764   0.98842   0.27169   0.00000  Uiso   1.00
H298   H     0.01384   0.95269   0.33461   0.00000  Uiso   1.00
H299   H     0.04044   0.96981   0.42188   0.00000  Uiso   1.00
H300   H     0.11135   0.52312   0.44610   0.00000  Uiso   1.00
H301   H     0.15611   0.55906   0.38368   0.00000  Uiso   1.00
C302   C     0.11773   0.97371   0.15960   0.00000  Uiso   1.00
C303   C     0.07707   0.50409   0.15907   0.00000  Uiso   1.00
C304   C     0.05588   0.52447   0.11553   0.00000  Uiso   1.00
C305   C     0.07480   0.51457   0.07212   0.00000  Uiso   1.00
C306   C     0.11490   0.98422   0.07216   0.00000  Uiso   1.00
C307   C     0.13626   0.96381   0.11562   0.00000  Uiso   1.00
H308   H     0.06165   0.51203   0.19217   0.00000  Uiso   1.00
H309   H     0.02471   0.54791   0.11545   0.00000  Uiso   1.00
H310   H     0.05834   0.53036   0.03844   0.00000  Uiso   1.00
H311   H     0.12951   0.97656   0.03850   0.00000  Uiso   1.00
H312   H     0.16761   0.94060   0.11507   0.00000  Uiso   1.00
C313   C     0.49970   0.66496   0.25007   0.00000  Uiso   1.00
C314   C     0.49972   0.83507   0.24986   0.00000  Uiso   1.00
C315   C     0.53949   0.77091   0.05902   0.00000  Uiso   1.00
C316   C     0.47635   0.71567   0.44309   0.00000  Uiso   1.00
C317   C     0.53856   0.77083   0.10963   0.00000  Uiso   1.00
C318   C     0.47647   0.71650   0.39236   0.00000  Uiso   1.00
C319   C     0.46143   0.72918   0.09976   0.00000  Uiso   1.00
C320   C     0.52350   0.78347   0.39827   0.00000  Uiso   1.00
C321   C     0.46048   0.72904   0.04889   0.00000  Uiso   1.00
C322   C     0.52358   0.78427   0.44901   0.00000  Uiso   1.00
C323   C     0.49998   0.74996   0.02734   0.00000  Uiso   1.00
C324   C     0.49996   0.74997   0.47266   0.00000  Uiso   1.00
C325   C     0.40122   0.74998   0.23754   0.00000  Uiso   1.00
C326   C     0.59878   0.75001   0.26245   0.00000  Uiso   1.00
C327   C     0.34595   0.75000   0.23066   0.00000  Uiso   1.00
C328   C     0.65405   0.74999   0.26932   0.00000  Uiso   1.00
C329   C     0.47083   0.54824   0.28540   0.00000  Uiso   1.00
C330   C     0.47415   0.95183   0.20564   0.00000  Uiso   1.00
C331   C     0.47433   0.59442   0.28557   0.00000  Uiso   1.00
C332   C     0.47751   0.90566   0.20661   0.00000  Uiso   1.00
C333   C     0.49801   0.61677   0.25024   0.00000  Uiso   1.00
C334   C     0.49802   0.88331   0.24925   0.00000  Uiso   1.00
C335   C     0.51951   0.59301   0.21494   0.00000  Uiso   1.00
C336   C     0.51633   0.90716   0.29121   0.00000  Uiso   1.00
C337   C     0.51778   0.54716   0.21514   0.00000  Uiso   1.00
C338   C     0.51451   0.95301   0.29054   0.00000  Uiso   1.00
C339   C     0.49290   0.52438   0.24949   0.00000  Uiso   1.00
C340   C     0.49287   0.97573   0.24842   0.00000  Uiso   1.00
Cu341  Cu    0.50000   0.74999   0.29821   0.00000  Uiso   1.00
Cu342  Cu    0.50000   0.75000   0.20178   0.00000  Uiso   1.00
H343   H     0.65928   0.75003   0.19357   0.00000  Uiso   1.00
H344   H     0.34073   0.74995   0.30641   0.00000  Uiso   1.00
H345   H     0.45715   0.61308   0.31250   0.00000  Uiso   1.00
H346   H     0.46280   0.88702   0.17428   0.00000  Uiso   1.00
H347   H     0.53846   0.60988   0.18775   0.00000  Uiso   1.00
H348   H     0.53284   0.89039   0.32430   0.00000  Uiso   1.00
H349   H     0.53604   0.52929   0.18838   0.00000  Uiso   1.00
H350   H     0.53026   0.97093   0.32303   0.00000  Uiso   1.00
H351   H     0.57153   0.78686   0.04515   0.00000  Uiso   1.00
H352   H     0.45836   0.68788   0.45882   0.00000  Uiso   1.00
H353   H     0.56904   0.78740   0.13316   0.00000  Uiso   1.00
H354   H     0.45776   0.69004   0.37038   0.00000  Uiso   1.00
H355   H     0.43095   0.71264   0.11550   0.00000  Uiso   1.00
H356   H     0.54223   0.80994   0.38101   0.00000  Uiso   1.00
H357   H     0.42844   0.71306   0.02679   0.00000  Uiso   1.00
H358   H     0.54154   0.81206   0.46924   0.00000  Uiso   1.00
N359   N     0.50000   0.75001   0.12934   0.00000  Uiso   1.00
N360   N     0.50000   0.74999   0.37065   0.00000  Uiso   1.00
O361   O     0.50000   0.68572   0.29071   0.00000  Uiso   1.00
O362   O     0.50000   0.81427   0.20928   0.00000  Uiso   1.00
O363   O     0.50000   0.68573   0.20928   0.00000  Uiso   1.00
O364   O     0.50000   0.81427   0.29072   0.00000  Uiso   1.00
O365   O     0.42495   0.74999   0.28132   0.00000  Uiso   1.00
O366   O     0.57505   0.75000   0.21868   0.00000  Uiso   1.00
O367   O     0.42495   0.75000   0.19988   0.00000  Uiso   1.00
O368   O     0.57505   0.75000   0.30011   0.00000  Uiso   1.00
C369   C     0.44385   0.52631   0.32287   0.00000  Uiso   1.00
C370   C     0.40333   0.99618   0.30953   0.00000  Uiso   1.00
C371   C     0.37827   0.97588   0.34516   0.00000  Uiso   1.00
C372   C     0.39321   0.98556   0.39434   0.00000  Uiso   1.00
C373   C     0.43317   0.51563   0.40798   0.00000  Uiso   1.00
C374   C     0.45833   0.53602   0.37248   0.00000  Uiso   1.00
H375   H     0.39097   0.98842   0.27169   0.00000  Uiso   1.00
H376   H     0.34717   0.95269   0.33461   0.00000  Uiso   1.00
H377   H     0.37377   0.96981   0.42188   0.00000  Uiso   1.00
H378   H     0.44469   0.52312   0.44610   0.00000  Uiso   1.00
H379   H     0.48944   0.55906   0.38368   0.00000  Uiso   1.00
C380   C     0.45106   0.97371   0.15960   0.00000  Uiso   1.00
C381   C     0.41040   0.50409   0.15907   0.00000  Uiso   1.00
C382   C     0.38922   0.52447   0.11553   0.00000  Uiso   1.00
C383   C     0.40813   0.51457   0.07212   0.00000  Uiso   1.00
C384   C     0.44824   0.98422   0.07216   0.00000  Uiso   1.00
C385   C     0.46960   0.96381   0.11562   0.00000  Uiso   1.00
H386   H     0.39499   0.51203   0.19217   0.00000  Uiso   1.00
H387   H     0.35805   0.54791   0.11545   0.00000  Uiso   1.00
H388   H     0.39167   0.53036   0.03844   0.00000  Uiso   1.00
H389   H     0.46285   0.97656   0.03850   0.00000  Uiso   1.00
H390   H     0.50094   0.94060   0.11507   0.00000  Uiso   1.00
C391   C     0.83304   0.66496   0.25007   0.00000  Uiso   1.00
C392   C     0.83306   0.83507   0.24986   0.00000  Uiso   1.00
C393   C     0.87283   0.77091   0.05902   0.00000  Uiso   1.00
C394   C     0.80968   0.71567   0.44309   0.00000  Uiso   1.00
C395   C     0.87189   0.77083   0.10963   0.00000  Uiso   1.00
C396   C     0.80980   0.71650   0.39236   0.00000  Uiso   1.00
C397   C     0.79476   0.72918   0.09976   0.00000  Uiso   1.00
C398   C     0.85683   0.78347   0.39827   0.00000  Uiso   1.00
C399   C     0.79381   0.72904   0.04889   0.00000  Uiso   1.00
C400   C     0.85691   0.78427   0.44901   0.00000  Uiso   1.00
C401   C     0.83331   0.74996   0.02734   0.00000  Uiso   1.00
C402   C     0.83330   0.74997   0.47266   0.00000  Uiso   1.00
C403   C     0.73455   0.74998   0.23754   0.00000  Uiso   1.00
C404   C     0.93211   0.75001   0.26245   0.00000  Uiso   1.00
C405   C     0.67928   0.75000   0.23066   0.00000  Uiso   1.00
C406   C     0.98738   0.74999   0.26932   0.00000  Uiso   1.00
C407   C     0.80416   0.54824   0.28540   0.00000  Uiso   1.00
C408   C     0.80749   0.95183   0.20564   0.00000  Uiso   1.00
C409   C     0.80766   0.59442   0.28557   0.00000  Uiso   1.00
C410   C     0.81085   0.90566   0.20661   0.00000  Uiso   1.00
C411   C     0.83135   0.61677   0.25024   0.00000  Uiso   1.00
C412   C     0.83136   0.88331   0.24925   0.00000  Uiso   1.00
C413   C     0.85284   0.59301   0.21494   0.00000  Uiso   1.00
C414   C     0.84967   0.90716   0.29121   0.00000  Uiso   1.00
C415   C     0.85111   0.54716   0.21514   0.00000  Uiso   1.00
C416   C     0.84784   0.95301   0.29054   0.00000  Uiso   1.00
C417   C     0.82623   0.52438   0.24949   0.00000  Uiso   1.00
C418   C     0.82621   0.97573   0.24842   0.00000  Uiso   1.00
Cu419  Cu    0.83333   0.74999   0.29821   0.00000  Uiso   1.00
Cu420  Cu    0.83333   0.75000   0.20178   0.00000  Uiso   1.00
H421   H     0.99261   0.75003   0.19357   0.00000  Uiso   1.00
H422   H     0.67406   0.74995   0.30641   0.00000  Uiso   1.00
H423   H     0.79049   0.61308   0.31250   0.00000  Uiso   1.00
H424   H     0.79613   0.88702   0.17428   0.00000  Uiso   1.00
H425   H     0.87180   0.60988   0.18775   0.00000  Uiso   1.00
H426   H     0.86617   0.89039   0.32430   0.00000  Uiso   1.00
H427   H     0.86937   0.52929   0.18838   0.00000  Uiso   1.00
H428   H     0.86359   0.97093   0.32303   0.00000  Uiso   1.00
H429   H     0.90486   0.78686   0.04515   0.00000  Uiso   1.00
H430   H     0.79170   0.68788   0.45882   0.00000  Uiso   1.00
H431   H     0.90238   0.78740   0.13316   0.00000  Uiso   1.00
H432   H     0.79110   0.69004   0.37038   0.00000  Uiso   1.00
H433   H     0.76428   0.71264   0.11550   0.00000  Uiso   1.00
H434   H     0.87556   0.80994   0.38101   0.00000  Uiso   1.00
H435   H     0.76178   0.71306   0.02679   0.00000  Uiso   1.00
H436   H     0.87487   0.81206   0.46924   0.00000  Uiso   1.00
N437   N     0.83333   0.75001   0.12934   0.00000  Uiso   1.00
N438   N     0.83333   0.74999   0.37065   0.00000  Uiso   1.00
O439   O     0.83334   0.68572   0.29071   0.00000  Uiso   1.00
O440   O     0.83333   0.81427   0.20928   0.00000  Uiso   1.00
O441   O     0.83334   0.68573   0.20928   0.00000  Uiso   1.00
O442   O     0.83333   0.81427   0.29072   0.00000  Uiso   1.00
O443   O     0.75828   0.74999   0.28132   0.00000  Uiso   1.00
O444   O     0.90839   0.75000   0.21868   0.00000  Uiso   1.00
O445   O     0.75828   0.75000   0.19988   0.00000  Uiso   1.00
O446   O     0.90839   0.75000   0.30011   0.00000  Uiso   1.00
C447   C     0.77718   0.52631   0.32287   0.00000  Uiso   1.00
C448   C     0.73667   0.99618   0.30953   0.00000  Uiso   1.00
C449   C     0.71160   0.97588   0.34516   0.00000  Uiso   1.00
C450   C     0.72654   0.98556   0.39434   0.00000  Uiso   1.00
C451   C     0.76650   0.51563   0.40798   0.00000  Uiso   1.00
C452   C     0.79167   0.53602   0.37248   0.00000  Uiso   1.00
H453   H     0.72430   0.98842   0.27169   0.00000  Uiso   1.00
H454   H     0.68051   0.95269   0.33461   0.00000  Uiso   1.00
H455   H     0.70710   0.96981   0.42188   0.00000  Uiso   1.00
H456   H     0.77802   0.52312   0.44610   0.00000  Uiso   1.00
H457   H     0.82278   0.55906   0.38368   0.00000  Uiso   1.00
C458   C     0.78440   0.97371   0.15960   0.00000  Uiso   1.00
C459   C     0.74373   0.50409   0.15907   0.00000  Uiso   1.00
C460   C     0.72255   0.52447   0.11553   0.00000  Uiso   1.00
C461   C     0.74146   0.51457   0.07212   0.00000  Uiso   1.00
C462   C     0.78157   0.98422   0.07216   0.00000  Uiso   1.00
C463   C     0.80293   0.96381   0.11562   0.00000  Uiso   1.00
H464   H     0.72832   0.51203   0.19217   0.00000  Uiso   1.00
H465   H     0.69138   0.54791   0.11545   0.00000  Uiso   1.00
H466   H     0.72500   0.53036   0.03844   0.00000  Uiso   1.00
H467   H     0.79618   0.97656   0.03850   0.00000  Uiso   1.00
H468   H     0.83427   0.94060   0.11507   0.00000  Uiso   1.00
C469   C     0.16637   0.16496   0.75007   0.00000  Uiso   1.00
C470   C     0.16639   0.33507   0.74986   0.00000  Uiso   1.00
C471   C     0.20616   0.27091   0.55902   0.00000  Uiso   1.00
C472   C     0.14301   0.21567   0.94309   0.00000  Uiso   1.00
C473   C     0.20523   0.27083   0.60963   0.00000  Uiso   1.00
C474   C     0.14314   0.21650   0.89236   0.00000  Uiso   1.00
C475   C     0.12809   0.22918   0.59976   0.00000  Uiso   1.00
C476   C     0.19017   0.28347   0.89827   0.00000  Uiso   1.00
C477   C     0.12714   0.22904   0.54889   0.00000  Uiso   1.00
C478   C     0.19025   0.28427   0.94901   0.00000  Uiso   1.00
C479   C     0.16664   0.24996   0.52734   0.00000  Uiso   1.00
C480   C     0.16663   0.24997   0.97266   0.00000  Uiso   1.00
C481   C     0.06789   0.24998   0.73754   0.00000  Uiso   1.00
C482   C     0.26545   0.25001   0.76245   0.00000  Uiso   1.00
C483   C     0.01261   0.25000   0.73066   0.00000  Uiso   1.00
C484   C     0.32072   0.24999   0.76932   0.00000  Uiso   1.00
C485   C     0.13749   0.04824   0.78540   0.00000  Uiso   1.00
C486   C     0.14082   0.45183   0.70564   0.00000  Uiso   1.00
C487   C     0.14099   0.09442   0.78557   0.00000  Uiso   1.00
C488   C     0.14418   0.40566   0.70661   0.00000  Uiso   1.00
C489   C     0.16468   0.11677   0.75024   0.00000  Uiso   1.00
C490   C     0.16469   0.38331   0.74925   0.00000  Uiso   1.00
C491   C     0.18617   0.09301   0.71494   0.00000  Uiso   1.00
C492   C     0.18300   0.40716   0.79121   0.00000  Uiso   1.00
C493   C     0.18444   0.04716   0.71514   0.00000  Uiso   1.00
C494   C     0.18118   0.45301   0.79054   0.00000  Uiso   1.00
C495   C     0.15956   0.02438   0.74949   0.00000  Uiso   1.00
C496   C     0.15954   0.47573   0.74842   0.00000  Uiso   1.00
Cu497  Cu    0.16667   0.24999   0.79821   0.00000  Uiso   1.00
Cu498  Cu    0.16667   0.25000   0.70178   0.00000  Uiso   1.00
H499   H     0.32594   0.25003   0.69357   0.00000  Uiso   1.00
H500   H     0.00739   0.24995   0.80641   0.00000  Uiso   1.00
H501   H     0.12382   0.11308   0.81250   0.00000  Uiso   1.00
H502   H     0.12947   0.38702   0.67428   0.00000  Uiso   1.00
H503   H     0.20513   0.10988   0.68775   0.00000  Uiso   1.00
H504   H     0.19950   0.39039   0.82430   0.00000  Uiso   1.00
H505   H     0.20270   0.02929   0.68838   0.00000  Uiso   1.00
H506   H     0.19692   0.47093   0.82303   0.00000  Uiso   1.00
H507   H     0.23820   0.28686   0.54515   0.00000  Uiso   1.00
H508   H     0.12503   0.18788   0.95882   0.00000  Uiso   1.00
H509   H     0.23571   0.28740   0.63316   0.00000  Uiso   1.00
H510   H     0.12443   0.19004   0.87038   0.00000  Uiso   1.00
H511   H     0.09762   0.21264   0.61550   0.00000  Uiso   1.00
H512   H     0.20890   0.30994   0.88101   0.00000  Uiso   1.00
H513   H     0.09511   0.21306   0.52679   0.00000  Uiso   1.00
H514   H     0.20821   0.31206   0.96924   0.00000  Uiso   1.00
N515   N     0.16667   0.25001   0.62934   0.00000  Uiso   1.00
N516   N     0.16667   0.24999   0.87065   0.00000  Uiso   1.00
O517   O     0.16667   0.18572   0.79071   0.00000  Uiso   1.00
O518   O     0.16666   0.31427   0.70928   0.00000  Uiso   1.00
O519   O     0.16667   0.18573   0.70928   0.00000  Uiso   1.00
O520   O     0.16666   0.31427   0.79072   0.00000  Uiso   1.00
O521   O     0.09161   0.24999   0.78132   0.00000  Uiso   1.00
O522   O     0.24172   0.25000   0.71868   0.00000  Uiso   1.00
O523   O     0.09161   0.25000   0.69988   0.00000  Uiso   1.00
O524   O     0.24172   0.25000   0.80011   0.00000  Uiso   1.00
C525   C     0.11052   0.02631   0.82287   0.00000  Uiso   1.00
C526   C     0.07000   0.49618   0.80953   0.00000  Uiso   1.00
C527   C     0.04494   0.47588   0.84516   0.00000  Uiso   1.00
C528   C     0.05987   0.48556   0.89434   0.00000  Uiso   1.00
C529   C     0.09983   0.01563   0.90798   0.00000  Uiso   1.00
C530   C     0.12500   0.03602   0.87248   0.00000  Uiso   1.00
H531   H     0.05764   0.48842   0.77169   0.00000  Uiso   1.00
H532   H     0.01384   0.45269   0.83461   0.00000  Uiso   1.00
H533   H     0.04044   0.46981   0.92188   0.00000  Uiso   1.00
H534   H     0.11135   0.02312   0.94610   0.00000  Uiso   1.00
H535   H     0.15611   0.05906   0.88368   0.00000  Uiso   1.00
C536   C     0.11773   0.47371   0.65960   0.00000  Uiso   1.00
C537   C     0.07707   0.00409   0.65907   0.00000  Uiso   1.00
C538   C     0.05588   0.02447   0.61553   0.00000  Uiso   1.00
C539   C     0.07480   0.01457   0.57212   0.00000  Uiso   1.00
C540   C     0.11490   0.48422   0.57216   0.00000  Uiso   1.00
C541   C     0.13626   0.46381   0.61562   0.00000  Uiso   1.00
H542   H     0.06165   0.01203   0.69217   0.00000  Uiso   1.00
H543   H     0.02471   0.04791   0.61545   0.00000  Uiso   1.00
H544   H     0.05834   0.03036   0.53844   0.00000  Uiso   1.00
H545   H     0.12951   0.47656   0.53850   0.00000  Uiso   1.00
H546   H     0.16761   0.44060   0.61507   0.00000  Uiso   1.00
C547   C     0.49970   0.16496   0.75007   0.00000  Uiso   1.00
C548   C     0.49972   0.33507   0.74986   0.00000  Uiso   1.00
C549   C     0.53949   0.27091   0.55902   0.00000  Uiso   1.00
C550   C     0.47635   0.21567   0.94309   0.00000  Uiso   1.00
C551   C     0.53856   0.27083   0.60963   0.00000  Uiso   1.00
C552   C     0.47647   0.21650   0.89236   0.00000  Uiso   1.00
C553   C     0.46143   0.22918   0.59976   0.00000  Uiso   1.00
C554   C     0.52350   0.28347   0.89827   0.00000  Uiso   1.00
C555   C     0.46048   0.22904   0.54889   0.00000  Uiso   1.00
C556   C     0.52358   0.28427   0.94901   0.00000  Uiso   1.00
C557   C     0.49998   0.24996   0.52734   0.00000  Uiso   1.00
C558   C     0.49996   0.24997   0.97266   0.00000  Uiso   1.00
C559   C     0.40122   0.24998   0.73754   0.00000  Uiso   1.00
C560   C     0.59878   0.25001   0.76245   0.00000  Uiso   1.00
C561   C     0.34595   0.25000   0.73066   0.00000  Uiso   1.00
C562   C     0.65405   0.24999   0.76932   0.00000  Uiso   1.00
C563   C     0.47083   0.04824   0.78540   0.00000  Uiso   1.00
C564   C     0.47415   0.45183   0.70564   0.00000  Uiso   1.00
C565   C     0.47433   0.09442   0.78557   0.00000  Uiso   1.00
C566   C     0.47751   0.40566   0.70661   0.00000  Uiso   1.00
C567   C     0.49801   0.11677   0.75024   0.00000  Uiso   1.00
C568   C     0.49802   0.38331   0.74925   0.00000  Uiso   1.00
C569   C     0.51951   0.09301   0.71494   0.00000  Uiso   1.00
C570   C     0.51633   0.40716   0.79121   0.00000  Uiso   1.00
C571   C     0.51778   0.04716   0.71514   0.00000  Uiso   1.00
C572   C     0.51451   0.45301   0.79054   0.00000  Uiso   1.00
C573   C     0.49290   0.02438   0.74949   0.00000  Uiso   1.00
C574   C     0.49287   0.47573   0.74842   0.00000  Uiso   1.00
Cu575  Cu    0.50000   0.24999   0.79821   0.00000  Uiso   1.00
Cu576  Cu    0.50000   0.25000   0.70178   0.00000  Uiso   1.00
H577   H     0.65928   0.25003   0.69357   0.00000  Uiso   1.00
H578   H     0.34073   0.24995   0.80641   0.00000  Uiso   1.00
H579   H     0.45715   0.11308   0.81250   0.00000  Uiso   1.00
H580   H     0.46280   0.38702   0.67428   0.00000  Uiso   1.00
H581   H     0.53846   0.10988   0.68775   0.00000  Uiso   1.00
H582   H     0.53284   0.39039   0.82430   0.00000  Uiso   1.00
H583   H     0.53604   0.02929   0.68838   0.00000  Uiso   1.00
H584   H     0.53026   0.47093   0.82303   0.00000  Uiso   1.00
H585   H     0.57153   0.28686   0.54515   0.00000  Uiso   1.00
H586   H     0.45836   0.18788   0.95882   0.00000  Uiso   1.00
H587   H     0.56904   0.28740   0.63316   0.00000  Uiso   1.00
H588   H     0.45776   0.19004   0.87038   0.00000  Uiso   1.00
H589   H     0.43095   0.21264   0.61550   0.00000  Uiso   1.00
H590   H     0.54223   0.30994   0.88101   0.00000  Uiso   1.00
H591   H     0.42844   0.21306   0.52679   0.00000  Uiso   1.00
H592   H     0.54154   0.31206   0.96924   0.00000  Uiso   1.00
N593   N     0.50000   0.25001   0.62934   0.00000  Uiso   1.00
N594   N     0.50000   0.24999   0.87065   0.00000  Uiso   1.00
O595   O     0.50000   0.18572   0.79071   0.00000  Uiso   1.00
O596   O     0.50000   0.31427   0.70928   0.00000  Uiso   1.00
O597   O     0.50000   0.18573   0.70928   0.00000  Uiso   1.00
O598   O     0.50000   0.31427   0.79072   0.00000  Uiso   1.00
O599   O     0.42495   0.24999   0.78132   0.00000  Uiso   1.00
O600   O     0.57505   0.25000   0.71868   0.00000  Uiso   1.00
O601   O     0.42495   0.25000   0.69988   0.00000  Uiso   1.00
O602   O     0.57505   0.25000   0.80011   0.00000  Uiso   1.00
C603   C     0.44385   0.02631   0.82287   0.00000  Uiso   1.00
C604   C     0.40333   0.49618   0.80953   0.00000  Uiso   1.00
C605   C     0.37827   0.47588   0.84516   0.00000  Uiso   1.00
C606   C     0.39321   0.48556   0.89434   0.00000  Uiso   1.00
C607   C     0.43317   0.01563   0.90798   0.00000  Uiso   1.00
C608   C     0.45833   0.03602   0.87248   0.00000  Uiso   1.00
H609   H     0.39097   0.48842   0.77169   0.00000  Uiso   1.00
H610   H     0.34717   0.45269   0.83461   0.00000  Uiso   1.00
H611   H     0.37377   0.46981   0.92188   0.00000  Uiso   1.00
H612   H     0.44469   0.02312   0.94610   0.00000  Uiso   1.00
H613   H     0.48944   0.05906   0.88368   0.00000  Uiso   1.00
C614   C     0.45106   0.47371   0.65960   0.00000  Uiso   1.00
C615   C     0.41040   0.00409   0.65907   0.00000  Uiso   1.00
C616   C     0.38922   0.02447   0.61553   0.00000  Uiso   1.00
C617   C     0.40813   0.01457   0.57212   0.00000  Uiso   1.00
C618   C     0.44824   0.48422   0.57216   0.00000  Uiso   1.00
C619   C     0.46960   0.46381   0.61562   0.00000  Uiso   1.00
H620   H     0.39499   0.01203   0.69217   0.00000  Uiso   1.00
H621   H     0.35805   0.04791   0.61545   0.00000  Uiso   1.00
H622   H     0.39167   0.03036   0.53844   0.00000  Uiso   1.00
H623   H     0.46285   0.47656   0.53850   0.00000  Uiso   1.00
H624   H     0.50094   0.44060   0.61507   0.00000  Uiso   1.00
C625   C     0.83304   0.16496   0.75007   0.00000  Uiso   1.00
C626   C     0.83306   0.33507   0.74986   0.00000  Uiso   1.00
C627   C     0.87283   0.27091   0.55902   0.00000  Uiso   1.00
C628   C     0.80968   0.21567   0.94309   0.00000  Uiso   1.00
C629   C     0.87189   0.27083   0.60963   0.00000  Uiso   1.00
C630   C     0.80980   0.21650   0.89236   0.00000  Uiso   1.00
C631   C     0.79476   0.22918   0.59976   0.00000  Uiso   1.00
C632   C     0.85683   0.28347   0.89827   0.00000  Uiso   1.00
C633   C     0.79381   0.22904   0.54889   0.00000  Uiso   1.00
C634   C     0.85691   0.28427   0.94901   0.00000  Uiso   1.00
C635   C     0.83331   0.24996   0.52734   0.00000  Uiso   1.00
C636   C     0.83330   0.24997   0.97266   0.00000  Uiso   1.00
C637   C     0.73455   0.24998   0.73754   0.00000  Uiso   1.00
C638   C     0.93211   0.25001   0.76245   0.00000  Uiso   1.00
C639   C     0.67928   0.25000   0.73066   0.00000  Uiso   1.00
C640   C     0.98738   0.24999   0.76932   0.00000  Uiso   1.00
C641   C     0.80416   0.04824   0.78540   0.00000  Uiso   1.00
C642   C     0.80749   0.45183   0.70564   0.00000  Uiso   1.00
C643   C     0.80766   0.09442   0.78557   0.00000  Uiso   1.00
C644   C     0.81085   0.40566   0.70661   0.00000  Uiso   1.00
C645   C     0.83135   0.11677   0.75024   0.00000  Uiso   1.00
C646   C     0.83136   0.38331   0.74925   0.00000  Uiso   1.00
C647   C     0.85284   0.09301   0.71494   0.00000  Uiso   1.00
C648   C     0.84967   0.40716   0.79121   0.00000  Uiso   1.00
C649   C     0.85111   0.04716   0.71514   0.00000  Uiso   1.00
C650   C     0.84784   0.45301   0.79054   0.00000  Uiso   1.00
C651   C     0.82623   0.02438   0.74949   0.00000  Uiso   1.00
C652   C     0.82621   0.47573   0.74842   0.00000  Uiso   1.00
Cu653  Cu    0.83333   0.24999   0.79821   0.00000  Uiso   1.00
Cu654  Cu    0.83333   0.25000   0.70178   0.00000  Uiso   1.00
H655   H     0.99261   0.25003   0.69357   0.00000  Uiso   1.00
H656   H     0.67406   0.24995   0.80641   0.00000  Uiso   1.00
H657   H     0.79049   0.11308   0.81250   0.00000  Uiso   1.00
H658   H     0.79613   0.38702   0.67428   0.00000  Uiso   1.00
H659   H     0.87180   0.10988   0.68775   0.00000  Uiso   1.00
H660   H     0.86617   0.39039   0.82430   0.00000  Uiso   1.00
H661   H     0.86937   0.02929   0.68838   0.00000  Uiso   1.00
H662   H     0.86359   0.47093   0.82303   0.00000  Uiso   1.00
H663   H     0.90486   0.28686   0.54515   0.00000  Uiso   1.00
H664   H     0.79170   0.18788   0.95882   0.00000  Uiso   1.00
H665   H     0.90238   0.28740   0.63316   0.00000  Uiso   1.00
H666   H     0.79110   0.19004   0.87038   0.00000  Uiso   1.00
H667   H     0.76428   0.21264   0.61550   0.00000  Uiso   1.00
H668   H     0.87556   0.30994   0.88101   0.00000  Uiso   1.00
H669   H     0.76178   0.21306   0.52679   0.00000  Uiso   1.00
H670   H     0.87487   0.31206   0.96924   0.00000  Uiso   1.00
N671   N     0.83333   0.25001   0.62934   0.00000  Uiso   1.00
N672   N     0.83333   0.24999   0.87065   0.00000  Uiso   1.00
O673   O     0.83334   0.18572   0.79071   0.00000  Uiso   1.00
O674   O     0.83333   0.31427   0.70928   0.00000  Uiso   1.00
O675   O     0.83334   0.18573   0.70928   0.00000  Uiso   1.00
O676   O     0.83333   0.31427   0.79072   0.00000  Uiso   1.00
O677   O     0.75828   0.24999   0.78132   0.00000  Uiso   1.00
O678   O     0.90839   0.25000   0.71868   0.00000  Uiso   1.00
O679   O     0.75828   0.25000   0.69988   0.00000  Uiso   1.00
O680   O     0.90839   0.25000   0.80011   0.00000  Uiso   1.00
C681   C     0.77718   0.02631   0.82287   0.00000  Uiso   1.00
C682   C     0.73667   0.49618   0.80953   0.00000  Uiso   1.00
C683   C     0.71160   0.47588   0.84516   0.00000  Uiso   1.00
C684   C     0.72654   0.48556   0.89434   0.00000  Uiso   1.00
C685   C     0.76650   0.01563   0.90798   0.00000  Uiso   1.00
C686   C     0.79167   0.03602   0.87248   0.00000  Uiso   1.00
H687   H     0.72430   0.48842   0.77169   0.00000  Uiso   1.00
H688   H     0.68051   0.45269   0.83461   0.00000  Uiso   1.00
H689   H     0.70710   0.46981   0.92188   0.00000  Uiso   1.00
H690   H     0.77802   0.02312   0.94610   0.00000  Uiso   1.00
H691   H     0.82278   0.05906   0.88368   0.00000  Uiso   1.00
C692   C     0.78440   0.47371   0.65960   0.00000  Uiso   1.00
C693   C     0.74373   0.00409   0.65907   0.00000  Uiso   1.00
C694   C     0.72255   0.02447   0.61553   0.00000  Uiso   1.00
C695   C     0.74146   0.01457   0.57212   0.00000  Uiso   1.00
C696   C     0.78157   0.48422   0.57216   0.00000  Uiso   1.00
C697   C     0.80293   0.46381   0.61562   0.00000  Uiso   1.00
H698   H     0.72832   0.01203   0.69217   0.00000  Uiso   1.00
H699   H     0.69138   0.04791   0.61545   0.00000  Uiso   1.00
H700   H     0.72500   0.03036   0.53844   0.00000  Uiso   1.00
H701   H     0.79618   0.47656   0.53850   0.00000  Uiso   1.00
H702   H     0.83427   0.44060   0.61507   0.00000  Uiso   1.00
C703   C     0.16637   0.66496   0.75007   0.00000  Uiso   1.00
C704   C     0.16639   0.83507   0.74986   0.00000  Uiso   1.00
C705   C     0.20616   0.77091   0.55902   0.00000  Uiso   1.00
C706   C     0.14301   0.71567   0.94309   0.00000  Uiso   1.00
C707   C     0.20523   0.77083   0.60963   0.00000  Uiso   1.00
C708   C     0.14314   0.71650   0.89236   0.00000  Uiso   1.00
C709   C     0.12809   0.72918   0.59976   0.00000  Uiso   1.00
C710   C     0.19017   0.78347   0.89827   0.00000  Uiso   1.00
C711   C     0.12714   0.72904   0.54889   0.00000  Uiso   1.00
C712   C     0.19025   0.78427   0.94901   0.00000  Uiso   1.00
C713   C     0.16664   0.74996   0.52734   0.00000  Uiso   1.00
C714   C     0.16663   0.74997   0.97266   0.00000  Uiso   1.00
C715   C     0.06789   0.74998   0.73754   0.00000  Uiso   1.00
C716   C     0.26545   0.75001   0.76245   0.00000  Uiso   1.00
C717   C     0.01261   0.75000   0.73066   0.00000  Uiso   1.00
C718   C     0.32072   0.74999   0.76932   0.00000  Uiso   1.00
C719   C     0.13749   0.54824   0.78540   0.00000  Uiso   1.00
C720   C     0.14082   0.95183   0.70564   0.00000  Uiso   1.00
C721   C     0.14099   0.59442   0.78557   0.00000  Uiso   1.00
C722   C     0.14418   0.90566   0.70661   0.00000  Uiso   1.00
C723   C     0.16468   0.61677   0.75024   0.00000  Uiso   1.00
C724   C     0.16469   0.88331   0.74925   0.00000  Uiso   1.00
C725   C     0.18617   0.59301   0.71494   0.00000  Uiso   1.00
C726   C     0.18300   0.90716   0.79121   0.00000  Uiso   1.00
C727   C     0.18444   0.54716   0.71514   0.00000  Uiso   1.00
C728   C     0.18118   0.95301   0.79054   0.00000  Uiso   1.00
C729   C     0.15956   0.52438   0.74949   0.00000  Uiso   1.00
C730   C     0.15954   0.97573   0.74842   0.00000  Uiso   1.00
Cu731  Cu    0.16667   0.74999   0.79821   0.00000  Uiso   1.00
Cu732  Cu    0.16667   0.75000   0.70178   0.00000  Uiso   1.00
H733   H     0.32594   0.75003   0.69357   0.00000  Uiso   1.00
H734   H     0.00739   0.74995   0.80641   0.00000  Uiso   1.00
H735   H     0.12382   0.61308   0.81250   0.00000  Uiso   1.00
H736   H     0.12947   0.88702   0.67428   0.00000  Uiso   1.00
H737   H     0.20513   0.60988   0.68775   0.00000  Uiso   1.00
H738   H     0.19950   0.89039   0.82430   0.00000  Uiso   1.00
H739   H     0.20270   0.52929   0.68838   0.00000  Uiso   1.00
H740   H     0.19692   0.97093   0.82303   0.00000  Uiso   1.00
H741   H     0.23820   0.78686   0.54515   0.00000  Uiso   1.00
H742   H     0.12503   0.68788   0.95882   0.00000  Uiso   1.00
H743   H     0.23571   0.78740   0.63316   0.00000  Uiso   1.00
H744   H     0.12443   0.69004   0.87038   0.00000  Uiso   1.00
H745   H     0.09762   0.71264   0.61550   0.00000  Uiso   1.00
H746   H     0.20890   0.80994   0.88101   0.00000  Uiso   1.00
H747   H     0.09511   0.71306   0.52679   0.00000  Uiso   1.00
H748   H     0.20821   0.81206   0.96924   0.00000  Uiso   1.00
N749   N     0.16667   0.75001   0.62934   0.00000  Uiso   1.00
N750   N     0.16667   0.74999   0.87065   0.00000  Uiso   1.00
O751   O     0.16667   0.68572   0.79071   0.00000  Uiso   1.00
O752   O     0.16666   0.81427   0.70928   0.00000  Uiso   1.00
O753   O     0.16667   0.68573   0.70928   0.00000  Uiso   1.00
O754   O     0.16666   0.81427   0.79072   0.00000  Uiso   1.00
O755   O     0.09161   0.74999   0.78132   0.00000  Uiso   1.00
O756   O     0.24172   0.75000   0.71868   0.00000  Uiso   1.00
O757   O     0.09161   0.75000   0.69988   0.00000  Uiso   1.00
O758   O     0.24172   0.75000   0.80011   0.00000  Uiso   1.00
C759   C     0.11052   0.52631   0.82287   0.00000  Uiso   1.00
C760   C     0.07000   0.99618   0.80953   0.00000  Uiso   1.00
C761   C     0.04494   0.97588   0.84516   0.00000  Uiso   1.00
C762   C     0.05987   0.98556   0.89434   0.00000  Uiso   1.00
C763   C     0.09983   0.51563   0.90798   0.00000  Uiso   1.00
C764   C     0.12500   0.53602   0.87248   0.00000  Uiso   1.00
H765   H     0.05764   0.98842   0.77169   0.00000  Uiso   1.00
H766   H     0.01384   0.95269   0.83461   0.00000  Uiso   1.00
H767   H     0.04044   0.96981   0.92188   0.00000  Uiso   1.00
H768   H     0.11135   0.52312   0.94610   0.00000  Uiso   1.00
H769   H     0.15611   0.55906   0.88368   0.00000  Uiso   1.00
C770   C     0.11773   0.97371   0.65960   0.00000  Uiso   1.00
C771   C     0.07707   0.50409   0.65907   0.00000  Uiso   1.00
C772   C     0.05588   0.52447   0.61553   0.00000  Uiso   1.00
C773   C     0.07480   0.51457   0.57212   0.00000  Uiso   1.00
C774   C     0.11490   0.98422   0.57216   0.00000  Uiso   1.00
C775   C     0.13626   0.96381   0.61562   0.00000  Uiso   1.00
H776   H     0.06165   0.51203   0.69217   0.00000  Uiso   1.00
H777   H     0.02471   0.54791   0.61545   0.00000  Uiso   1.00
H778   H     0.05834   0.53036   0.53844   0.00000  Uiso   1.00
H779   H     0.12951   0.97656   0.53850   0.00000  Uiso   1.00
H780   H     0.16761   0.94060   0.61507   0.00000  Uiso   1.00
C781   C     0.49970   0.66496   0.75007   0.00000  Uiso   1.00
C782   C     0.49972   0.83507   0.74986   0.00000  Uiso   1.00
C783   C     0.53949   0.77091   0.55902   0.00000  Uiso   1.00
C784   C     0.47635   0.71567   0.94309   0.00000  Uiso   1.00
C785   C     0.53856   0.77083   0.60963   0.00000  Uiso   1.00
C786   C     0.47647   0.71650   0.89236   0.00000  Uiso   1.00
C787   C     0.46143   0.72918   0.59976   0.00000  Uiso   1.00
C788   C     0.52350   0.78347   0.89827   0.00000  Uiso   1.00
C789   C     0.46048   0.72904   0.54889   0.00000  Uiso   1.00
C790   C     0.52358   0.78427   0.94901   0.00000  Uiso   1.00
C791   C     0.49998   0.74996   0.52734   0.00000  Uiso   1.00
C792   C     0.49996   0.74997   0.97266   0.00000  Uiso   1.00
C793   C     0.40122   0.74998   0.73754   0.00000  Uiso   1.00
C794   C     0.59878   0.75001   0.76245   0.00000  Uiso   1.00
C795   C     0.34595   0.75000   0.73066   0.00000  Uiso   1.00
C796   C     0.65405   0.74999   0.76932   0.00000  Uiso   1.00
C797   C     0.47083   0.54824   0.78540   0.00000  Uiso   1.00
C798   C     0.47415   0.95183   0.70564   0.00000  Uiso   1.00
C799   C     0.47433   0.59442   0.78557   0.00000  Uiso   1.00
C800   C     0.47751   0.90566   0.70661   0.00000  Uiso   1.00
C801   C     0.49801   0.61677   0.75024   0.00000  Uiso   1.00
C802   C     0.49802   0.88331   0.74925   0.00000  Uiso   1.00
C803   C     0.51951   0.59301   0.71494   0.00000  Uiso   1.00
C804   C     0.51633   0.90716   0.79121   0.00000  Uiso   1.00
C805   C     0.51778   0.54716   0.71514   0.00000  Uiso   1.00
C806   C     0.51451   0.95301   0.79054   0.00000  Uiso   1.00
C807   C     0.49290   0.52438   0.74949   0.00000  Uiso   1.00
C808   C     0.49287   0.97573   0.74842   0.00000  Uiso   1.00
Cu809  Cu    0.50000   0.74999   0.79821   0.00000  Uiso   1.00
Cu810  Cu    0.50000   0.75000   0.70178   0.00000  Uiso   1.00
H811   H     0.65928   0.75003   0.69357   0.00000  Uiso   1.00
H812   H     0.34073   0.74995   0.80641   0.00000  Uiso   1.00
H813   H     0.45715   0.61308   0.81250   0.00000  Uiso   1.00
H814   H     0.46280   0.88702   0.67428   0.00000  Uiso   1.00
H815   H     0.53846   0.60988   0.68775   0.00000  Uiso   1.00
H816   H     0.53284   0.89039   0.82430   0.00000  Uiso   1.00
H817   H     0.53604   0.52929   0.68838   0.00000  Uiso   1.00
H818   H     0.53026   0.97093   0.82303   0.00000  Uiso   1.00
H819   H     0.57153   0.78686   0.54515   0.00000  Uiso   1.00
H820   H     0.45836   0.68788   0.95882   0.00000  Uiso   1.00
H821   H     0.56904   0.78740   0.63316   0.00000  Uiso   1.00
H822   H     0.45776   0.69004   0.87038   0.00000  Uiso   1.00
H823   H     0.43095   0.71264   0.61550   0.00000  Uiso   1.00
H824   H     0.54223   0.80994   0.88101   0.00000  Uiso   1.00
H825   H     0.42844   0.71306   0.52679   0.00000  Uiso   1.00
H826   H     0.54154   0.81206   0.96924   0.00000  Uiso   1.00
N827   N     0.50000   0.75001   0.62934   0.00000  Uiso   1.00
N828   N     0.50000   0.74999   0.87065   0.00000  Uiso   1.00
O829   O     0.50000   0.68572   0.79071   0.00000  Uiso   1.00
O830   O     0.50000   0.81427   0.70928   0.00000  Uiso   1.00
O831   O     0.50000   0.68573   0.70928   0.00000  Uiso   1.00
O832   O     0.50000   0.81427   0.79072   0.00000  Uiso   1.00
O833   O     0.42495   0.74999   0.78132   0.00000  Uiso   1.00
O834   O     0.57505   0.75000   0.71868   0.00000  Uiso   1.00
O835   O     0.42495   0.75000   0.69988   0.00000  Uiso   1.00
O836   O     0.57505   0.75000   0.80011   0.00000  Uiso   1.00
C837   C     0.44385   0.52631   0.82287   0.00000  Uiso   1.00
C838   C     0.40333   0.99618   0.80953   0.00000  Uiso   1.00
C839   C     0.37827   0.97588   0.84516   0.00000  Uiso   1.00
C840   C     0.39321   0.98556   0.89434   0.00000  Uiso   1.00
C841   C     0.43317   0.51563   0.90798   0.00000  Uiso   1.00
C842   C     0.45833   0.53602   0.87248   0.00000  Uiso   1.00
H843   H     0.39097   0.98842   0.77169   0.00000  Uiso   1.00
H844   H     0.34717   0.95269   0.83461   0.00000  Uiso   1.00
H845   H     0.37377   0.96981   0.92188   0.00000  Uiso   1.00
H846   H     0.44469   0.52312   0.94610   0.00000  Uiso   1.00
H847   H     0.48944   0.55906   0.88368   0.00000  Uiso   1.00
C848   C     0.45106   0.97371   0.65960   0.00000  Uiso   1.00
C849   C     0.41040   0.50409   0.65907   0.00000  Uiso   1.00
C850   C     0.38922   0.52447   0.61553   0.00000  Uiso   1.00
C851   C     0.40813   0.51457   0.57212   0.00000  Uiso   1.00
C852   C     0.44824   0.98422   0.57216   0.00000  Uiso   1.00
C853   C     0.46960   0.96381   0.61562   0.00000  Uiso   1.00
H854   H     0.39499   0.51203   0.69217   0.00000  Uiso   1.00
H855   H     0.35805   0.54791   0.61545   0.00000  Uiso   1.00
H856   H     0.39167   0.53036   0.53844   0.00000  Uiso   1.00
H857   H     0.46285   0.97656   0.53850   0.00000  Uiso   1.00
H858   H     0.50094   0.94060   0.61507   0.00000  Uiso   1.00
C859   C     0.83304   0.66496   0.75007   0.00000  Uiso   1.00
C860   C     0.83306   0.83507   0.74986   0.00000  Uiso   1.00
C861   C     0.87283   0.77091   0.55902   0.00000  Uiso   1.00
C862   C     0.80968   0.71567   0.94309   0.00000  Uiso   1.00
C863   C     0.87189   0.77083   0.60963   0.00000  Uiso   1.00
C864   C     0.80980   0.71650   0.89236   0.00000  Uiso   1.00
C865   C     0.79476   0.72918   0.59976   0.00000  Uiso   1.00
C866   C     0.85683   0.78347   0.89827   0.00000  Uiso   1.00
C867   C     0.79381   0.72904   0.54889   0.00000  Uiso   1.00
C868   C     0.85691   0.78427   0.94901   0.00000  Uiso   1.00
C869   C     0.83331   0.74996   0.52734   0.00000  Uiso   1.00
C870   C     0.83330   0.74997   0.97266   0.00000  Uiso   1.00
C871   C     0.73455   0.74998   0.73754   0.00000  Uiso   1.00
C872   C     0.93211   0.75001   0.76245   0.00000  Uiso   1.00
C873   C     0.67928   0.75000   0.73066   0.00000  Uiso   1.00
C874   C     0.98738   0.74999   0.76932   0.00000  Uiso   1.00
C875   C     0.80416   0.54824   0.78540   0.00000  Uiso   1.00
C876   C     0.80749   0.95183   0.70564   0.00000  Uiso   1.00
C877   C     0.80766   0.59442   0.78557   0.00000  Uiso   1.00
C878   C     0.81085   0.90566   0.70661   0.00000  Uiso   1.00
C879   C     0.83135   0.61677   0.75024   0.00000  Uiso   1.00
C880   C     0.83136   0.88331   0.74925   0.00000  Uiso   1.00
C881   C     0.85284   0.59301   0.71494   0.00000  Uiso   1.00
C882   C     0.84967   0.90716   0.79121   0.00000  Uiso   1.00
C883   C     0.85111   0.54716   0.71514   0.00000  Uiso   1.00
C884   C     0.84784   0.95301   0.79054   0.00000  Uiso   1.00
C885   C     0.82623   0.52438   0.74949   0.00000  Uiso   1.00
C886   C     0.82621   0.97573   0.74842   0.00000  Uiso   1.00
Cu887  Cu    0.83333   0.74999   0.79821   0.00000  Uiso   1.00
Cu888  Cu    0.83333   0.75000   0.70178   0.00000  Uiso   1.00
H889   H     0.99261   0.75003   0.69357   0.00000  Uiso   1.00
H890   H     0.67406   0.74995   0.80641   0.00000  Uiso   1.00
H891   H     0.79049   0.61308   0.81250   0.00000  Uiso   1.00
H892   H     0.79613   0.88702   0.67428   0.00000  Uiso   1.00
H893   H     0.87180   0.60988   0.68775   0.00000  Uiso   1.00
H894   H     0.86617   0.89039   0.82430   0.00000  Uiso   1.00
H895   H     0.86937   0.52929   0.68838   0.00000  Uiso   1.00
H896   H     0.86359   0.97093   0.82303   0.00000  Uiso   1.00
H897   H     0.90486   0.78686   0.54515   0.00000  Uiso   1.00
H898   H     0.79170   0.68788   0.95882   0.00000  Uiso   1.00
H899   H     0.90238   0.78740   0.63316   0.00000  Uiso   1.00
H900   H     0.79110   0.69004   0.87038   0.00000  Uiso   1.00
H901   H     0.76428   0.71264   0.61550   0.00000  Uiso   1.00
H902   H     0.87556   0.80994   0.88101   0.00000  Uiso   1.00
H903   H     0.76178   0.71306   0.52679   0.00000  Uiso   1.00
H904   H     0.87487   0.81206   0.96924   0.00000  Uiso   1.00
N905   N     0.83333   0.75001   0.62934   0.00000  Uiso   1.00
N906   N     0.83333   0.74999   0.87065   0.00000  Uiso   1.00
O907   O     0.83334   0.68572   0.79071   0.00000  Uiso   1.00
O908   O     0.83333   0.81427   0.70928   0.00000  Uiso   1.00
O909   O     0.83334   0.68573   0.70928   0.00000  Uiso   1.00
O910   O     0.83333   0.81427   0.79072   0.00000  Uiso   1.00
O911   O     0.75828   0.74999   0.78132   0.00000  Uiso   1.00
O912   O     0.90839   0.75000   0.71868   0.00000  Uiso   1.00
O913   O     0.75828   0.75000   0.69988   0.00000  Uiso   1.00
O914   O     0.90839   0.75000   0.80011   0.00000  Uiso   1.00
C915   C     0.77718   0.52631   0.82287   0.00000  Uiso   1.00
C916   C     0.73667   0.99618   0.80953   0.00000  Uiso   1.00
C917   C     0.71160   0.97588   0.84516   0.00000  Uiso   1.00
C918   C     0.72654   0.98556   0.89434   0.00000  Uiso   1.00
C919   C     0.76650   0.51563   0.90798   0.00000  Uiso   1.00
C920   C     0.79167   0.53602   0.87248   0.00000  Uiso   1.00
H921   H     0.72430   0.98842   0.77169   0.00000  Uiso   1.00
H922   H     0.68051   0.95269   0.83461   0.00000  Uiso   1.00
H923   H     0.70710   0.96981   0.92188   0.00000  Uiso   1.00
H924   H     0.77802   0.52312   0.94610   0.00000  Uiso   1.00
H925   H     0.82278   0.55906   0.88368   0.00000  Uiso   1.00
C926   C     0.78440   0.97371   0.65960   0.00000  Uiso   1.00
C927   C     0.74373   0.50409   0.65907   0.00000  Uiso   1.00
C928   C     0.72255   0.52447   0.61553   0.00000  Uiso   1.00
C929   C     0.74146   0.51457   0.57212   0.00000  Uiso   1.00
C930   C     0.78157   0.98422   0.57216   0.00000  Uiso   1.00
C931   C     0.80293   0.96381   0.61562   0.00000  Uiso   1.00
H932   H     0.72832   0.51203   0.69217   0.00000  Uiso   1.00
H933   H     0.69138   0.54791   0.61545   0.00000  Uiso   1.00
H934   H     0.72500   0.53036   0.53844   0.00000  Uiso   1.00
H935   H     0.79618   0.97656   0.53850   0.00000  Uiso   1.00
H936   H     0.83427   0.94060   0.61507   0.00000  Uiso   1.00
loop_
_geom_bond_atom_site_label_1
_geom_bond_atom_site_label_2
_geom_bond_distance
_geom_bond_site_symmetry_2
_ccdc_geom_bond_type
C1     C21     1.457   .     S
C1     O51     1.292   .     A
C1     O49     1.291   .     A
C2     O50     1.292   .     A
C2     C22     1.459   .     S
C2     O52     1.293   .     A
C3     H39     1.081   .     S
C3     C5      1.407   .     A
C3     C11     1.411   .     A
C4     H40     1.081   .     S
C4     C12     1.411   .     A
C4     C6      1.407   .     A
C5     N47     1.364   .     A
C5     H41     1.081   .     S
C6     N48     1.364   .     A
C6     H42     1.081   .     S
C7     H43     1.081   .     S
C7     N47     1.364   .     A
C7     C9      1.407   .     A
C8     N48     1.364   .     A
C8     H44     1.081   .     S
C8     C10     1.407   .     A
C9     H45     1.081   .     S
C9     C11     1.411   .     A
C10    C12     1.411   .     A
C10    H46     1.081   .     S
C11    C480    1.516   1_554 S
C12    C479    1.516   .     S
C13    O53     1.285   .     A
C13    C15     1.433   .     S
C13    O55     1.287   .     A
C14    O56     1.287   .     A
C14    C16     1.433   .     S
C14    O54     1.284   .     A
C15    C172    1.335   1_455 S
C15    H187    1.087   1_455 S
C16    C93     1.335   .     S
C16    H110    1.087   .     S
C17    C27     1.419   .     A
C17    C19     1.399   .     A
C17    C57     1.487   .     S
C18    C68     1.488   .     S
C18    C28     1.419   .     A
C18    C20     1.399   .     A
C19    C21     1.400   .     A
C19    H33     1.084   .     S
C20    H34     1.084   .     S
C20    C22     1.401   .     A
C21    C23     1.397   .     A
C22    C24     1.397   .     A
C23    H35     1.083   .     S
C23    C25     1.387   .     A
C24    H36     1.083   .     S
C24    C26     1.387   .     A
C25    H37     1.083   .     S
C25    C27     1.403   .     A
C26    H38     1.083   .     S
C26    C28     1.403   .     A
C27    C262    1.471   1_545 S
C28    C261    1.471   .     S
Cu29   O49     1.955   .     S
Cu29   N48     2.008   .     S
Cu29   Cu30    2.673   .     S
Cu29   O56     1.959   .     S
Cu29   O53     1.956   .     S
Cu29   O52     1.953   .     S
Cu30   O51     1.953   .     S
Cu30   O50     1.955   .     S
Cu30   N47     2.008   .     S
Cu30   O54     1.956   .     S
Cu30   O55     1.959   .     S
H31    C93     1.087   .     S
H32    C172    1.087   1_455 S
C57    C62     1.407   .     A
C57    C292    1.407   1_545 S
C58    C59     1.398   .     A
C58    H63     1.081   .     S
C58    C291    1.407   .     S
C59    H64     1.082   .     S
C59    C60     1.397   .     A
C60    H65     1.082   .     S
C60    C295    1.397   .     S
C61    H66     1.083   .     S
C61    C62     1.398   .     A
C61    C294    1.397   1_545 S
C62    H67     1.083   .     S
C68    C73     1.407   .     A
C68    C303    1.407   .     S
C69    C70     1.398   .     A
C69    H74     1.081   .     S
C69    C302    1.407   1_545 S
C70    C71     1.397   .     A
C70    H75     1.082   .     S
C71    H76     1.082   .     S
C71    C306    1.397   1_545 S
C72    H77     1.082   .     S
C72    C73     1.398   .     A
C72    C305    1.397   .     S
C73    H78     1.083   .     S
C79    C99     1.457   .     S
C79    O129    1.292   .     A
C79    O127    1.291   .     A
C80    O128    1.292   .     A
C80    C100    1.459   .     S
C80    O130    1.293   .     A
C81    H117    1.081   .     S
C81    C83     1.407   .     A
C81    C89     1.411   .     A
C82    H118    1.081   .     S
C82    C90     1.411   .     A
C82    C84     1.407   .     A
C83    N125    1.364   .     A
C83    H119    1.081   .     S
C84    N126    1.364   .     A
C84    H120    1.081   .     S
C85    H121    1.081   .     S
C85    N125    1.364   .     A
C85    C87     1.407   .     A
C86    N126    1.364   .     A
C86    H122    1.081   .     S
C86    C88     1.407   .     A
C87    H123    1.081   .     S
C87    C89     1.411   .     A
C88    C90     1.411   .     A
C88    H124    1.081   .     S
C89    C558    1.516   1_554 S
C90    C557    1.516   .     S
C91    O131    1.285   .     A
C91    C93     1.433   .     S
C91    O133    1.287   .     A
C92    O134    1.287   .     A
C92    C94     1.433   .     S
C92    O132    1.284   .     A
C94    C171    1.335   .     S
C94    H188    1.087   .     S
C95    C105    1.419   .     A
C95    C97     1.399   .     A
C95    C135    1.487   .     S
C96    C146    1.488   .     S
C96    C106    1.419   .     A
C96    C98     1.399   .     A
C97    C99     1.400   .     A
C97    H111    1.084   .     S
C98    H112    1.084   .     S
C98    C100    1.401   .     A
C99    C101    1.397   .     A
C100   C102    1.397   .     A
C101   H113    1.083   .     S
C101   C103    1.387   .     A
C102   H114    1.083   .     S
C102   C104    1.387   .     A
C103   H115    1.083   .     S
C103   C105    1.403   .     A
C104   H116    1.083   .     S
C104   C106    1.403   .     A
C105   C340    1.471   1_545 S
C106   C339    1.471   .     S
Cu107  O127    1.955   .     S
Cu107  N126    2.008   .     S
Cu107  Cu108   2.673   .     S
Cu107  O134    1.959   .     S
Cu107  O131    1.956   .     S
Cu107  O130    1.953   .     S
Cu108  O129    1.953   .     S
Cu108  O128    1.955   .     S
Cu108  N125    2.008   .     S
Cu108  O132    1.956   .     S
Cu108  O133    1.959   .     S
H109   C171    1.087   .     S
C135   C140    1.407   .     A
C135   C370    1.407   1_545 S
C136   C137    1.398   .     A
C136   H141    1.081   .     S
C136   C369    1.407   .     S
C137   H142    1.082   .     S
C137   C138    1.397   .     A
C138   H143    1.082   .     S
C138   C373    1.397   .     S
C139   H144    1.083   .     S
C139   C140    1.398   .     A
C139   C372    1.397   1_545 S
C140   H145    1.083   .     S
C146   C151    1.407   .     A
C146   C381    1.407   .     S
C147   C148    1.398   .     A
C147   H152    1.081   .     S
C147   C380    1.407   1_545 S
C148   C149    1.397   .     A
C148   H153    1.082   .     S
C149   H154    1.082   .     S
C149   C384    1.397   1_545 S
C150   H155    1.082   .     S
C150   C151    1.398   .     A
C150   C383    1.397   .     S
C151   H156    1.083   .     S
C157   C177    1.457   .     S
C157   O207    1.292   .     A
C157   O205    1.291   .     A
C158   O206    1.292   .     A
C158   C178    1.459   .     S
C158   O208    1.293   .     A
C159   H195    1.081   .     S
C159   C161    1.407   .     A
C159   C167    1.411   .     A
C160   H196    1.081   .     S
C160   C168    1.411   .     A
C160   C162    1.407   .     A
C161   N203    1.364   .     A
C161   H197    1.081   .     S
C162   N204    1.364   .     A
C162   H198    1.081   .     S
C163   H199    1.081   .     S
C163   N203    1.364   .     A
C163   C165    1.407   .     A
C164   N204    1.364   .     A
C164   H200    1.081   .     S
C164   C166    1.407   .     A
C165   H201    1.081   .     S
C165   C167    1.411   .     A
C166   C168    1.411   .     A
C166   H202    1.081   .     S
C167   C636    1.516   1_554 S
C168   C635    1.516   .     S
C169   O209    1.285   .     A
C169   C171    1.433   .     S
C169   O211    1.287   .     A
C170   O212    1.287   .     A
C170   C172    1.433   .     S
C170   O210    1.284   .     A
C172   C15     1.335   1_655 S
C172   H32     1.087   1_655 S
C173   C183    1.419   .     A
C173   C175    1.399   .     A
C173   C213    1.487   .     S
C174   C224    1.488   .     S
C174   C184    1.419   .     A
C174   C176    1.399   .     A
C175   C177    1.400   .     A
C175   H189    1.084   .     S
C176   H190    1.084   .     S
C176   C178    1.401   .     A
C177   C179    1.397   .     A
C178   C180    1.397   .     A
C179   H191    1.083   .     S
C179   C181    1.387   .     A
C180   H192    1.083   .     S
C180   C182    1.387   .     A
C181   H193    1.083   .     S
C181   C183    1.403   .     A
C182   H194    1.083   .     S
C182   C184    1.403   .     A
C183   C418    1.471   1_545 S
C184   C417    1.471   .     S
Cu185  O205    1.955   .     S
Cu185  N204    2.008   .     S
Cu185  Cu186   2.673   .     S
Cu185  O212    1.959   .     S
Cu185  O209    1.956   .     S
Cu185  O208    1.953   .     S
Cu186  O207    1.953   .     S
Cu186  O206    1.955   .     S
Cu186  N203    2.008   .     S
Cu186  O210    1.956   .     S
Cu186  O211    1.959   .     S
H187   C15     1.087   1_655 S
C213   C218    1.407   .     A
C213   C448    1.407   1_545 S
C214   C215    1.398   .     A
C214   H219    1.081   .     S
C214   C447    1.407   .     S
C215   H220    1.082   .     S
C215   C216    1.397   .     A
C216   H221    1.082   .     S
C216   C451    1.397   .     S
C217   H222    1.083   .     S
C217   C218    1.398   .     A
C217   C450    1.397   1_545 S
C218   H223    1.083   .     S
C224   C229    1.407   .     A
C224   C459    1.407   .     S
C225   C226    1.398   .     A
C225   H230    1.081   .     S
C225   C458    1.407   1_545 S
C226   C227    1.397   .     A
C226   H231    1.082   .     S
C227   H232    1.082   .     S
C227   C462    1.397   1_545 S
C228   H233    1.082   .     S
C228   C229    1.398   .     A
C228   C461    1.397   .     S
C229   H234    1.083   .     S
C235   C255    1.457   .     S
C235   O285    1.292   .     A
C235   O283    1.291   .     A
C236   O284    1.292   .     A
C236   C256    1.459   .     S
C236   O286    1.293   .     A
C237   H273    1.081   .     S
C237   C239    1.407   .     A
C237   C245    1.411   .     A
C238   H274    1.081   .     S
C238   C246    1.411   .     A
C238   C240    1.407   .     A
C239   N281    1.364   .     A
C239   H275    1.081   .     S
C240   N282    1.364   .     A
C240   H276    1.081   .     S
C241   H277    1.081   .     S
C241   N281    1.364   .     A
C241   C243    1.407   .     A
C242   N282    1.364   .     A
C242   H278    1.081   .     S
C242   C244    1.407   .     A
C243   H279    1.081   .     S
C243   C245    1.411   .     A
C244   C246    1.411   .     A
C244   H280    1.081   .     S
C245   C714    1.516   1_554 S
C246   C713    1.516   .     S
C247   O287    1.285   .     A
C247   C249    1.433   .     S
C247   O289    1.287   .     A
C248   O290    1.287   .     A
C248   C250    1.433   .     S
C248   O288    1.284   .     A
C249   C406    1.335   1_455 S
C249   H421    1.087   1_455 S
C250   C327    1.335   .     S
C250   H344    1.087   .     S
C251   C261    1.419   .     A
C251   C253    1.399   .     A
C251   C291    1.487   .     S
C252   C302    1.488   .     S
C252   C262    1.419   .     A
C252   C254    1.399   .     A
C253   C255    1.400   .     A
C253   H267    1.084   .     S
C254   H268    1.084   .     S
C254   C256    1.401   .     A
C255   C257    1.397   .     A
C256   C258    1.397   .     A
C257   H269    1.083   .     S
C257   C259    1.387   .     A
C258   H270    1.083   .     S
C258   C260    1.387   .     A
C259   H271    1.083   .     S
C259   C261    1.403   .     A
C260   H272    1.083   .     S
C260   C262    1.403   .     A
C262   C27     1.471   1_565 S
Cu263  O283    1.955   .     S
Cu263  N282    2.008   .     S
Cu263  Cu264   2.673   .     S
Cu263  O290    1.959   .     S
Cu263  O287    1.956   .     S
Cu263  O286    1.953   .     S
Cu264  O285    1.953   .     S
Cu264  O284    1.955   .     S
Cu264  N281    2.008   .     S
Cu264  O288    1.956   .     S
Cu264  O289    1.959   .     S
H265   C327    1.087   .     S
H266   C406    1.087   1_455 S
C291   C296    1.407   .     A
C292   C293    1.398   .     A
C292   H297    1.081   .     S
C292   C57     1.407   1_565 S
C293   H298    1.082   .     S
C293   C294    1.397   .     A
C294   H299    1.082   .     S
C294   C61     1.397   1_565 S
C295   H300    1.083   .     S
C295   C296    1.398   .     A
C296   H301    1.083   .     S
C302   C307    1.407   .     A
C302   C69     1.407   1_565 S
C303   C304    1.398   .     A
C303   H308    1.081   .     S
C304   C305    1.397   .     A
C304   H309    1.082   .     S
C305   H310    1.082   .     S
C306   H311    1.082   .     S
C306   C307    1.398   .     A
C306   C71     1.397   1_565 S
C307   H312    1.083   .     S
C313   C333    1.457   .     S
C313   O363    1.292   .     A
C313   O361    1.291   .     A
C314   O362    1.292   .     A
C314   C334    1.459   .     S
C314   O364    1.293   .     A
C315   H351    1.081   .     S
C315   C317    1.407   .     A
C315   C323    1.411   .     A
C316   H352    1.081   .     S
C316   C324    1.411   .     A
C316   C318    1.407   .     A
C317   N359    1.364   .     A
C317   H353    1.081   .     S
C318   N360    1.364   .     A
C318   H354    1.081   .     S
C319   H355    1.081   .     S
C319   N359    1.364   .     A
C319   C321    1.407   .     A
C320   N360    1.364   .     A
C320   H356    1.081   .     S
C320   C322    1.407   .     A
C321   H357    1.081   .     S
C321   C323    1.411   .     A
C322   C324    1.411   .     A
C322   H358    1.081   .     S
C323   C792    1.516   1_554 S
C324   C791    1.516   .     S
C325   O365    1.285   .     A
C325   C327    1.433   .     S
C325   O367    1.287   .     A
C326   O368    1.287   .     A
C326   C328    1.433   .     S
C326   O366    1.284   .     A
C328   C405    1.335   .     S
C328   H422    1.087   .     S
C329   C339    1.419   .     A
C329   C331    1.399   .     A
C329   C369    1.487   .     S
C330   C380    1.488   .     S
C330   C340    1.419   .     A
C330   C332    1.399   .     A
C331   C333    1.400   .     A
C331   H345    1.084   .     S
C332   H346    1.084   .     S
C332   C334    1.401   .     A
C333   C335    1.397   .     A
C334   C336    1.397   .     A
C335   H347    1.083   .     S
C335   C337    1.387   .     A
C336   H348    1.083   .     S
C336   C338    1.387   .     A
C337   H349    1.083   .     S
C337   C339    1.403   .     A
C338   H350    1.083   .     S
C338   C340    1.403   .     A
C340   C105    1.471   1_565 S
Cu341  O361    1.955   .     S
Cu341  N360    2.008   .     S
Cu341  Cu342   2.673   .     S
Cu341  O368    1.959   .     S
Cu341  O365    1.956   .     S
Cu341  O364    1.953   .     S
Cu342  O363    1.953   .     S
Cu342  O362    1.955   .     S
Cu342  N359    2.008   .     S
Cu342  O366    1.956   .     S
Cu342  O367    1.959   .     S
H343   C405    1.087   .     S
C369   C374    1.407   .     A
C370   C371    1.398   .     A
C370   H375    1.081   .     S
C370   C135    1.407   1_565 S
C371   H376    1.082   .     S
C371   C372    1.397   .     A
C372   H377    1.082   .     S
C372   C139    1.397   1_565 S
C373   H378    1.083   .     S
C373   C374    1.398   .     A
C374   H379    1.083   .     S
C380   C385    1.407   .     A
C380   C147    1.407   1_565 S
C381   C382    1.398   .     A
C381   H386    1.081   .     S
C382   C383    1.397   .     A
C382   H387    1.082   .     S
C383   H388    1.082   .     S
C384   H389    1.082   .     S
C384   C385    1.398   .     A
C384   C149    1.397   1_565 S
C385   H390    1.083   .     S
C391   C411    1.457   .     S
C391   O441    1.292   .     A
C391   O439    1.291   .     A
C392   O440    1.292   .     A
C392   C412    1.459   .     S
C392   O442    1.293   .     A
C393   H429    1.081   .     S
C393   C395    1.407   .     A
C393   C401    1.411   .     A
C394   H430    1.081   .     S
C394   C402    1.411   .     A
C394   C396    1.407   .     A
C395   N437    1.364   .     A
C395   H431    1.081   .     S
C396   N438    1.364   .     A
C396   H432    1.081   .     S
C397   H433    1.081   .     S
C397   N437    1.364   .     A
C397   C399    1.407   .     A
C398   N438    1.364   .     A
C398   H434    1.081   .     S
C398   C400    1.407   .     A
C399   H435    1.081   .     S
C399   C401    1.411   .     A
C400   C402    1.411   .     A
C400   H436    1.081   .     S
C401   C870    1.516   1_554 S
C402   C869    1.516   .     S
C403   O443    1.285   .     A
C403   C405    1.433   .     S
C403   O445    1.287   .     A
C404   O446    1.287   .     A
C404   C406    1.433   .     S
C404   O444    1.284   .     A
C406   C249    1.335   1_655 S
C406   H266    1.087   1_655 S
C407   C417    1.419   .     A
C407   C409    1.399   .     A
C407   C447    1.487   .     S
C408   C458    1.488   .     S
C408   C418    1.419   .     A
C408   C410    1.399   .     A
C409   C411    1.400   .     A
C409   H423    1.084   .     S
C410   H424    1.084   .     S
C410   C412    1.401   .     A
C411   C413    1.397   .     A
C412   C414    1.397   .     A
C413   H425    1.083   .     S
C413   C415    1.387   .     A
C414   H426    1.083   .     S
C414   C416    1.387   .     A
C415   H427    1.083   .     S
C415   C417    1.403   .     A
C416   H428    1.083   .     S
C416   C418    1.403   .     A
C418   C183    1.471   1_565 S
Cu419  O439    1.955   .     S
Cu419  N438    2.008   .     S
Cu419  Cu420   2.673   .     S
Cu419  O446    1.959   .     S
Cu419  O443    1.956   .     S
Cu419  O442    1.953   .     S
Cu420  O441    1.953   .     S
Cu420  O440    1.955   .     S
Cu420  N437    2.008   .     S
Cu420  O444    1.956   .     S
Cu420  O445    1.959   .     S
H421   C249    1.087   1_655 S
C447   C452    1.407   .     A
C448   C449    1.398   .     A
C448   H453    1.081   .     S
C448   C213    1.407   1_565 S
C449   H454    1.082   .     S
C449   C450    1.397   .     A
C450   H455    1.082   .     S
C450   C217    1.397   1_565 S
C451   H456    1.083   .     S
C451   C452    1.398   .     A
C452   H457    1.083   .     S
C458   C463    1.407   .     A
C458   C225    1.407   1_565 S
C459   C460    1.398   .     A
C459   H464    1.081   .     S
C460   C461    1.397   .     A
C460   H465    1.082   .     S
C461   H466    1.082   .     S
C462   H467    1.082   .     S
C462   C463    1.398   .     A
C462   C227    1.397   1_565 S
C463   H468    1.083   .     S
C469   C489    1.457   .     S
C469   O519    1.292   .     A
C469   O517    1.291   .     A
C470   O518    1.292   .     A
C470   C490    1.459   .     S
C470   O520    1.293   .     A
C471   H507    1.081   .     S
C471   C473    1.407   .     A
C471   C479    1.411   .     A
C472   H508    1.081   .     S
C472   C480    1.411   .     A
C472   C474    1.407   .     A
C473   N515    1.364   .     A
C473   H509    1.081   .     S
C474   N516    1.364   .     A
C474   H510    1.081   .     S
C475   H511    1.081   .     S
C475   N515    1.364   .     A
C475   C477    1.407   .     A
C476   N516    1.364   .     A
C476   H512    1.081   .     S
C476   C478    1.407   .     A
C477   H513    1.081   .     S
C477   C479    1.411   .     A
C478   C480    1.411   .     A
C478   H514    1.081   .     S
C480   C11     1.516   1_556 S
C481   O521    1.285   .     A
C481   C483    1.433   .     S
C481   O523    1.287   .     A
C482   O524    1.287   .     A
C482   C484    1.433   .     S
C482   O522    1.284   .     A
C483   C640    1.335   1_455 S
C483   H655    1.087   1_455 S
C484   C561    1.335   .     S
C484   H578    1.087   .     S
C485   C495    1.419   .     A
C485   C487    1.399   .     A
C485   C525    1.487   .     S
C486   C536    1.488   .     S
C486   C496    1.419   .     A
C486   C488    1.399   .     A
C487   C489    1.400   .     A
C487   H501    1.084   .     S
C488   H502    1.084   .     S
C488   C490    1.401   .     A
C489   C491    1.397   .     A
C490   C492    1.397   .     A
C491   H503    1.083   .     S
C491   C493    1.387   .     A
C492   H504    1.083   .     S
C492   C494    1.387   .     A
C493   H505    1.083   .     S
C493   C495    1.403   .     A
C494   H506    1.083   .     S
C494   C496    1.403   .     A
C495   C730    1.471   1_545 S
C496   C729    1.471   .     S
Cu497  O517    1.955   .     S
Cu497  N516    2.008   .     S
Cu497  Cu498   2.673   .     S
Cu497  O524    1.959   .     S
Cu497  O521    1.956   .     S
Cu497  O520    1.953   .     S
Cu498  O519    1.953   .     S
Cu498  O518    1.955   .     S
Cu498  N515    2.008   .     S
Cu498  O522    1.956   .     S
Cu498  O523    1.959   .     S
H499   C561    1.087   .     S
H500   C640    1.087   1_455 S
C525   C530    1.407   .     A
C525   C760    1.407   1_545 S
C526   C527    1.398   .     A
C526   H531    1.081   .     S
C526   C759    1.407   .     S
C527   H532    1.082   .     S
C527   C528    1.397   .     A
C528   H533    1.082   .     S
C528   C763    1.397   .     S
C529   H534    1.083   .     S
C529   C530    1.398   .     A
C529   C762    1.397   1_545 S
C530   H535    1.083   .     S
C536   C541    1.407   .     A
C536   C771    1.407   .     S
C537   C538    1.398   .     A
C537   H542    1.081   .     S
C537   C770    1.407   1_545 S
C538   C539    1.397   .     A
C538   H543    1.082   .     S
C539   H544    1.082   .     S
C539   C774    1.397   1_545 S
C540   H545    1.082   .     S
C540   C541    1.398   .     A
C540   C773    1.397   .     S
C541   H546    1.083   .     S
C547   C567    1.457   .     S
C547   O597    1.292   .     A
C547   O595    1.291   .     A
C548   O596    1.292   .     A
C548   C568    1.459   .     S
C548   O598    1.293   .     A
C549   H585    1.081   .     S
C549   C551    1.407   .     A
C549   C557    1.411   .     A
C550   H586    1.081   .     S
C550   C558    1.411   .     A
C550   C552    1.407   .     A
C551   N593    1.364   .     A
C551   H587    1.081   .     S
C552   N594    1.364   .     A
C552   H588    1.081   .     S
C553   H589    1.081   .     S
C553   N593    1.364   .     A
C553   C555    1.407   .     A
C554   N594    1.364   .     A
C554   H590    1.081   .     S
C554   C556    1.407   .     A
C555   H591    1.081   .     S
C555   C557    1.411   .     A
C556   C558    1.411   .     A
C556   H592    1.081   .     S
C558   C89     1.516   1_556 S
C559   O599    1.285   .     A
C559   C561    1.433   .     S
C559   O601    1.287   .     A
C560   O602    1.287   .     A
C560   C562    1.433   .     S
C560   O600    1.284   .     A
C562   C639    1.335   .     S
C562   H656    1.087   .     S
C563   C573    1.419   .     A
C563   C565    1.399   .     A
C563   C603    1.487   .     S
C564   C614    1.488   .     S
C564   C574    1.419   .     A
C564   C566    1.399   .     A
C565   C567    1.400   .     A
C565   H579    1.084   .     S
C566   H580    1.084   .     S
C566   C568    1.401   .     A
C567   C569    1.397   .     A
C568   C570    1.397   .     A
C569   H581    1.083   .     S
C569   C571    1.387   .     A
C570   H582    1.083   .     S
C570   C572    1.387   .     A
C571   H583    1.083   .     S
C571   C573    1.403   .     A
C572   H584    1.083   .     S
C572   C574    1.403   .     A
C573   C808    1.471   1_545 S
C574   C807    1.471   .     S
Cu575  O595    1.955   .     S
Cu575  N594    2.008   .     S
Cu575  Cu576   2.673   .     S
Cu575  O602    1.959   .     S
Cu575  O599    1.956   .     S
Cu575  O598    1.953   .     S
Cu576  O597    1.953   .     S
Cu576  O596    1.955   .     S
Cu576  N593    2.008   .     S
Cu576  O600    1.956   .     S
Cu576  O601    1.959   .     S
H577   C639    1.087   .     S
C603   C608    1.407   .     A
C603   C838    1.407   1_545 S
C604   C605    1.398   .     A
C604   H609    1.081   .     S
C604   C837    1.407   .     S
C605   H610    1.082   .     S
C605   C606    1.397   .     A
C606   H611    1.082   .     S
C606   C841    1.397   .     S
C607   H612    1.083   .     S
C607   C608    1.398   .     A
C607   C840    1.397   1_545 S
C608   H613    1.083   .     S
C614   C619    1.407   .     A
C614   C849    1.407   .     S
C615   C616    1.398   .     A
C615   H620    1.081   .     S
C615   C848    1.407   1_545 S
C616   C617    1.397   .     A
C616   H621    1.082   .     S
C617   H622    1.082   .     S
C617   C852    1.397   1_545 S
C618   H623    1.082   .     S
C618   C619    1.398   .     A
C618   C851    1.397   .     S
C619   H624    1.083   .     S
C625   C645    1.457   .     S
C625   O675    1.292   .     A
C625   O673    1.291   .     A
C626   O674    1.292   .     A
C626   C646    1.459   .     S
C626   O676    1.293   .     A
C627   H663    1.081   .     S
C627   C629    1.407   .     A
C627   C635    1.411   .     A
C628   H664    1.081   .     S
C628   C636    1.411   .     A
C628   C630    1.407   .     A
C629   N671    1.364   .     A
C629   H665    1.081   .     S
C630   N672    1.364   .     A
C630   H666    1.081   .     S
C631   H667    1.081   .     S
C631   N671    1.364   .     A
C631   C633    1.407   .     A
C632   N672    1.364   .     A
C632   H668    1.081   .     S
C632   C634    1.407   .     A
C633   H669    1.081   .     S
C633   C635    1.411   .     A
C634   C636    1.411   .     A
C634   H670    1.081   .     S
C636   C167    1.516   1_556 S
C637   O677    1.285   .     A
C637   C639    1.433   .     S
C637   O679    1.287   .     A
C638   O680    1.287   .     A
C638   C640    1.433   .     S
C638   O678    1.284   .     A
C640   C483    1.335   1_655 S
C640   H500    1.087   1_655 S
C641   C651    1.419   .     A
C641   C643    1.399   .     A
C641   C681    1.487   .     S
C642   C692    1.488   .     S
C642   C652    1.419   .     A
C642   C644    1.399   .     A
C643   C645    1.400   .     A
C643   H657    1.084   .     S
C644   H658    1.084   .     S
C644   C646    1.401   .     A
C645   C647    1.397   .     A
C646   C648    1.397   .     A
C647   H659    1.083   .     S
C647   C649    1.387   .     A
C648   H660    1.083   .     S
C648   C650    1.387   .     A
C649   H661    1.083   .     S
C649   C651    1.403   .     A
C650   H662    1.083   .     S
C650   C652    1.403   .     A
C651   C886    1.471   1_545 S
C652   C885    1.471   .     S
Cu653  O673    1.955   .     S
Cu653  N672    2.008   .     S
Cu653  Cu654   2.673   .     S
Cu653  O680    1.959   .     S
Cu653  O677    1.956   .     S
Cu653  O676    1.953   .     S
Cu654  O675    1.953   .     S
Cu654  O674    1.955   .     S
Cu654  N671    2.008   .     S
Cu654  O678    1.956   .     S
Cu654  O679    1.959   .     S
H655   C483    1.087   1_655 S
C681   C686    1.407   .     A
C681   C916    1.407   1_545 S
C682   C683    1.398   .     A
C682   H687    1.081   .     S
C682   C915    1.407   .     S
C683   H688    1.082   .     S
C683   C684    1.397   .     A
C684   H689    1.082   .     S
C684   C919    1.397   .     S
C685   H690    1.083   .     S
C685   C686    1.398   .     A
C685   C918    1.397   1_545 S
C686   H691    1.083   .     S
C692   C697    1.407   .     A
C692   C927    1.407   .     S
C693   C694    1.398   .     A
C693   H698    1.081   .     S
C693   C926    1.407   1_545 S
C694   C695    1.397   .     A
C694   H699    1.082   .     S
C695   H700    1.082   .     S
C695   C930    1.397   1_545 S
C696   H701    1.082   .     S
C696   C697    1.398   .     A
C696   C929    1.397   .     S
C697   H702    1.083   .     S
C703   C723    1.457   .     S
C703   O753    1.292   .     A
C703   O751    1.291   .     A
C704   O752    1.292   .     A
C704   C724    1.459   .     S
C704   O754    1.293   .     A
C705   H741    1.081   .     S
C705   C707    1.407   .     A
C705   C713    1.411   .     A
C706   H742    1.081   .     S
C706   C714    1.411   .     A
C706   C708    1.407   .     A
C707   N749    1.364   .     A
C707   H743    1.081   .     S
C708   N750    1.364   .     A
C708   H744    1.081   .     S
C709   H745    1.081   .     S
C709   N749    1.364   .     A
C709   C711    1.407   .     A
C710   N750    1.364   .     A
C710   H746    1.081   .     S
C710   C712    1.407   .     A
C711   H747    1.081   .     S
C711   C713    1.411   .     A
C712   C714    1.411   .     A
C712   H748    1.081   .     S
C714   C245    1.516   1_556 S
C715   O755    1.285   .     A
C715   C717    1.433   .     S
C715   O757    1.287   .     A
C716   O758    1.287   .     A
C716   C718    1.433   .     S
C716   O756    1.284   .     A
C717   C874    1.335   1_455 S
C717   H889    1.087   1_455 S
C718   C795    1.335   .     S
C718   H812    1.087   .     S
C719   C729    1.419   .     A
C719   C721    1.399   .     A
C719   C759    1.487   .     S
C720   C770    1.488   .     S
C720   C730    1.419   .     A
C720   C722    1.399   .     A
C721   C723    1.400   .     A
C721   H735    1.084   .     S
C722   H736    1.084   .     S
C722   C724    1.401   .     A
C723   C725    1.397   .     A
C724   C726    1.397   .     A
C725   H737    1.083   .     S
C725   C727    1.387   .     A
C726   H738    1.083   .     S
C726   C728    1.387   .     A
C727   H739    1.083   .     S
C727   C729    1.403   .     A
C728   H740    1.083   .     S
C728   C730    1.403   .     A
C730   C495    1.471   1_565 S
Cu731  O751    1.955   .     S
Cu731  N750    2.008   .     S
Cu731  Cu732   2.673   .     S
Cu731  O758    1.959   .     S
Cu731  O755    1.956   .     S
Cu731  O754    1.953   .     S
Cu732  O753    1.953   .     S
Cu732  O752    1.955   .     S
Cu732  N749    2.008   .     S
Cu732  O756    1.956   .     S
Cu732  O757    1.959   .     S
H733   C795    1.087   .     S
H734   C874    1.087   1_455 S
C759   C764    1.407   .     A
C760   C761    1.398   .     A
C760   H765    1.081   .     S
C760   C525    1.407   1_565 S
C761   H766    1.082   .     S
C761   C762    1.397   .     A
C762   H767    1.082   .     S
C762   C529    1.397   1_565 S
C763   H768    1.083   .     S
C763   C764    1.398   .     A
C764   H769    1.083   .     S
C770   C775    1.407   .     A
C770   C537    1.407   1_565 S
C771   C772    1.398   .     A
C771   H776    1.081   .     S
C772   C773    1.397   .     A
C772   H777    1.082   .     S
C773   H778    1.082   .     S
C774   H779    1.082   .     S
C774   C775    1.398   .     A
C774   C539    1.397   1_565 S
C775   H780    1.083   .     S
C781   C801    1.457   .     S
C781   O831    1.292   .     A
C781   O829    1.291   .     A
C782   O830    1.292   .     A
C782   C802    1.459   .     S
C782   O832    1.293   .     A
C783   H819    1.081   .     S
C783   C785    1.407   .     A
C783   C791    1.411   .     A
C784   H820    1.081   .     S
C784   C792    1.411   .     A
C784   C786    1.407   .     A
C785   N827    1.364   .     A
C785   H821    1.081   .     S
C786   N828    1.364   .     A
C786   H822    1.081   .     S
C787   H823    1.081   .     S
C787   N827    1.364   .     A
C787   C789    1.407   .     A
C788   N828    1.364   .     A
C788   H824    1.081   .     S
C788   C790    1.407   .     A
C789   H825    1.081   .     S
C789   C791    1.411   .     A
C790   C792    1.411   .     A
C790   H826    1.081   .     S
C792   C323    1.516   1_556 S
C793   O833    1.285   .     A
C793   C795    1.433   .     S
C793   O835    1.287   .     A
C794   O836    1.287   .     A
C794   C796    1.433   .     S
C794   O834    1.284   .     A
C796   C873    1.335   .     S
C796   H890    1.087   .     S
C797   C807    1.419   .     A
C797   C799    1.399   .     A
C797   C837    1.487   .     S
C798   C848    1.488   .     S
C798   C808    1.419   .     A
C798   C800    1.399   .     A
C799   C801    1.400   .     A
C799   H813    1.084   .     S
C800   H814    1.084   .     S
C800   C802    1.401   .     A
C801   C803    1.397   .     A
C802   C804    1.397   .     A
C803   H815    1.083   .     S
C803   C805    1.387   .     A
C804   H816    1.083   .     S
C804   C806    1.387   .     A
C805   H817    1.083   .     S
C805   C807    1.403   .     A
C806   H818    1.083   .     S
C806   C808    1.403   .     A
C808   C573    1.471   1_565 S
Cu809  O829    1.955   .     S
Cu809  N828    2.008   .     S
Cu809  Cu810   2.673   .     S
Cu809  O836    1.959   .     S
Cu809  O833    1.956   .     S
Cu809  O832    1.953   .     S
Cu810  O831    1.953   .     S
Cu810  O830    1.955   .     S
Cu810  N827    2.008   .     S
Cu810  O834    1.956   .     S
Cu810  O835    1.959   .     S
H811   C873    1.087   .     S
C837   C842    1.407   .     A
C838   C839    1.398   .     A
C838   H843    1.081   .     S
C838   C603    1.407   1_565 S
C839   H844    1.082   .     S
C839   C840    1.397   .     A
C840   H845    1.082   .     S
C840   C607    1.397   1_565 S
C841   H846    1.083   .     S
C841   C842    1.398   .     A
C842   H847    1.083   .     S
C848   C853    1.407   .     A
C848   C615    1.407   1_565 S
C849   C850    1.398   .     A
C849   H854    1.081   .     S
C850   C851    1.397   .     A
C850   H855    1.082   .     S
C851   H856    1.082   .     S
C852   H857    1.082   .     S
C852   C853    1.398   .     A
C852   C617    1.397   1_565 S
C853   H858    1.083   .     S
C859   C879    1.457   .     S
C859   O909    1.292   .     A
C859   O907    1.291   .     A
C860   O908    1.292   .     A
C860   C880    1.459   .     S
C860   O910    1.293   .     A
C861   H897    1.081   .     S
C861   C863    1.407   .     A
C861   C869    1.411   .     A
C862   H898    1.081   .     S
C862   C870    1.411   .     A
C862   C864    1.407   .     A
C863   N905    1.364   .     A
C863   H899    1.081   .     S
C864   N906    1.364   .     A
C864   H900    1.081   .     S
C865   H901    1.081   .     S
C865   N905    1.364   .     A
C865   C867    1.407   .     A
C866   N906    1.364   .     A
C866   H902    1.081   .     S
C866   C868    1.407   .     A
C867   H903    1.081   .     S
C867   C869    1.411   .     A
C868   C870    1.411   .     A
C868   H904    1.081   .     S
C870   C401    1.516   1_556 S
C871   O911    1.285   .     A
C871   C873    1.433   .     S
C871   O913    1.287   .     A
C872   O914    1.287   .     A
C872   C874    1.433   .     S
C872   O912    1.284   .     A
C874   C717    1.335   1_655 S
C874   H734    1.087   1_655 S
C875   C885    1.419   .     A
C875   C877    1.399   .     A
C875   C915    1.487   .     S
C876   C926    1.488   .     S
C876   C886    1.419   .     A
C876   C878    1.399   .     A
C877   C879    1.400   .     A
C877   H891    1.084   .     S
C878   H892    1.084   .     S
C878   C880    1.401   .     A
C879   C881    1.397   .     A
C880   C882    1.397   .     A
C881   H893    1.083   .     S
C881   C883    1.387   .     A
C882   H894    1.083   .     S
C882   C884    1.387   .     A
C883   H895    1.083   .     S
C883   C885    1.403   .     A
C884   H896    1.083   .     S
C884   C886    1.403   .     A
C886   C651    1.471   1_565 S
Cu887  O907    1.955   .     S
Cu887  N906    2.008   .     S
Cu887  Cu888   2.673   .     S
Cu887  O914    1.959   .     S
Cu887  O911    1.956   .     S
Cu887  O910    1.953   .     S
Cu888  O909    1.953   .     S
Cu888  O908    1.955   .     S
Cu888  N905    2.008   .     S
Cu888  O912    1.956   .     S
Cu888  O913    1.959   .     S
H889   C717    1.087   1_655 S
C915   C920    1.407   .     A
C916   C917    1.398   .     A
C916   H921    1.081   .     S
C916   C681    1.407   1_565 S
C917   H922    1.082   .     S
C917   C918    1.397   .     A
C918   H923    1.082   .     S
C918   C685    1.397   1_565 S
C919   H924    1.083   .     S
C919   C920    1.398   .     A
C920   H925    1.083   .     S
C926   C931    1.407   .     A
C926   C693    1.407   1_565 S
C927   C928    1.398   .     A
C927   H932    1.081   .     S
C928   C929    1.397   .     A
C928   H933    1.082   .     S
C929   H934    1.082   .     S
C930   H935    1.082   .     S
C930   C931    1.398   .     A
C930   C695    1.397   1_565 S
C931   H936    1.083   .     S
